TITL C-951346-9544-202 -2.93899001107868e-06 125000 -1000.68244992791 0 0 159 (C1) n - 1
REM
REM in /home/bkarasulu/work/CARBON/AIRSS/Generating-Clusters/EDIP-Nigel-Params/with-SteepDescent/Only-C1/SD-CG/HFTN-CG
REM
REM
REM
REM
REM
REM ./C.cell (11c1c37f851c82e70ff6c80c92926a4b)
REM
REM compiler GCC version 9.2.1 20190827 (Red Hat 9.2.1-1)
REM options -cpp -mtune=generic -march=x86-64 -g -O0 -fpre-include=/usr/include/finclude/math-vector-fortran.h
REM seed 1214181031 -1962873396 241966011 -1308895568 1745482048 1050171655 1368717727 857586286 -1282747012 -79940483 -1483681097 1274012623 -500770382 656594223 -360161679 -2014068495 -435564855 -1662921744 -170426151 586573510 -1787244217 -837867818 -929551590 378780902 2045986909 -1854517629 235832891 -484411917 1667035091 -141623050 666837051 -325043646 -217005553
REM
CELL 1.54180   50.00000   50.00000   50.00000   90.00000   90.00000   90.00000
LATT -1
SFAC C  
C      1  0.4707890000000  0.4129110000000  0.4844170000000 1.0
C      1  0.5223830000000  0.4838310000000  0.5390600000000 1.0
C      1  0.5166130000000  0.4295560000000  0.5015250000000 1.0
C      1  0.4622730000000  0.3954720000000  0.5397090000000 1.0
C      1  0.5030390000000  0.4178170000000  0.4069070000000 1.0
C      1  0.4861030000000  0.5634430000000  0.4138040000000 1.0
C      1  0.4566630000000  0.5273270000000  0.5104810000000 1.0
C      1  0.5671440000000  0.5243630000000  0.5873990000000 1.0
C      1  0.4631400000000  0.5603450000000  0.4338090000000 1.0
C      1  0.5396530000000  0.4699310000000  0.5195750000000 1.0
C      1  0.4688620000000  0.4291440000000  0.4434040000000 1.0
C      1  0.4995900000000  0.4742580000000  0.5562100000000 1.0
C      1  0.5184590000000  0.5070830000000  0.4807380000000 1.0
C      1  0.5297290000000  0.5779510000000  0.5831710000000 1.0
C      1  0.5431670000000  0.5245370000000  0.5338060000000 1.0
C      1  0.4798620000000  0.5158950000000  0.5895390000000 1.0
C      1  0.5920920000000  0.5198290000000  0.5469810000000 1.0
C      1  0.5793340000000  0.4738310000000  0.4902040000000 1.0
C      1  0.5126240000000  0.5999670000000  0.4918570000000 1.0
C      1  0.5711400000000  0.5218790000000  0.4669890000000 1.0
C      1  0.5497640000000  0.5132400000000  0.4882480000000 1.0
C      1  0.4312800000000  0.5040070000000  0.5723910000000 1.0
C      1  0.5583530000000  0.5061890000000  0.4168470000000 1.0
C      1  0.4445710000000  0.5459700000000  0.5928080000000 1.0
C      1  0.5646440000000  0.5465740000000  0.4528900000000 1.0
C      1  0.4494890000000  0.5182950000000  0.5927200000000 1.0
C      1  0.5862320000000  0.4229390000000  0.4790060000000 1.0
C      1  0.4344000000000  0.5768880000000  0.4630990000000 1.0
C      1  0.4203400000000  0.5482970000000  0.5530660000000 1.0
C      1  0.5454380000000  0.5688460000000  0.4609410000000 1.0
C      1  0.5066410000000  0.5876830000000  0.5672040000000 1.0
C      1  0.5900010000000  0.5105310000000  0.4475690000000 1.0
C      1  0.5438510000000  0.4167390000000  0.5002550000000 1.0
C      1  0.5583030000000  0.4216950000000  0.4752120000000 1.0
C      1  0.4919290000000  0.4707820000000  0.6069410000000 1.0
C      1  0.5509750000000  0.5362270000000  0.5084050000000 1.0
C      1  0.4958350000000  0.4664150000000  0.4587790000000 1.0
C      1  0.5428950000000  0.4920480000000  0.4407510000000 1.0
C      1  0.5700320000000  0.4952980000000  0.5806370000000 1.0
C      1  0.4884970000000  0.4382330000000  0.4234900000000 1.0
C      1  0.5641620000000  0.5376070000000  0.4240900000000 1.0
C      1  0.4541610000000  0.4581570000000  0.5826330000000 1.0
C      1  0.4843510000000  0.4043010000000  0.5269720000000 1.0
C      1  0.5025080000000  0.5246990000000  0.4607770000000 1.0
C      1  0.4107940000000  0.4542610000000  0.4543980000000 1.0
C      1  0.5723860000000  0.4720160000000  0.4150570000000 1.0
C      1  0.5384640000000  0.5092210000000  0.3933290000000 1.0
C      1  0.4263530000000  0.4610920000000  0.5454000000000 1.0
C      1  0.4428460000000  0.4229700000000  0.4351880000000 1.0
C      1  0.4306780000000  0.5066450000000  0.4806090000000 1.0
C      1  0.4950010000000  0.5495200000000  0.4732010000000 1.0
C      1  0.5013790000000  0.4272000000000  0.5293770000000 1.0
C      1  0.4832280000000  0.4543720000000  0.5383480000000 1.0
C      1  0.5377500000000  0.5819270000000  0.4896090000000 1.0
C      1  0.4379990000000  0.5148800000000  0.5302170000000 1.0
C      1  0.4763400000000  0.5049530000000  0.5059300000000 1.0
C      1  0.4908340000000  0.4927990000000  0.3852190000000 1.0
C      1  0.4959280000000  0.4301320000000  0.5765440000000 1.0
C      1  0.5566710000000  0.4489190000000  0.5365200000000 1.0
C      1  0.4869070000000  0.5475660000000  0.5450300000000 1.0
C      1  0.5764880000000  0.5733100000000  0.5257600000000 1.0
C      1  0.5579470000000  0.5916330000000  0.5121390000000 1.0
C      1  0.4563780000000  0.5779110000000  0.5256570000000 1.0
C      1  0.5283540000000  0.5027890000000  0.6041250000000 1.0
C      1  0.4743590000000  0.4706260000000  0.3872310000000 1.0
C      1  0.4245760000000  0.5822790000000  0.4876680000000 1.0
C      1  0.5354160000000  0.4572370000000  0.5846140000000 1.0
C      1  0.3921710000000  0.5190800000000  0.5349770000000 1.0
C      1  0.4349970000000  0.5487840000000  0.4606960000000 1.0
C      1  0.5005250000000  0.5470580000000  0.5016920000000 1.0
C      1  0.5122140000000  0.6035970000000  0.5437630000000 1.0
C      1  0.5290630000000  0.5583650000000  0.5072510000000 1.0
C      1  0.5889890000000  0.4292580000000  0.5064840000000 1.0
C      1  0.4344180000000  0.4347770000000  0.5360580000000 1.0
C      1  0.5443820000000  0.4844060000000  0.5878700000000 1.0
C      1  0.5497090000000  0.4278350000000  0.4278280000000 1.0
C      1  0.4508930000000  0.4176530000000  0.5525000000000 1.0
C      1  0.5024090000000  0.5241560000000  0.5522040000000 1.0
C      1  0.4984470000000  0.4992710000000  0.6083060000000 1.0
C      1  0.5306530000000  0.5689030000000  0.4350690000000 1.0
C      1  0.5006740000000  0.5968880000000  0.5184020000000 1.0
C      1  0.5252600000000  0.4554650000000  0.4032510000000 1.0
C      1  0.5819130000000  0.4923060000000  0.5535480000000 1.0
C      1  0.4078360000000  0.5231460000000  0.5613830000000 1.0
C      1  0.5155680000000  0.4912760000000  0.4268050000000 1.0
C      1  0.5401950000000  0.5297350000000  0.6006610000000 1.0
C      1  0.4967010000000  0.5379720000000  0.4037750000000 1.0
C      1  0.4998940000000  0.4166580000000  0.4791340000000 1.0
C      1  0.5252590000000  0.5365630000000  0.3956980000000 1.0
C      1  0.4510580000000  0.5140120000000  0.4114350000000 1.0
C      1  0.4314530000000  0.4725980000000  0.5714840000000 1.0
C      1  0.4106830000000  0.5023680000000  0.5184740000000 1.0
C      1  0.5349010000000  0.5462330000000  0.5529830000000 1.0
C      1  0.3874680000000  0.5438880000000  0.5211990000000 1.0
C      1  0.4414790000000  0.4214810000000  0.4839800000000 1.0
C      1  0.6003480000000  0.4906010000000  0.4790930000000 1.0
C      1  0.4090460000000  0.5599130000000  0.5296810000000 1.0
C      1  0.4574940000000  0.5786770000000  0.5577250000000 1.0
C      1  0.5791840000000  0.5478770000000  0.5103960000000 1.0
C      1  0.5548830000000  0.5830920000000  0.5712120000000 1.0
C      1  0.4283620000000  0.5757510000000  0.5144000000000 1.0
C      1  0.5833720000000  0.4642530000000  0.5412650000000 1.0
C      1  0.4098350000000  0.4735520000000  0.5256770000000 1.0
C      1  0.5337430000000  0.5730820000000  0.5353120000000 1.0
C      1  0.4840530000000  0.5667760000000  0.5668140000000 1.0
C      1  0.5136300000000  0.4344200000000  0.3863870000000 1.0
C      1  0.5121620000000  0.4088900000000  0.4541330000000 1.0
C      1  0.5542530000000  0.4495690000000  0.4066640000000 1.0
C      1  0.4418300000000  0.4853560000000  0.4181870000000 1.0
C      1  0.4864230000000  0.5972040000000  0.4767210000000 1.0
C      1  0.5725080000000  0.5674140000000  0.5553510000000 1.0
C      1  0.4914900000000  0.5451720000000  0.5891210000000 1.0
C      1  0.5635380000000  0.4243630000000  0.5206360000000 1.0
C      1  0.4404110000000  0.5335060000000  0.4850950000000 1.0
C      1  0.4675380000000  0.4763840000000  0.5151770000000 1.0
C      1  0.4828280000000  0.5011220000000  0.5606650000000 1.0
C      1  0.5608700000000  0.4684410000000  0.4566110000000 1.0
C      1  0.5033660000000  0.5786460000000  0.4329390000000 1.0
C      1  0.4788700000000  0.5119130000000  0.4505030000000 1.0
C      1  0.5036660000000  0.5163790000000  0.5053180000000 1.0
C      1  0.5427480000000  0.5538420000000  0.4125610000000 1.0
C      1  0.4722700000000  0.4484710000000  0.4681680000000 1.0
C      1  0.5124170000000  0.4774640000000  0.4796870000000 1.0
C      1  0.4272180000000  0.4800580000000  0.4456150000000 1.0
C      1  0.4645720000000  0.4657720000000  0.6072480000000 1.0
C      1  0.4076950000000  0.5049830000000  0.4587870000000 1.0
C      1  0.4152420000000  0.4576740000000  0.5016210000000 1.0
C      1  0.4877400000000  0.4866380000000  0.4375640000000 1.0
C      1  0.4858690000000  0.5735100000000  0.4578260000000 1.0
C      1  0.5240070000000  0.4089640000000  0.4273540000000 1.0
C      1  0.5938540000000  0.4580290000000  0.5126480000000 1.0
C      1  0.4519260000000  0.4637750000000  0.4897610000000 1.0
C      1  0.4486070000000  0.4854510000000  0.4690230000000 1.0
C      1  0.5860940000000  0.4649710000000  0.4401320000000 1.0
C      1  0.5133200000000  0.4494920000000  0.4399330000000 1.0
C      1  0.4681240000000  0.4707070000000  0.4156230000000 1.0
C      1  0.4775310000000  0.5171850000000  0.3952130000000 1.0
C      1  0.5168110000000  0.4231850000000  0.5556730000000 1.0
C      1  0.4689520000000  0.4389600000000  0.5640470000000 1.0
C      1  0.4737620000000  0.5518720000000  0.5194930000000 1.0
C      1  0.6045600000000  0.4857380000000  0.4503940000000 1.0
C      1  0.5769480000000  0.5390040000000  0.5634900000000 1.0
C      1  0.4369760000000  0.5625680000000  0.5714100000000 1.0
C      1  0.4272420000000  0.4287930000000  0.4579140000000 1.0
C      1  0.3944530000000  0.4929660000000  0.4843630000000 1.0
C      1  0.5179220000000  0.4874990000000  0.3974060000000 1.0
C      1  0.4574900000000  0.5289540000000  0.4371310000000 1.0
C      1  0.5585280000000  0.4890340000000  0.5039970000000 1.0
C      1  0.5415020000000  0.4395050000000  0.5612550000000 1.0
C      1  0.5218290000000  0.4587140000000  0.4991440000000 1.0
C      1  0.5458470000000  0.4411790000000  0.4550940000000 1.0
C      1  0.4274350000000  0.4315300000000  0.5076760000000 1.0
C      1  0.5059140000000  0.4581760000000  0.5833930000000 1.0
C      1  0.4727160000000  0.5985670000000  0.5112240000000 1.0
C      1  0.4553680000000  0.4940690000000  0.5430900000000 1.0
C      1  0.5182710000000  0.5110760000000  0.5312610000000 1.0
C      1  0.3965020000000  0.4627510000000  0.4796180000000 1.0
C      1  0.5225550000000  0.5477980000000  0.5842030000000 1.0
C      1  0.5978770000000  0.5297000000000  0.5214830000000 1.0
END
