TITL C-950525-1983-129 -3.98301978730911e-06 125000 -1091.18168148462 0 0 174 (C1) n - 1
REM
REM in /home/bkarasulu/work/CARBON/AIRSS/Generating-Clusters/EDIP-Nigel-Params/with-SteepDescent/Only-C1/SD-CG/HFTN-CG
REM
REM
REM
REM
REM
REM ./C.cell (11c1c37f851c82e70ff6c80c92926a4b)
REM
REM compiler GCC version 9.2.1 20190827 (Red Hat 9.2.1-1)
REM options -cpp -mtune=generic -march=x86-64 -g -O0 -fpre-include=/usr/include/finclude/math-vector-fortran.h
REM seed -490246590 -862608832 1922779371 -640223979 -1864881594 1368515019 406305173 -1998293168 -785791529 -228958564 -1367041307 -1604802527 -759805977 -1134846416 1385990788 1830535344 -759998631 745959706 2014900933 -1022651987 -2072249990 780376596 -1215633758 492233090 192788741 -9562422 745527816 2024491758 526247611 -1789914676 808828320 -253647112 -16774748
REM
CELL 1.54180   50.00000   50.00000   50.00000   90.00000   90.00000   90.00000
LATT -1
SFAC C  
C      1  0.5974200000000  0.4815480000000  0.5409600000000 1.0
C      1  0.5807790000000  0.4654070000000  0.5595260000000 1.0
C      1  0.4972760000000  0.4346050000000  0.5477170000000 1.0
C      1  0.5360670000000  0.4384320000000  0.5750780000000 1.0
C      1  0.4870510000000  0.4011210000000  0.4857440000000 1.0
C      1  0.5690070000000  0.5286740000000  0.5895940000000 1.0
C      1  0.4817900000000  0.5431420000000  0.5990750000000 1.0
C      1  0.4855090000000  0.4023600000000  0.4557430000000 1.0
C      1  0.5231610000000  0.5213280000000  0.4880790000000 1.0
C      1  0.5437090000000  0.4862960000000  0.5056290000000 1.0
C      1  0.5832970000000  0.4222170000000  0.4678620000000 1.0
C      1  0.4383260000000  0.5695280000000  0.5087370000000 1.0
C      1  0.5480620000000  0.5982940000000  0.5215480000000 1.0
C      1  0.4595910000000  0.4872560000000  0.4670160000000 1.0
C      1  0.4507230000000  0.4237850000000  0.5513880000000 1.0
C      1  0.5088950000000  0.5070670000000  0.5264000000000 1.0
C      1  0.4123450000000  0.4342840000000  0.5213970000000 1.0
C      1  0.4765960000000  0.5615890000000  0.5788020000000 1.0
C      1  0.4567610000000  0.4197760000000  0.5796040000000 1.0
C      1  0.4353860000000  0.5463380000000  0.5642340000000 1.0
C      1  0.5303120000000  0.5016640000000  0.4494750000000 1.0
C      1  0.4624940000000  0.4190920000000  0.4465880000000 1.0
C      1  0.5160090000000  0.5067140000000  0.6129600000000 1.0
C      1  0.5762990000000  0.5221780000000  0.4944650000000 1.0
C      1  0.5988660000000  0.4978920000000  0.4556510000000 1.0
C      1  0.4243050000000  0.4760100000000  0.5851510000000 1.0
C      1  0.5499000000000  0.5450720000000  0.5751500000000 1.0
C      1  0.5104800000000  0.5867020000000  0.4833040000000 1.0
C      1  0.5698250000000  0.4487630000000  0.4239290000000 1.0
C      1  0.5026140000000  0.6051590000000  0.4611200000000 1.0
C      1  0.4185090000000  0.4642180000000  0.5571260000000 1.0
C      1  0.5070800000000  0.4354460000000  0.5762010000000 1.0
C      1  0.4061830000000  0.4819440000000  0.4660090000000 1.0
C      1  0.5164210000000  0.5786790000000  0.5814630000000 1.0
C      1  0.4138660000000  0.4842050000000  0.4386940000000 1.0
C      1  0.4836810000000  0.5889400000000  0.4482020000000 1.0
C      1  0.4697620000000  0.4454900000000  0.5428290000000 1.0
C      1  0.4018470000000  0.4601410000000  0.5089920000000 1.0
C      1  0.4673240000000  0.5008520000000  0.5510910000000 1.0
C      1  0.5380730000000  0.5766370000000  0.5372400000000 1.0
C      1  0.4518510000000  0.5177390000000  0.5101270000000 1.0
C      1  0.4172440000000  0.5704740000000  0.4891270000000 1.0
C      1  0.6030540000000  0.4697170000000  0.4515590000000 1.0
C      1  0.4195620000000  0.5112670000000  0.4284430000000 1.0
C      1  0.4164390000000  0.5351540000000  0.4489790000000 1.0
C      1  0.4367920000000  0.5266580000000  0.5865190000000 1.0
C      1  0.4207740000000  0.5293200000000  0.5160640000000 1.0
C      1  0.5076650000000  0.5232850000000  0.5688210000000 1.0
C      1  0.5423690000000  0.4949510000000  0.6124050000000 1.0
C      1  0.5472600000000  0.4318910000000  0.5481020000000 1.0
C      1  0.5149990000000  0.5850140000000  0.5539730000000 1.0
C      1  0.5341290000000  0.5260470000000  0.5594200000000 1.0
C      1  0.4961040000000  0.4057300000000  0.5394700000000 1.0
C      1  0.4745250000000  0.5426660000000  0.5316490000000 1.0
C      1  0.4208120000000  0.5037320000000  0.5872410000000 1.0
C      1  0.5877270000000  0.5154770000000  0.4340880000000 1.0
C      1  0.4040190000000  0.5042940000000  0.5267640000000 1.0
C      1  0.5289920000000  0.5565340000000  0.5940210000000 1.0
C      1  0.5716810000000  0.4452440000000  0.5411180000000 1.0
C      1  0.5603700000000  0.4814980000000  0.5739200000000 1.0
C      1  0.5606980000000  0.4058340000000  0.4615240000000 1.0
C      1  0.5460500000000  0.4062500000000  0.5332160000000 1.0
C      1  0.4675460000000  0.4628600000000  0.5174170000000 1.0
C      1  0.5361120000000  0.4677680000000  0.5852440000000 1.0
C      1  0.4345590000000  0.4262470000000  0.5048940000000 1.0
C      1  0.4262190000000  0.4609920000000  0.4288930000000 1.0
C      1  0.6016270000000  0.4699340000000  0.5148610000000 1.0
C      1  0.5137730000000  0.4533000000000  0.5296670000000 1.0
C      1  0.5370050000000  0.4852900000000  0.3917340000000 1.0
C      1  0.4600090000000  0.5859000000000  0.4689980000000 1.0
C      1  0.5482260000000  0.5112810000000  0.3876730000000 1.0
C      1  0.4486500000000  0.5940890000000  0.5182390000000 1.0
C      1  0.4190700000000  0.5643260000000  0.4391830000000 1.0
C      1  0.5803680000000  0.4504040000000  0.5124510000000 1.0
C      1  0.4915070000000  0.5187070000000  0.4915230000000 1.0
C      1  0.4540070000000  0.4666460000000  0.4344370000000 1.0
C      1  0.5699090000000  0.5614220000000  0.4594390000000 1.0
C      1  0.5040430000000  0.5341810000000  0.3980290000000 1.0
C      1  0.5970150000000  0.5299850000000  0.5441980000000 1.0
C      1  0.4091610000000  0.4575870000000  0.4805920000000 1.0
C      1  0.4911170000000  0.5084270000000  0.3911830000000 1.0
C      1  0.5650490000000  0.5011360000000  0.5953680000000 1.0
C      1  0.5160220000000  0.3951090000000  0.4935220000000 1.0
C      1  0.5386040000000  0.5980630000000  0.4735740000000 1.0
C      1  0.4730270000000  0.4866040000000  0.5758700000000 1.0
C      1  0.3952280000000  0.5198610000000  0.5509790000000 1.0
C      1  0.4660570000000  0.6017590000000  0.4956710000000 1.0
C      1  0.4686910000000  0.4981320000000  0.6128050000000 1.0
C      1  0.4389680000000  0.5127690000000  0.4065940000000 1.0
C      1  0.5091220000000  0.4334340000000  0.4893260000000 1.0
C      1  0.5580130000000  0.5964220000000  0.4959070000000 1.0
C      1  0.5622500000000  0.4783360000000  0.4191410000000 1.0
C      1  0.4597250000000  0.5507400000000  0.4157210000000 1.0
C      1  0.5038130000000  0.4368920000000  0.4076330000000 1.0
C      1  0.4862450000000  0.5018570000000  0.4655070000000 1.0
C      1  0.5556760000000  0.4610920000000  0.4958540000000 1.0
C      1  0.4685710000000  0.3979230000000  0.5322230000000 1.0
C      1  0.5362090000000  0.5564580000000  0.4878890000000 1.0
C      1  0.4344150000000  0.4411330000000  0.4797800000000 1.0
C      1  0.5371210000000  0.4372880000000  0.5034190000000 1.0
C      1  0.4946940000000  0.4630100000000  0.4052330000000 1.0
C      1  0.5144640000000  0.4804670000000  0.5423120000000 1.0
C      1  0.5837950000000  0.4978770000000  0.4104910000000 1.0
C      1  0.4881890000000  0.5574030000000  0.4091710000000 1.0
C      1  0.4874830000000  0.5489130000000  0.4859190000000 1.0
C      1  0.5092470000000  0.5327970000000  0.5968350000000 1.0
C      1  0.4375070000000  0.4165590000000  0.4618450000000 1.0
C      1  0.4649310000000  0.4997930000000  0.4024360000000 1.0
C      1  0.5195230000000  0.3947910000000  0.5247120000000 1.0
C      1  0.4596240000000  0.5279350000000  0.4357270000000 1.0
C      1  0.4884810000000  0.5195140000000  0.5451880000000 1.0
C      1  0.5076130000000  0.4793330000000  0.5725440000000 1.0
C      1  0.5680280000000  0.5396160000000  0.4389950000000 1.0
C      1  0.4389450000000  0.3992580000000  0.4954100000000 1.0
C      1  0.4533490000000  0.4904820000000  0.5269020000000 1.0
C      1  0.5908180000000  0.5614160000000  0.5097420000000 1.0
C      1  0.6164870000000  0.5254030000000  0.5236940000000 1.0
C      1  0.5603300000000  0.5643680000000  0.5537960000000 1.0
C      1  0.5796350000000  0.5061640000000  0.5426850000000 1.0
C      1  0.3956200000000  0.5299340000000  0.4710280000000 1.0
C      1  0.4612270000000  0.5606910000000  0.5544080000000 1.0
C      1  0.5014430000000  0.5673050000000  0.4345070000000 1.0
C      1  0.5562790000000  0.4882280000000  0.4486670000000 1.0
C      1  0.5084380000000  0.4843660000000  0.3922060000000 1.0
C      1  0.4217410000000  0.4351650000000  0.5490790000000 1.0
C      1  0.4258410000000  0.5811160000000  0.4624020000000 1.0
C      1  0.4385050000000  0.5689720000000  0.4192800000000 1.0
C      1  0.5262970000000  0.5540270000000  0.5182700000000 1.0
C      1  0.5791220000000  0.5009600000000  0.4754700000000 1.0
C      1  0.5557270000000  0.4111520000000  0.5047480000000 1.0
C      1  0.4931920000000  0.5972470000000  0.5073580000000 1.0
C      1  0.5595130000000  0.5105520000000  0.5180370000000 1.0
C      1  0.5725590000000  0.5716710000000  0.4889960000000 1.0
C      1  0.4921160000000  0.5955900000000  0.5381860000000 1.0
C      1  0.5317470000000  0.5723920000000  0.4300200000000 1.0
C      1  0.4451370000000  0.5096290000000  0.4811860000000 1.0
C      1  0.4948470000000  0.4862140000000  0.6125670000000 1.0
C      1  0.5479450000000  0.5501610000000  0.4191440000000 1.0
C      1  0.5762680000000  0.5128940000000  0.3879950000000 1.0
C      1  0.5839480000000  0.4228260000000  0.4985350000000 1.0
C      1  0.5812370000000  0.4495560000000  0.4523480000000 1.0
C      1  0.6028500000000  0.5362520000000  0.5007210000000 1.0
C      1  0.5329830000000  0.4028540000000  0.4677430000000 1.0
C      1  0.5221510000000  0.4226580000000  0.4226830000000 1.0
C      1  0.4046230000000  0.5445410000000  0.4944090000000 1.0
C      1  0.5153390000000  0.4821400000000  0.4927660000000 1.0
C      1  0.5334430000000  0.5329230000000  0.4005460000000 1.0
C      1  0.5340190000000  0.5257700000000  0.5304800000000 1.0
C      1  0.4951300000000  0.5588820000000  0.5141710000000 1.0
C      1  0.5133650000000  0.4107030000000  0.4476850000000 1.0
C      1  0.5488430000000  0.4305310000000  0.4203420000000 1.0
C      1  0.5800560000000  0.5522570000000  0.5357070000000 1.0
C      1  0.4866580000000  0.5208280000000  0.4433430000000 1.0
C      1  0.4979380000000  0.4586690000000  0.5037750000000 1.0
C      1  0.5486340000000  0.5800720000000  0.4523980000000 1.0
C      1  0.4584520000000  0.5565600000000  0.4799080000000 1.0
C      1  0.4650560000000  0.3905650000000  0.5039740000000 1.0
C      1  0.4130370000000  0.5428750000000  0.5462590000000 1.0
C      1  0.4623340000000  0.5223430000000  0.5993140000000 1.0
C      1  0.5300030000000  0.5309880000000  0.4593850000000 1.0
C      1  0.4634400000000  0.5897740000000  0.5439710000000 1.0
C      1  0.4700780000000  0.4471180000000  0.4516200000000 1.0
C      1  0.3895140000000  0.5015170000000  0.4788160000000 1.0
C      1  0.5024770000000  0.5433180000000  0.4534490000000 1.0
C      1  0.4608890000000  0.4577410000000  0.4793460000000 1.0
C      1  0.5105030000000  0.4849920000000  0.4630200000000 1.0
C      1  0.5584470000000  0.4629200000000  0.4657610000000 1.0
C      1  0.4443670000000  0.5332700000000  0.4627020000000 1.0
C      1  0.3844050000000  0.4948090000000  0.5068670000000 1.0
C      1  0.4236710000000  0.4820460000000  0.5326730000000 1.0
C      1  0.4678360000000  0.4721990000000  0.4094760000000 1.0
C      1  0.4519820000000  0.4649580000000  0.5772220000000 1.0
C      1  0.4626220000000  0.4432800000000  0.5937850000000 1.0
C      1  0.4915140000000  0.4519260000000  0.5958460000000 1.0
END
