TITL C-950534-5965-640 -5.45478010342097e-07 125000 -115.908810934106 0 0 21 (C1) n - 1
REM
REM in /home/bkarasulu/work/CARBON/AIRSS/Generating-Clusters/EDIP-Nigel-Params/with-SteepDescent/Only-C1/SD-CG/HFTN-CG
REM
REM
REM
REM
REM
REM ./C.cell (11c1c37f851c82e70ff6c80c92926a4b)
REM
REM compiler GCC version 9.2.1 20190827 (Red Hat 9.2.1-1)
REM options -cpp -mtune=generic -march=x86-64 -g -O0 -fpre-include=/usr/include/finclude/math-vector-fortran.h
REM seed -821933354 -1996526905 1101241885 58567039 -83696297 394166330 327854267 -1479453974 808660173 1588936431 1784854260 442135867 -1038793935 -309159506 -1808235891 -303066955 -494219988 -384173824 -1510874477 1966354011 -385314673 983836080 -2017679273 -1794480753 -137447005 1542164260 -1272467768 -1856382102 -1951715653 731385444 -1922903502 2022694357 -415788019
REM
CELL 1.54180   50.00000   50.00000   50.00000   90.00000   90.00000   90.00000
LATT -1
SFAC C  
C      1  0.5132130000000  0.4615030000000  0.4888580000000 1.0
C      1  0.4934790000000  0.4630800000000  0.4703350000000 1.0
C      1  0.5175620000000  0.5284620000000  0.5008360000000 1.0
C      1  0.4995200000000  0.5248950000000  0.5245040000000 1.0
C      1  0.5555300000000  0.4839820000000  0.5375650000000 1.0
C      1  0.5110470000000  0.5016090000000  0.5390620000000 1.0
C      1  0.4463280000000  0.4729150000000  0.5084100000000 1.0
C      1  0.4682550000000  0.5442680000000  0.5108350000000 1.0
C      1  0.4703850000000  0.5164860000000  0.5176090000000 1.0
C      1  0.5326730000000  0.4878220000000  0.5245840000000 1.0
C      1  0.4681350000000  0.4605440000000  0.5196890000000 1.0
C      1  0.4926990000000  0.4696970000000  0.5310190000000 1.0
C      1  0.5205790000000  0.5032300000000  0.4848340000000 1.0
C      1  0.4809530000000  0.4879150000000  0.4736780000000 1.0
C      1  0.5109150000000  0.5522810000000  0.4874280000000 1.0
C      1  0.4861290000000  0.5590340000000  0.4960110000000 1.0
C      1  0.5180720000000  0.5091540000000  0.4470940000000 1.0
C      1  0.5174000000000  0.4643920000000  0.5163300000000 1.0
C      1  0.4645280000000  0.4931420000000  0.4987310000000 1.0
C      1  0.4922410000000  0.5096290000000  0.4590340000000 1.0
C      1  0.5403580000000  0.5059590000000  0.4635540000000 1.0
END
