TITL C-950528-5794-281 1.35368140631477e-06 125000 -687.280407219008 0 0 112 (C1) n - 1
REM
REM in /home/bkarasulu/work/CARBON/AIRSS/Generating-Clusters/EDIP-Nigel-Params/with-SteepDescent/Only-C1/SD-CG/HFTN-CG
REM
REM
REM
REM
REM
REM ./C.cell (11c1c37f851c82e70ff6c80c92926a4b)
REM
REM compiler GCC version 9.2.1 20190827 (Red Hat 9.2.1-1)
REM options -cpp -mtune=generic -march=x86-64 -g -O0 -fpre-include=/usr/include/finclude/math-vector-fortran.h
REM seed -1106735801 2002828515 -476288806 242697968 -471711775 -1757505336 -57801707 931896043 2101979880 854352673 1904656565 -776822773 1071977476 -1563424676 1347726377 -479187028 135780668 1849769457 530892950 363633460 -19033796 306710928 1006275323 -724241373 -864946932 1497420921 756664316 1677965771 -2112133224 -2096294722 -1333006295 1942390913 -1166634635
REM
CELL 1.54180   50.00000   50.00000   50.00000   90.00000   90.00000   90.00000
LATT -1
SFAC C  
C      1  0.4374660000000  0.4445840000000  0.4836190000000 1.0
C      1  0.5161650000000  0.5540660000000  0.4261270000000 1.0
C      1  0.4876680000000  0.5209420000000  0.5984340000000 1.0
C      1  0.4835740000000  0.4306750000000  0.4726110000000 1.0
C      1  0.5423170000000  0.3890770000000  0.4664010000000 1.0
C      1  0.4904450000000  0.5456630000000  0.4398430000000 1.0
C      1  0.4341790000000  0.5103350000000  0.4463810000000 1.0
C      1  0.5420270000000  0.4210560000000  0.5206840000000 1.0
C      1  0.5399090000000  0.4085760000000  0.4470080000000 1.0
C      1  0.5558080000000  0.5036620000000  0.4260490000000 1.0
C      1  0.4048270000000  0.5033750000000  0.4877030000000 1.0
C      1  0.4646680000000  0.5220310000000  0.4845110000000 1.0
C      1  0.4691320000000  0.5046690000000  0.5852950000000 1.0
C      1  0.5843590000000  0.4832370000000  0.4867350000000 1.0
C      1  0.4993830000000  0.4763560000000  0.5424170000000 1.0
C      1  0.4595400000000  0.5041230000000  0.4287830000000 1.0
C      1  0.5557300000000  0.5343000000000  0.5561600000000 1.0
C      1  0.5506120000000  0.4539700000000  0.4285180000000 1.0
C      1  0.4551480000000  0.5850910000000  0.5226360000000 1.0
C      1  0.5820520000000  0.4656990000000  0.5114110000000 1.0
C      1  0.4841130000000  0.5473770000000  0.4904230000000 1.0
C      1  0.4806210000000  0.5329900000000  0.5425780000000 1.0
C      1  0.5183300000000  0.3978420000000  0.4770190000000 1.0
C      1  0.5484710000000  0.4440210000000  0.5581710000000 1.0
C      1  0.4901730000000  0.5294800000000  0.3961050000000 1.0
C      1  0.5399580000000  0.5670220000000  0.4514500000000 1.0
C      1  0.4719980000000  0.5321570000000  0.4178110000000 1.0
C      1  0.5185710000000  0.5511450000000  0.5784210000000 1.0
C      1  0.5027750000000  0.5798500000000  0.5250120000000 1.0
C      1  0.4510650000000  0.4613200000000  0.5412890000000 1.0
C      1  0.4995180000000  0.5899780000000  0.4751520000000 1.0
C      1  0.5417840000000  0.4554350000000  0.5827740000000 1.0
C      1  0.4854190000000  0.4986370000000  0.4433990000000 1.0
C      1  0.4818780000000  0.5575440000000  0.5202540000000 1.0
C      1  0.5505720000000  0.5741760000000  0.5116130000000 1.0
C      1  0.5782480000000  0.5123550000000  0.4901120000000 1.0
C      1  0.4719750000000  0.4795610000000  0.5292840000000 1.0
C      1  0.5368720000000  0.5179540000000  0.5395340000000 1.0
C      1  0.5238980000000  0.5723930000000  0.4763210000000 1.0
C      1  0.4137570000000  0.5318040000000  0.4865580000000 1.0
C      1  0.5304980000000  0.5070690000000  0.4119370000000 1.0
C      1  0.4605060000000  0.5088950000000  0.5337190000000 1.0
C      1  0.4990450000000  0.5976440000000  0.5027050000000 1.0
C      1  0.5172120000000  0.5330070000000  0.4048080000000 1.0
C      1  0.4430720000000  0.5685560000000  0.5026260000000 1.0
C      1  0.4633510000000  0.5531790000000  0.5602350000000 1.0
C      1  0.4835550000000  0.4652750000000  0.4041430000000 1.0
C      1  0.5528930000000  0.4338230000000  0.4503700000000 1.0
C      1  0.4189100000000  0.4901080000000  0.4625140000000 1.0
C      1  0.4370260000000  0.5420360000000  0.5666260000000 1.0
C      1  0.4921530000000  0.4244590000000  0.5323660000000 1.0
C      1  0.4355940000000  0.5006730000000  0.5525870000000 1.0
C      1  0.4758080000000  0.4760550000000  0.5854150000000 1.0
C      1  0.4551840000000  0.4527890000000  0.4371520000000 1.0
C      1  0.4376280000000  0.5316800000000  0.4667330000000 1.0
C      1  0.4576560000000  0.4742020000000  0.4157710000000 1.0
C      1  0.5653410000000  0.4746550000000  0.4664040000000 1.0
C      1  0.4503770000000  0.5210580000000  0.5094840000000 1.0
C      1  0.4420490000000  0.5138890000000  0.5783240000000 1.0
C      1  0.5306080000000  0.5709120000000  0.5319970000000 1.0
C      1  0.4680140000000  0.4233910000000  0.5179120000000 1.0
C      1  0.4662020000000  0.4411290000000  0.4947970000000 1.0
C      1  0.5510050000000  0.5228420000000  0.4761520000000 1.0
C      1  0.4502260000000  0.5737490000000  0.4738670000000 1.0
C      1  0.5781520000000  0.5383850000000  0.5380100000000 1.0
C      1  0.4680090000000  0.4544710000000  0.5657390000000 1.0
C      1  0.4824580000000  0.4493440000000  0.4483640000000 1.0
C      1  0.5003870000000  0.4711570000000  0.5978100000000 1.0
C      1  0.4788780000000  0.5683020000000  0.4671150000000 1.0
C      1  0.4377350000000  0.4760310000000  0.4821800000000 1.0
C      1  0.4762870000000  0.4691010000000  0.5026530000000 1.0
C      1  0.4371230000000  0.5580730000000  0.4549300000000 1.0
C      1  0.5218400000000  0.4776340000000  0.4696790000000 1.0
C      1  0.5320020000000  0.5056440000000  0.4558620000000 1.0
C      1  0.4990470000000  0.4472200000000  0.4229180000000 1.0
C      1  0.5744680000000  0.4904630000000  0.5636390000000 1.0
C      1  0.4090570000000  0.5105170000000  0.5399540000000 1.0
C      1  0.5272440000000  0.4766800000000  0.5936690000000 1.0
C      1  0.5109680000000  0.5072970000000  0.5055310000000 1.0
C      1  0.5331070000000  0.5044530000000  0.5864490000000 1.0
C      1  0.5094380000000  0.4242390000000  0.4842330000000 1.0
C      1  0.5600300000000  0.5114660000000  0.5766030000000 1.0
C      1  0.5031210000000  0.5195880000000  0.4506870000000 1.0
C      1  0.5173950000000  0.4827870000000  0.4036960000000 1.0
C      1  0.4134290000000  0.4911180000000  0.5156340000000 1.0
C      1  0.5652300000000  0.5652700000000  0.4900440000000 1.0
C      1  0.5144620000000  0.4322260000000  0.5137060000000 1.0
C      1  0.4570860000000  0.5781110000000  0.5492790000000 1.0
C      1  0.4898910000000  0.4761540000000  0.4609870000000 1.0
C      1  0.5223580000000  0.4823100000000  0.4987890000000 1.0
C      1  0.5668430000000  0.4782460000000  0.4367170000000 1.0
C      1  0.5576230000000  0.5052480000000  0.5224290000000 1.0
C      1  0.4226980000000  0.4685890000000  0.5351350000000 1.0
C      1  0.5372520000000  0.5579750000000  0.5586910000000 1.0
C      1  0.5887560000000  0.5264110000000  0.5149000000000 1.0
C      1  0.5296060000000  0.5280220000000  0.4970000000000 1.0
C      1  0.4298800000000  0.5418500000000  0.5108580000000 1.0
C      1  0.5466480000000  0.4619530000000  0.5356070000000 1.0
C      1  0.5141580000000  0.5266690000000  0.5913850000000 1.0
C      1  0.5232110000000  0.4628910000000  0.4234960000000 1.0
C      1  0.4179160000000  0.5391440000000  0.5394750000000 1.0
C      1  0.4919650000000  0.4411170000000  0.5562170000000 1.0
C      1  0.5191670000000  0.4632740000000  0.5213580000000 1.0
C      1  0.5130370000000  0.5462860000000  0.4842880000000 1.0
C      1  0.5069350000000  0.5088750000000  0.5356170000000 1.0
C      1  0.5465500000000  0.4179870000000  0.5485650000000 1.0
C      1  0.5603340000000  0.4425070000000  0.5040390000000 1.0
C      1  0.4673430000000  0.4870150000000  0.4820380000000 1.0
C      1  0.5607330000000  0.5504910000000  0.4657410000000 1.0
C      1  0.4328270000000  0.4488380000000  0.4547170000000 1.0
C      1  0.5492440000000  0.4510190000000  0.4747240000000 1.0
C      1  0.5691480000000  0.4819520000000  0.5355920000000 1.0
END
