TITL C-951341-1326-299 -3.80718687319773e-07 125000 -461.93675752963 0 0 77 (C1) n - 1
REM
REM in /home/bkarasulu/work/CARBON/AIRSS/Generating-Clusters/EDIP-Nigel-Params/with-SteepDescent/Only-C1/SD-CG/HFTN-CG
REM
REM
REM
REM
REM
REM ./C.cell (11c1c37f851c82e70ff6c80c92926a4b)
REM
REM compiler GCC version 9.2.1 20190827 (Red Hat 9.2.1-1)
REM options -cpp -mtune=generic -march=x86-64 -g -O0 -fpre-include=/usr/include/finclude/math-vector-fortran.h
REM seed -749257989 -379566360 -1241554703 1367681395 1512774885 -277581060 3521078 1458892416 -1303410868 858165504 1846153616 -452967960 -411521149 -649214905 626903362 -1021486951 -1558414263 -1340314689 -738933893 -120129215 504610315 719867492 810644650 -64802963 -1480124668 188586889 755508552 1484235798 2045860880 -54010807 620242015 -502069153 -1567486721
REM
CELL 1.54180   50.00000   50.00000   50.00000   90.00000   90.00000   90.00000
LATT -1
SFAC C  
C      1  0.4840490000000  0.4127190000000  0.5016170000000 1.0
C      1  0.4992560000000  0.4679710000000  0.4286740000000 1.0
C      1  0.5228150000000  0.5781190000000  0.5290280000000 1.0
C      1  0.4881060000000  0.5713540000000  0.4954430000000 1.0
C      1  0.5826110000000  0.4963110000000  0.4968930000000 1.0
C      1  0.5046460000000  0.4756120000000  0.4884080000000 1.0
C      1  0.4780220000000  0.4538360000000  0.4695590000000 1.0
C      1  0.5794050000000  0.4766750000000  0.5190230000000 1.0
C      1  0.5197660000000  0.5214240000000  0.5251040000000 1.0
C      1  0.5324500000000  0.4399190000000  0.4922460000000 1.0
C      1  0.5425070000000  0.5619850000000  0.4706340000000 1.0
C      1  0.4370290000000  0.4875200000000  0.5318920000000 1.0
C      1  0.4892180000000  0.5156600000000  0.4300720000000 1.0
C      1  0.4221400000000  0.4793070000000  0.5071260000000 1.0
C      1  0.4456500000000  0.4395220000000  0.5061710000000 1.0
C      1  0.4641750000000  0.5024770000000  0.4782320000000 1.0
C      1  0.5708870000000  0.5250800000000  0.4987430000000 1.0
C      1  0.4743310000000  0.4328200000000  0.5444850000000 1.0
C      1  0.4810160000000  0.4504340000000  0.5673140000000 1.0
C      1  0.4809770000000  0.5564190000000  0.5413220000000 1.0
C      1  0.5362060000000  0.5291320000000  0.4283210000000 1.0
C      1  0.4552550000000  0.4511490000000  0.5313120000000 1.0
C      1  0.5571730000000  0.5086020000000  0.4322140000000 1.0
C      1  0.5069530000000  0.5764610000000  0.4743150000000 1.0
C      1  0.4433780000000  0.5174060000000  0.5377050000000 1.0
C      1  0.5324590000000  0.4835840000000  0.4980520000000 1.0
C      1  0.4081270000000  0.4967910000000  0.4893550000000 1.0
C      1  0.4952810000000  0.5498900000000  0.5674620000000 1.0
C      1  0.4713630000000  0.4963120000000  0.5650010000000 1.0
C      1  0.5310080000000  0.4493990000000  0.4640480000000 1.0
C      1  0.5562910000000  0.4480540000000  0.5072260000000 1.0
C      1  0.5264770000000  0.4909760000000  0.5266200000000 1.0
C      1  0.4927640000000  0.4184940000000  0.5277530000000 1.0
C      1  0.5434460000000  0.5175880000000  0.5672330000000 1.0
C      1  0.4487930000000  0.5382210000000  0.5166210000000 1.0
C      1  0.5599220000000  0.5524400000000  0.4914780000000 1.0
C      1  0.5031010000000  0.4506260000000  0.4523260000000 1.0
C      1  0.5439250000000  0.5396090000000  0.5238330000000 1.0
C      1  0.4336870000000  0.4777610000000  0.4515640000000 1.0
C      1  0.4782570000000  0.5432730000000  0.4969770000000 1.0
C      1  0.5196830000000  0.5212380000000  0.4751540000000 1.0
C      1  0.5053490000000  0.4678520000000  0.5626790000000 1.0
C      1  0.4806590000000  0.5387420000000  0.4467210000000 1.0
C      1  0.5049890000000  0.4473180000000  0.5043960000000 1.0
C      1  0.4786890000000  0.4883920000000  0.4339760000000 1.0
C      1  0.4957890000000  0.5744950000000  0.5234420000000 1.0
C      1  0.5432970000000  0.5638500000000  0.5390220000000 1.0
C      1  0.5425470000000  0.5052300000000  0.4809960000000 1.0
C      1  0.5539270000000  0.4644510000000  0.4527570000000 1.0
C      1  0.5457520000000  0.4770050000000  0.5466950000000 1.0
C      1  0.4853260000000  0.4971850000000  0.4987320000000 1.0
C      1  0.5271430000000  0.5419270000000  0.4550040000000 1.0
C      1  0.4382330000000  0.5450120000000  0.4701270000000 1.0
C      1  0.4987860000000  0.4949760000000  0.5745790000000 1.0
C      1  0.4246720000000  0.4540050000000  0.4956810000000 1.0
C      1  0.5018440000000  0.5228090000000  0.4999000000000 1.0
C      1  0.4671630000000  0.4313070000000  0.4877950000000 1.0
C      1  0.5797150000000  0.4863720000000  0.4694550000000 1.0
C      1  0.4618120000000  0.4805500000000  0.4579830000000 1.0
C      1  0.4115340000000  0.4890360000000  0.4625960000000 1.0
C      1  0.4589990000000  0.4704440000000  0.5643120000000 1.0
C      1  0.5673210000000  0.5175060000000  0.5537480000000 1.0
C      1  0.4643900000000  0.5326320000000  0.4713800000000 1.0
C      1  0.5228730000000  0.4775020000000  0.4166120000000 1.0
C      1  0.5132090000000  0.5187050000000  0.4151710000000 1.0
C      1  0.5030400000000  0.5588180000000  0.4501640000000 1.0
C      1  0.5718230000000  0.4906430000000  0.5461960000000 1.0
C      1  0.4068310000000  0.5234880000000  0.4968160000000 1.0
C      1  0.5024450000000  0.4734000000000  0.5331860000000 1.0
C      1  0.4280260000000  0.5413510000000  0.4959050000000 1.0
C      1  0.4415260000000  0.5283650000000  0.5639260000000 1.0
C      1  0.5478490000000  0.4808160000000  0.4292810000000 1.0
C      1  0.4756290000000  0.4887300000000  0.5279510000000 1.0
C      1  0.5155450000000  0.5181380000000  0.5687070000000 1.0
C      1  0.5717960000000  0.5109130000000  0.4566520000000 1.0
C      1  0.5539010000000  0.4515190000000  0.5351230000000 1.0
C      1  0.4649690000000  0.5443440000000  0.5657760000000 1.0
END
