TITL C-951344-124-728 -1.20153745423595e-07 125000 -1217.70655739139 0 0 192 (C1) n - 1
REM
REM in /home/bkarasulu/work/CARBON/AIRSS/Generating-Clusters/EDIP-Nigel-Params/with-SteepDescent/Only-C1/SD-CG/HFTN-CG
REM
REM
REM
REM
REM
REM ./C.cell (11c1c37f851c82e70ff6c80c92926a4b)
REM
REM compiler GCC version 9.2.1 20190827 (Red Hat 9.2.1-1)
REM options -cpp -mtune=generic -march=x86-64 -g -O0 -fpre-include=/usr/include/finclude/math-vector-fortran.h
REM seed 1649602362 -1248224850 -1962214821 915727778 1329344429 487161583 -1939246894 -1810468157 -1805929404 -761994064 1345380434 -49488837 110277607 700482271 306197379 -501835392 -1076017864 1972008398 -2032230495 2092400635 -530169811 -1369669567 -464518822 1651929768 2059726946 836308085 131508999 -614027429 -220597762 281988380 2120754767 652238746 1650702211
REM
CELL 1.54180   50.00000   50.00000   50.00000   90.00000   90.00000   90.00000
LATT -1
SFAC C  
C      1  0.5704660000000  0.4624820000000  0.5219460000000 1.0
C      1  0.5398880000000  0.3967640000000  0.5482340000000 1.0
C      1  0.5593630000000  0.5314630000000  0.4735920000000 1.0
C      1  0.5047870000000  0.4950670000000  0.5057330000000 1.0
C      1  0.4891310000000  0.5935610000000  0.5556280000000 1.0
C      1  0.5199720000000  0.4101220000000  0.4387260000000 1.0
C      1  0.5623620000000  0.4389700000000  0.5863520000000 1.0
C      1  0.4521760000000  0.6006080000000  0.5193210000000 1.0
C      1  0.4346810000000  0.4694310000000  0.4616260000000 1.0
C      1  0.6003260000000  0.5260880000000  0.5610210000000 1.0
C      1  0.5531230000000  0.5396220000000  0.5579680000000 1.0
C      1  0.4779380000000  0.5355110000000  0.5012090000000 1.0
C      1  0.4323950000000  0.5223820000000  0.4708770000000 1.0
C      1  0.5692710000000  0.5438010000000  0.5984840000000 1.0
C      1  0.5406260000000  0.3989490000000  0.4859140000000 1.0
C      1  0.4053260000000  0.4818950000000  0.5336640000000 1.0
C      1  0.5014130000000  0.4610800000000  0.4706250000000 1.0
C      1  0.4873520000000  0.4512780000000  0.3847260000000 1.0
C      1  0.5463470000000  0.5136220000000  0.5756400000000 1.0
C      1  0.4136690000000  0.5100190000000  0.4213970000000 1.0
C      1  0.5483370000000  0.5273910000000  0.6109110000000 1.0
C      1  0.5791380000000  0.5339330000000  0.5413240000000 1.0
C      1  0.5895770000000  0.4769060000000  0.5641710000000 1.0
C      1  0.5340100000000  0.5500880000000  0.4790300000000 1.0
C      1  0.4559540000000  0.4089380000000  0.4972400000000 1.0
C      1  0.4825690000000  0.5062720000000  0.4869760000000 1.0
C      1  0.6133890000000  0.4948190000000  0.5235100000000 1.0
C      1  0.4524120000000  0.4232230000000  0.4129360000000 1.0
C      1  0.4494490000000  0.5959750000000  0.4896990000000 1.0
C      1  0.4207750000000  0.5657220000000  0.5800630000000 1.0
C      1  0.5150450000000  0.5123360000000  0.5743940000000 1.0
C      1  0.4774790000000  0.4742770000000  0.4359890000000 1.0
C      1  0.5303200000000  0.5374480000000  0.5065770000000 1.0
C      1  0.5017540000000  0.5243710000000  0.3742610000000 1.0
C      1  0.4178740000000  0.4905180000000  0.5823500000000 1.0
C      1  0.5386830000000  0.4891350000000  0.4601450000000 1.0
C      1  0.4220350000000  0.5187270000000  0.5723560000000 1.0
C      1  0.4786760000000  0.5637440000000  0.5967360000000 1.0
C      1  0.4403290000000  0.4683790000000  0.4913540000000 1.0
C      1  0.4783190000000  0.4729060000000  0.6116010000000 1.0
C      1  0.6094020000000  0.4980350000000  0.5537300000000 1.0
C      1  0.4488230000000  0.4075070000000  0.4686410000000 1.0
C      1  0.4288820000000  0.4258420000000  0.4572280000000 1.0
C      1  0.5151750000000  0.4952760000000  0.4104000000000 1.0
C      1  0.4363730000000  0.5688170000000  0.4819220000000 1.0
C      1  0.4871720000000  0.4618690000000  0.4961890000000 1.0
C      1  0.4735590000000  0.4245630000000  0.4338440000000 1.0
C      1  0.4743670000000  0.5156130000000  0.6003910000000 1.0
C      1  0.5194720000000  0.5336500000000  0.6151600000000 1.0
C      1  0.4293390000000  0.4345830000000  0.4284250000000 1.0
C      1  0.5039720000000  0.5097400000000  0.6023420000000 1.0
C      1  0.4955840000000  0.5388500000000  0.4607230000000 1.0
C      1  0.4460270000000  0.5391820000000  0.4451860000000 1.0
C      1  0.4971240000000  0.5503300000000  0.3850990000000 1.0
C      1  0.5698720000000  0.5797580000000  0.5602610000000 1.0
C      1  0.4912080000000  0.4005110000000  0.5354050000000 1.0
C      1  0.5080330000000  0.5556160000000  0.5962560000000 1.0
C      1  0.3991520000000  0.5111540000000  0.5331930000000 1.0
C      1  0.4344320000000  0.5184950000000  0.5091240000000 1.0
C      1  0.5902550000000  0.5245690000000  0.4454980000000 1.0
C      1  0.5912990000000  0.5303950000000  0.5872810000000 1.0
C      1  0.4909880000000  0.5000630000000  0.5316760000000 1.0
C      1  0.5524920000000  0.5033950000000  0.4813630000000 1.0
C      1  0.3913100000000  0.5261190000000  0.5103390000000 1.0
C      1  0.5185270000000  0.5874500000000  0.5543750000000 1.0
C      1  0.4731340000000  0.4039030000000  0.4541870000000 1.0
C      1  0.5223770000000  0.4314420000000  0.5176940000000 1.0
C      1  0.6272210000000  0.4407600000000  0.4855060000000 1.0
C      1  0.4330910000000  0.5405850000000  0.5905580000000 1.0
C      1  0.5226480000000  0.5295320000000  0.4558000000000 1.0
C      1  0.5241900000000  0.5559560000000  0.5517280000000 1.0
C      1  0.5655080000000  0.4774620000000  0.4165690000000 1.0
C      1  0.5714950000000  0.5104530000000  0.5255560000000 1.0
C      1  0.5050020000000  0.4536750000000  0.5206620000000 1.0
C      1  0.5862220000000  0.5563870000000  0.5225350000000 1.0
C      1  0.5873730000000  0.5501440000000  0.4926630000000 1.0
C      1  0.5018030000000  0.5212340000000  0.4178630000000 1.0
C      1  0.4082550000000  0.4826920000000  0.4286800000000 1.0
C      1  0.4655760000000  0.4857250000000  0.5265650000000 1.0
C      1  0.4711320000000  0.4154150000000  0.5501940000000 1.0
C      1  0.4873790000000  0.5303060000000  0.5309950000000 1.0
C      1  0.5318150000000  0.5776000000000  0.4445440000000 1.0
C      1  0.4263040000000  0.4623180000000  0.4181040000000 1.0
C      1  0.5721260000000  0.5797720000000  0.5321350000000 1.0
C      1  0.6052860000000  0.4452920000000  0.4689260000000 1.0
C      1  0.5320130000000  0.5082120000000  0.5054170000000 1.0
C      1  0.4836090000000  0.5742980000000  0.4238210000000 1.0
C      1  0.4463380000000  0.4281250000000  0.5410480000000 1.0
C      1  0.4800750000000  0.6031040000000  0.5293620000000 1.0
C      1  0.4841210000000  0.4791000000000  0.3757990000000 1.0
C      1  0.6219930000000  0.5181350000000  0.5100870000000 1.0
C      1  0.4357280000000  0.5816200000000  0.5373520000000 1.0
C      1  0.4941910000000  0.4104920000000  0.4746430000000 1.0
C      1  0.5119470000000  0.3881910000000  0.4838800000000 1.0
C      1  0.5066300000000  0.5415160000000  0.5701840000000 1.0
C      1  0.5812630000000  0.4290200000000  0.4784440000000 1.0
C      1  0.5060030000000  0.4802530000000  0.6099350000000 1.0
C      1  0.4827460000000  0.3934620000000  0.5074780000000 1.0
C      1  0.5624270000000  0.4096510000000  0.4621820000000 1.0
C      1  0.5269170000000  0.5998680000000  0.5282760000000 1.0
C      1  0.4246870000000  0.4744250000000  0.5567220000000 1.0
C      1  0.4372780000000  0.4256370000000  0.5137520000000 1.0
C      1  0.5161280000000  0.4638770000000  0.5476990000000 1.0
C      1  0.5765630000000  0.4666130000000  0.4414700000000 1.0
C      1  0.5002360000000  0.5899640000000  0.4846820000000 1.0
C      1  0.4629610000000  0.5398910000000  0.5864400000000 1.0
C      1  0.4452600000000  0.5665950000000  0.4537910000000 1.0
C      1  0.4043210000000  0.4675520000000  0.5069630000000 1.0
C      1  0.5027770000000  0.6038700000000  0.5114860000000 1.0
C      1  0.4039990000000  0.5340550000000  0.4672080000000 1.0
C      1  0.5009490000000  0.4238800000000  0.4231370000000 1.0
C      1  0.5219950000000  0.4618360000000  0.5944350000000 1.0
C      1  0.5593860000000  0.4483100000000  0.4879290000000 1.0
C      1  0.4376130000000  0.4471260000000  0.5614460000000 1.0
C      1  0.4780760000000  0.5264700000000  0.4392670000000 1.0
C      1  0.5859180000000  0.4880180000000  0.5134170000000 1.0
C      1  0.5124690000000  0.4378170000000  0.5663770000000 1.0
C      1  0.5717410000000  0.5723720000000  0.4730770000000 1.0
C      1  0.5509860000000  0.5267010000000  0.4165690000000 1.0
C      1  0.5121940000000  0.5475360000000  0.5266740000000 1.0
C      1  0.4059760000000  0.5717090000000  0.5327610000000 1.0
C      1  0.4592950000000  0.4942420000000  0.6131800000000 1.0
C      1  0.5177900000000  0.4144700000000  0.5422860000000 1.0
C      1  0.4688170000000  0.4991280000000  0.4464930000000 1.0
C      1  0.4301590000000  0.5335040000000  0.4206280000000 1.0
C      1  0.5652600000000  0.4079450000000  0.5462760000000 1.0
C      1  0.5499760000000  0.4637310000000  0.5899220000000 1.0
C      1  0.4409160000000  0.5841230000000  0.5671330000000 1.0
C      1  0.5127750000000  0.5801620000000  0.4210010000000 1.0
C      1  0.4063640000000  0.5614360000000  0.4816670000000 1.0
C      1  0.5002730000000  0.4885480000000  0.5581780000000 1.0
C      1  0.5123670000000  0.4479650000000  0.4116810000000 1.0
C      1  0.4633440000000  0.4516940000000  0.5761480000000 1.0
C      1  0.5145730000000  0.4338400000000  0.4684210000000 1.0
C      1  0.6015410000000  0.5100220000000  0.4677160000000 1.0
C      1  0.4590680000000  0.4422930000000  0.3901980000000 1.0
C      1  0.3968500000000  0.4745030000000  0.4546010000000 1.0
C      1  0.5269510000000  0.5923160000000  0.4696010000000 1.0
C      1  0.4743080000000  0.5990030000000  0.4715200000000 1.0
C      1  0.5513340000000  0.4618390000000  0.4577330000000 1.0
C      1  0.4689940000000  0.5811170000000  0.4485210000000 1.0
C      1  0.4730480000000  0.4810770000000  0.5739970000000 1.0
C      1  0.4648880000000  0.4504520000000  0.4495720000000 1.0
C      1  0.5787690000000  0.4052080000000  0.5223630000000 1.0
C      1  0.5447140000000  0.5022240000000  0.5306880000000 1.0
C      1  0.4542290000000  0.4945700000000  0.5013020000000 1.0
C      1  0.4513650000000  0.5577860000000  0.5311650000000 1.0
C      1  0.4495900000000  0.5370890000000  0.3990480000000 1.0
C      1  0.4832450000000  0.4310860000000  0.5710510000000 1.0
C      1  0.4581280000000  0.4891170000000  0.3850470000000 1.0
C      1  0.5464310000000  0.4749680000000  0.5418550000000 1.0
C      1  0.5496480000000  0.5876320000000  0.5154130000000 1.0
C      1  0.3909940000000  0.5135430000000  0.4843550000000 1.0
C      1  0.4119620000000  0.4375740000000  0.5027920000000 1.0
C      1  0.5591380000000  0.4834010000000  0.5692940000000 1.0
C      1  0.6103840000000  0.5304460000000  0.4876300000000 1.0
C      1  0.5418110000000  0.4474680000000  0.4229210000000 1.0
C      1  0.3989620000000  0.5274780000000  0.5577900000000 1.0
C      1  0.5089110000000  0.4902150000000  0.4624160000000 1.0
C      1  0.5348870000000  0.4290720000000  0.4911150000000 1.0
C      1  0.5808430000000  0.4919360000000  0.4839120000000 1.0
C      1  0.5456140000000  0.4221290000000  0.4400450000000 1.0
C      1  0.5606710000000  0.5672480000000  0.5834810000000 1.0
C      1  0.5053390000000  0.4724870000000  0.4276690000000 1.0
C      1  0.4620650000000  0.4469370000000  0.4841630000000 1.0
C      1  0.4698920000000  0.5826440000000  0.5752260000000 1.0
C      1  0.5070330000000  0.4970680000000  0.3810050000000 1.0
C      1  0.5198390000000  0.5643840000000  0.3974030000000 1.0
C      1  0.5599630000000  0.5658370000000  0.4462220000000 1.0
C      1  0.6004740000000  0.4718490000000  0.4574460000000 1.0
C      1  0.5450440000000  0.4981810000000  0.4170810000000 1.0
C      1  0.5936190000000  0.4143400000000  0.5010170000000 1.0
C      1  0.4084640000000  0.4314130000000  0.4754920000000 1.0
C      1  0.5863550000000  0.4526770000000  0.5462280000000 1.0
C      1  0.4415620000000  0.4661260000000  0.3932200000000 1.0
C      1  0.4510420000000  0.4896930000000  0.5512170000000 1.0
C      1  0.5708200000000  0.5408210000000  0.4327490000000 1.0
C      1  0.4497060000000  0.5155460000000  0.3811400000000 1.0
C      1  0.4746770000000  0.5531680000000  0.4040590000000 1.0
C      1  0.4632990000000  0.5383700000000  0.5505020000000 1.0
C      1  0.3983250000000  0.4849570000000  0.4817550000000 1.0
C      1  0.3981120000000  0.5546990000000  0.5090280000000 1.0
C      1  0.3997440000000  0.5578320000000  0.5587980000000 1.0
C      1  0.4431010000000  0.4969650000000  0.4578480000000 1.0
C      1  0.4334650000000  0.4879640000000  0.6049910000000 1.0
C      1  0.5255150000000  0.5387830000000  0.4248490000000 1.0
C      1  0.5699300000000  0.4329450000000  0.5599880000000 1.0
C      1  0.4408260000000  0.5175750000000  0.5464420000000 1.0
C      1  0.4966790000000  0.5568620000000  0.4864850000000 1.0
C      1  0.5514540000000  0.5892440000000  0.4864050000000 1.0
C      1  0.6201340000000  0.4222380000000  0.5040530000000 1.0
C      1  0.4493100000000  0.5456470000000  0.5043340000000 1.0
END
