TITL C-951337-3020-243 -1.12849698968418e-06 125000 -1257.91352415731 0 0 200 (C1) n - 1
REM
REM in /home/bkarasulu/work/CARBON/AIRSS/Generating-Clusters/EDIP-Nigel-Params/with-SteepDescent/Only-C1/SD-CG/HFTN-CG
REM
REM
REM
REM
REM
REM ./C.cell (11c1c37f851c82e70ff6c80c92926a4b)
REM
REM compiler GCC version 9.2.1 20190827 (Red Hat 9.2.1-1)
REM options -cpp -mtune=generic -march=x86-64 -g -O0 -fpre-include=/usr/include/finclude/math-vector-fortran.h
REM seed 958630005 1578944446 -1018183819 -528995361 -2140908904 740871230 -1227838810 -1850369118 500860298 -1361839256 1857111157 1535087347 -1062295599 1590426601 -526009104 -1228334043 -1184171413 -606820722 -155929015 1853699582 523800084 346830882 64440964 1087235242 -826664761 -1540534197 -663131384 2091200046 1568695373 1560446650 -148765221 75683232 -1494086919
REM
CELL 1.54180   50.00000   50.00000   50.00000   90.00000   90.00000   90.00000
LATT -1
SFAC C  
C      1  0.4016820000000  0.5169230000000  0.5395390000000 1.0
C      1  0.5256200000000  0.4310160000000  0.4148240000000 1.0
C      1  0.4604320000000  0.4645430000000  0.4829770000000 1.0
C      1  0.5123410000000  0.5236350000000  0.5001900000000 1.0
C      1  0.4130350000000  0.5659010000000  0.4633680000000 1.0
C      1  0.5483470000000  0.4562620000000  0.5061120000000 1.0
C      1  0.5289410000000  0.4784690000000  0.5028170000000 1.0
C      1  0.5743340000000  0.4679000000000  0.4300090000000 1.0
C      1  0.4152880000000  0.4796090000000  0.4304810000000 1.0
C      1  0.5319220000000  0.5577290000000  0.5915060000000 1.0
C      1  0.4819860000000  0.4824150000000  0.6204360000000 1.0
C      1  0.5204320000000  0.4912040000000  0.3805470000000 1.0
C      1  0.4832460000000  0.4670140000000  0.4393640000000 1.0
C      1  0.4952580000000  0.5674020000000  0.4571480000000 1.0
C      1  0.4380920000000  0.4098790000000  0.5189180000000 1.0
C      1  0.5281540000000  0.3970400000000  0.5179500000000 1.0
C      1  0.6050560000000  0.5298880000000  0.4638600000000 1.0
C      1  0.5796710000000  0.5326110000000  0.5227900000000 1.0
C      1  0.5169600000000  0.6229900000000  0.4742040000000 1.0
C      1  0.4292830000000  0.5153540000000  0.4636940000000 1.0
C      1  0.4863540000000  0.4315450000000  0.5360010000000 1.0
C      1  0.5496810000000  0.5679380000000  0.5703240000000 1.0
C      1  0.5863090000000  0.5528550000000  0.4559940000000 1.0
C      1  0.5826800000000  0.4898910000000  0.5102240000000 1.0
C      1  0.5231650000000  0.5494630000000  0.4861880000000 1.0
C      1  0.4709690000000  0.4836180000000  0.3831070000000 1.0
C      1  0.4441850000000  0.5768360000000  0.4267430000000 1.0
C      1  0.4912560000000  0.4334140000000  0.5895680000000 1.0
C      1  0.4475630000000  0.4901150000000  0.5589980000000 1.0
C      1  0.4067570000000  0.4629970000000  0.5301900000000 1.0
C      1  0.5119240000000  0.4009080000000  0.4511910000000 1.0
C      1  0.4289270000000  0.4288950000000  0.5621300000000 1.0
C      1  0.5539040000000  0.5147660000000  0.3968750000000 1.0
C      1  0.4558410000000  0.5031470000000  0.4575380000000 1.0
C      1  0.5607880000000  0.4259360000000  0.5579940000000 1.0
C      1  0.4624430000000  0.5577840000000  0.4880170000000 1.0
C      1  0.5333230000000  0.5163570000000  0.5779140000000 1.0
C      1  0.5784920000000  0.5612020000000  0.5716090000000 1.0
C      1  0.5254260000000  0.5786360000000  0.4961200000000 1.0
C      1  0.5021880000000  0.5919640000000  0.4421540000000 1.0
C      1  0.5237190000000  0.5187890000000  0.3938040000000 1.0
C      1  0.4980630000000  0.4754210000000  0.3941610000000 1.0
C      1  0.4100130000000  0.4499890000000  0.5572150000000 1.0
C      1  0.5520940000000  0.4841530000000  0.4649650000000 1.0
C      1  0.4844500000000  0.5111740000000  0.5239690000000 1.0
C      1  0.4653920000000  0.5893130000000  0.5632920000000 1.0
C      1  0.4323910000000  0.5121990000000  0.3974720000000 1.0
C      1  0.4635070000000  0.4727280000000  0.6007530000000 1.0
C      1  0.5793060000000  0.4417360000000  0.4470100000000 1.0
C      1  0.5918010000000  0.5606650000000  0.5252000000000 1.0
C      1  0.5057310000000  0.4684120000000  0.6243760000000 1.0
C      1  0.4701440000000  0.4243680000000  0.4427900000000 1.0
C      1  0.4221010000000  0.5592200000000  0.5621980000000 1.0
C      1  0.5072050000000  0.4702870000000  0.5404250000000 1.0
C      1  0.4468100000000  0.5195220000000  0.5663480000000 1.0
C      1  0.4734800000000  0.4456560000000  0.4197000000000 1.0
C      1  0.6123240000000  0.4449650000000  0.5371620000000 1.0
C      1  0.4697120000000  0.5713920000000  0.4654590000000 1.0
C      1  0.6246680000000  0.5134540000000  0.5099290000000 1.0
C      1  0.4336300000000  0.4705240000000  0.5174700000000 1.0
C      1  0.5899410000000  0.4374260000000  0.5199150000000 1.0
C      1  0.5261520000000  0.5409040000000  0.5383580000000 1.0
C      1  0.4989750000000  0.5064280000000  0.4786950000000 1.0
C      1  0.4975510000000  0.5847370000000  0.4119480000000 1.0
C      1  0.4831410000000  0.4807680000000  0.5260530000000 1.0
C      1  0.5534420000000  0.5132780000000  0.4805060000000 1.0
C      1  0.4942690000000  0.5828270000000  0.5670190000000 1.0
C      1  0.4161650000000  0.5498490000000  0.5116320000000 1.0
C      1  0.4552280000000  0.5193220000000  0.5280780000000 1.0
C      1  0.4700610000000  0.4497450000000  0.5825230000000 1.0
C      1  0.4327450000000  0.4614500000000  0.4460300000000 1.0
C      1  0.5674750000000  0.5187330000000  0.4224830000000 1.0
C      1  0.5559030000000  0.4249630000000  0.4571830000000 1.0
C      1  0.4595480000000  0.5477450000000  0.5977330000000 1.0
C      1  0.5069060000000  0.5068790000000  0.5701360000000 1.0
C      1  0.5799060000000  0.5697970000000  0.4779000000000 1.0
C      1  0.4233270000000  0.5969250000000  0.4979380000000 1.0
C      1  0.4865710000000  0.4012000000000  0.5396800000000 1.0
C      1  0.4193050000000  0.4917350000000  0.5848810000000 1.0
C      1  0.5351300000000  0.5692570000000  0.5427150000000 1.0
C      1  0.5522740000000  0.4657950000000  0.4104000000000 1.0
C      1  0.3787510000000  0.4932270000000  0.5057040000000 1.0
C      1  0.5907460000000  0.4264930000000  0.4909110000000 1.0
C      1  0.5101550000000  0.5850240000000  0.5431710000000 1.0
C      1  0.6268610000000  0.4522270000000  0.4693260000000 1.0
C      1  0.5038460000000  0.5669550000000  0.5896110000000 1.0
C      1  0.4282530000000  0.4830310000000  0.4039550000000 1.0
C      1  0.5180890000000  0.4394950000000  0.5856570000000 1.0
C      1  0.4626460000000  0.5128600000000  0.3921880000000 1.0
C      1  0.4837790000000  0.5586250000000  0.6069460000000 1.0
C      1  0.5392170000000  0.5893990000000  0.4464740000000 1.0
C      1  0.4180530000000  0.5297560000000  0.5625580000000 1.0
C      1  0.4304580000000  0.5660300000000  0.5342910000000 1.0
C      1  0.5754890000000  0.4492530000000  0.5704010000000 1.0
C      1  0.5639240000000  0.5451760000000  0.4370590000000 1.0
C      1  0.4412520000000  0.6037950000000  0.4749490000000 1.0
C      1  0.5125770000000  0.5196930000000  0.4535110000000 1.0
C      1  0.4229520000000  0.4415770000000  0.4668010000000 1.0
C      1  0.4496440000000  0.3958290000000  0.4749310000000 1.0
C      1  0.4722380000000  0.5397280000000  0.5567760000000 1.0
C      1  0.4216620000000  0.5288890000000  0.4200550000000 1.0
C      1  0.4928690000000  0.6159410000000  0.4612950000000 1.0
C      1  0.5382850000000  0.5067900000000  0.6065880000000 1.0
C      1  0.5870270000000  0.5355050000000  0.5788750000000 1.0
C      1  0.4284520000000  0.5890380000000  0.4499300000000 1.0
C      1  0.5642980000000  0.4149200000000  0.4842250000000 1.0
C      1  0.3978040000000  0.4541720000000  0.4817300000000 1.0
C      1  0.4695560000000  0.5082500000000  0.4212090000000 1.0
C      1  0.5402020000000  0.5641480000000  0.4312730000000 1.0
C      1  0.5205430000000  0.5660150000000  0.4073350000000 1.0
C      1  0.4560910000000  0.5199770000000  0.6094380000000 1.0
C      1  0.5329560000000  0.4756960000000  0.4425900000000 1.0
C      1  0.5173220000000  0.4013550000000  0.5457400000000 1.0
C      1  0.5147790000000  0.4786800000000  0.5665860000000 1.0
C      1  0.4347200000000  0.4977950000000  0.4959190000000 1.0
C      1  0.4352530000000  0.5456840000000  0.4632440000000 1.0
C      1  0.4993940000000  0.5252450000000  0.5477230000000 1.0
C      1  0.5374330000000  0.5075840000000  0.5059690000000 1.0
C      1  0.3948290000000  0.4832280000000  0.4833970000000 1.0
C      1  0.4542830000000  0.3928620000000  0.5022850000000 1.0
C      1  0.5512230000000  0.4850930000000  0.3876260000000 1.0
C      1  0.4083290000000  0.5721590000000  0.4915130000000 1.0
C      1  0.5779880000000  0.5300960000000  0.4923800000000 1.0
C      1  0.4704810000000  0.5351790000000  0.4312920000000 1.0
C      1  0.5301910000000  0.4279480000000  0.5570080000000 1.0
C      1  0.4779780000000  0.5623980000000  0.5121920000000 1.0
C      1  0.4980290000000  0.4212550000000  0.4881310000000 1.0
C      1  0.4626210000000  0.4453770000000  0.5532020000000 1.0
C      1  0.5996560000000  0.5076580000000  0.5264310000000 1.0
C      1  0.4776960000000  0.5099960000000  0.6254350000000 1.0
C      1  0.4793750000000  0.6100470000000  0.5119130000000 1.0
C      1  0.4073540000000  0.4677020000000  0.5782950000000 1.0
C      1  0.3972140000000  0.4428210000000  0.5090490000000 1.0
C      1  0.4814630000000  0.3867730000000  0.5128980000000 1.0
C      1  0.5421780000000  0.5368160000000  0.6097520000000 1.0
C      1  0.4431830000000  0.5474860000000  0.4335300000000 1.0
C      1  0.5507810000000  0.4656260000000  0.5744830000000 1.0
C      1  0.5706590000000  0.4188710000000  0.5316470000000 1.0
C      1  0.4998090000000  0.4428830000000  0.4037350000000 1.0
C      1  0.6206980000000  0.4726780000000  0.4871860000000 1.0
C      1  0.4525850000000  0.4661190000000  0.3984140000000 1.0
C      1  0.5268150000000  0.4568120000000  0.6098010000000 1.0
C      1  0.5483080000000  0.4392020000000  0.4006690000000 1.0
C      1  0.5343630000000  0.4145780000000  0.4387530000000 1.0
C      1  0.5925150000000  0.4813860000000  0.4837310000000 1.0
C      1  0.4616480000000  0.5612990000000  0.5368480000000 1.0
C      1  0.4870270000000  0.4385230000000  0.5071320000000 1.0
C      1  0.5983840000000  0.4625480000000  0.5552950000000 1.0
C      1  0.5925430000000  0.5721020000000  0.5504530000000 1.0
C      1  0.4565830000000  0.4717000000000  0.5388410000000 1.0
C      1  0.4956210000000  0.5417700000000  0.4433430000000 1.0
C      1  0.5094330000000  0.5436880000000  0.3906740000000 1.0
C      1  0.5490160000000  0.4810550000000  0.5485950000000 1.0
C      1  0.6014870000000  0.4939180000000  0.5546700000000 1.0
C      1  0.5062110000000  0.3947800000000  0.4970090000000 1.0
C      1  0.4460420000000  0.5675390000000  0.5785160000000 1.0
C      1  0.5087910000000  0.4592530000000  0.4561940000000 1.0
C      1  0.5512670000000  0.4129490000000  0.5108390000000 1.0
C      1  0.3780800000000  0.5214310000000  0.4974340000000 1.0
C      1  0.5477920000000  0.5781380000000  0.5160590000000 1.0
C      1  0.4389940000000  0.4467820000000  0.4952100000000 1.0
C      1  0.4728040000000  0.5698090000000  0.4038980000000 1.0
C      1  0.5922230000000  0.5026270000000  0.4613590000000 1.0
C      1  0.4578560000000  0.4739010000000  0.4555860000000 1.0
C      1  0.4696270000000  0.5082090000000  0.4823660000000 1.0
C      1  0.5317440000000  0.5988510000000  0.4738270000000 1.0
C      1  0.4840310000000  0.4660090000000  0.4993560000000 1.0
C      1  0.4410270000000  0.4077550000000  0.5473170000000 1.0
C      1  0.5501420000000  0.5235020000000  0.5319580000000 1.0
C      1  0.5376430000000  0.5341550000000  0.4637870000000 1.0
C      1  0.5666180000000  0.4610810000000  0.4783940000000 1.0
C      1  0.4966740000000  0.4257030000000  0.4589920000000 1.0
C      1  0.4703300000000  0.6123680000000  0.4820550000000 1.0
C      1  0.6166080000000  0.5336150000000  0.4907100000000 1.0
C      1  0.5817180000000  0.5094250000000  0.5703890000000 1.0
C      1  0.4371040000000  0.5269330000000  0.5057810000000 1.0
C      1  0.5821640000000  0.4962270000000  0.4350210000000 1.0
C      1  0.5180900000000  0.4994210000000  0.4332150000000 1.0
C      1  0.5675110000000  0.4692550000000  0.5249600000000 1.0
C      1  0.4138280000000  0.4192190000000  0.5075120000000 1.0
C      1  0.5752770000000  0.5750660000000  0.5057130000000 1.0
C      1  0.5221330000000  0.4463120000000  0.5318130000000 1.0
C      1  0.4427690000000  0.4941740000000  0.6022710000000 1.0
C      1  0.4794340000000  0.5440860000000  0.3889930000000 1.0
C      1  0.4313780000000  0.5951890000000  0.5266790000000 1.0
C      1  0.5153830000000  0.3818190000000  0.4723350000000 1.0
C      1  0.6022360000000  0.4382640000000  0.4667590000000 1.0
C      1  0.3912580000000  0.4893950000000  0.5319880000000 1.0
C      1  0.3867200000000  0.5042910000000  0.4639600000000 1.0
C      1  0.4087990000000  0.5075260000000  0.4421630000000 1.0
C      1  0.4981570000000  0.5853330000000  0.5149310000000 1.0
C      1  0.6378800000000  0.4913600000000  0.4984670000000 1.0
C      1  0.4644220000000  0.3954750000000  0.5578080000000 1.0
C      1  0.4931570000000  0.4891670000000  0.4217650000000 1.0
C      1  0.5548290000000  0.5080810000000  0.5574000000000 1.0
C      1  0.4580520000000  0.6054330000000  0.5349590000000 1.0
C      1  0.3910430000000  0.5358020000000  0.5197770000000 1.0
C      1  0.5479020000000  0.4779200000000  0.6036690000000 1.0
C      1  0.5065470000000  0.4764800000000  0.4832760000000 1.0
C      1  0.4449630000000  0.4165980000000  0.4568660000000 1.0
END
