TITL C-950534-5965-355 0.0207130663784579 125000 -74.2153918874022 0 0 15 (C1) n - 1
REM
REM in /home/bkarasulu/work/CARBON/AIRSS/Generating-Clusters/EDIP-Nigel-Params/with-SteepDescent/Only-C1/SD-CG/HFTN-CG
REM
REM
REM
REM
REM
REM ./C.cell (11c1c37f851c82e70ff6c80c92926a4b)
REM
REM compiler GCC version 9.2.1 20190827 (Red Hat 9.2.1-1)
REM options -cpp -mtune=generic -march=x86-64 -g -O0 -fpre-include=/usr/include/finclude/math-vector-fortran.h
REM seed 58071380 -2001123789 1305849426 1365800950 712611633 21623485 -728701875 937161470 883758472 73511832 1309719055 377751978 995040085 -1907659975 555563478 1720384800 883140020 -389373688 -1350750729 -1164011981 47807736 1131042136 -452650601 -745699036 -698549707 581921328 368286072 -1268020365 -121130352 428582403 1703082400 1133566327 -1895950619
REM
CELL 1.54180   50.00000   50.00000   50.00000   90.00000   90.00000   90.00000
LATT -1
SFAC C  
C      1  0.4810210000000  0.5092900000000  0.4244100000000 1.0
C      1  0.4812790000000  0.4849910000000  0.5321040000000 1.0
C      1  0.5342860000000  0.5147230000000  0.4972080000000 1.0
C      1  0.5025700000000  0.4970810000000  0.4658300000000 1.0
C      1  0.5599610000000  0.5184020000000  0.5024670000000 1.0
C      1  0.4935730000000  0.4982720000000  0.5128010000000 1.0
C      1  0.5066290000000  0.5116650000000  0.4914420000000 1.0
C      1  0.4842350000000  0.5394310000000  0.4612700000000 1.0
C      1  0.5848630000000  0.5209700000000  0.5076790000000 1.0
C      1  0.4942700000000  0.5375780000000  0.4866510000000 1.0
C      1  0.5153170000000  0.4750310000000  0.4585980000000 1.0
C      1  0.4567900000000  0.4586980000000  0.5707540000000 1.0
C      1  0.4449260000000  0.4459740000000  0.5894940000000 1.0
C      1  0.4690390000000  0.4718750000000  0.5514530000000 1.0
C      1  0.4912410000000  0.5160180000000  0.4478390000000 1.0
END
