TITL C-950526-5686-661 -4.58845990883861e-06 125000 -1256.77159029541 0 0 200 (C1) n - 1
REM
REM in /home/bkarasulu/work/CARBON/AIRSS/Generating-Clusters/EDIP-Nigel-Params/with-SteepDescent/Only-C1/SD-CG/HFTN-CG
REM
REM
REM
REM
REM
REM ./C.cell (11c1c37f851c82e70ff6c80c92926a4b)
REM
REM compiler GCC version 9.2.1 20190827 (Red Hat 9.2.1-1)
REM options -cpp -mtune=generic -march=x86-64 -g -O0 -fpre-include=/usr/include/finclude/math-vector-fortran.h
REM seed 1200458003 -263426692 -1998317614 -513550043 -560779545 -2095243842 -809917969 173631884 570034537 -465908463 -548048109 -2104409321 111327300 1500446602 1915544209 -649263901 104769028 -657350538 1522479120 -887286610 -579474423 -1871731296 -501148386 -1507896044 -814178002 627538806 -1284605115 720083844 1341093086 -1142198691 -1541224076 581175812 -1404479245
REM
CELL 1.54180   50.00000   50.00000   50.00000   90.00000   90.00000   90.00000
LATT -1
SFAC C  
C      1  0.5429030000000  0.4921400000000  0.4898540000000 1.0
C      1  0.5079720000000  0.4723500000000  0.5533450000000 1.0
C      1  0.5138490000000  0.4893700000000  0.3934170000000 1.0
C      1  0.5444990000000  0.5560610000000  0.4042860000000 1.0
C      1  0.4493820000000  0.4741750000000  0.4804580000000 1.0
C      1  0.5770950000000  0.5662040000000  0.5711690000000 1.0
C      1  0.5556430000000  0.5284190000000  0.4683770000000 1.0
C      1  0.4721400000000  0.4603550000000  0.5961910000000 1.0
C      1  0.4824920000000  0.5388880000000  0.4787760000000 1.0
C      1  0.4524910000000  0.5417790000000  0.4791910000000 1.0
C      1  0.3861570000000  0.4572410000000  0.4719650000000 1.0
C      1  0.4719410000000  0.4359260000000  0.5786860000000 1.0
C      1  0.4556760000000  0.5977490000000  0.5106090000000 1.0
C      1  0.4896670000000  0.4773230000000  0.6130500000000 1.0
C      1  0.4852830000000  0.4866060000000  0.3982130000000 1.0
C      1  0.5597140000000  0.4671280000000  0.5315430000000 1.0
C      1  0.4154870000000  0.4526850000000  0.5374100000000 1.0
C      1  0.4255840000000  0.5787900000000  0.5501720000000 1.0
C      1  0.5161920000000  0.5433400000000  0.6077970000000 1.0
C      1  0.4901250000000  0.5832110000000  0.5807740000000 1.0
C      1  0.4036510000000  0.4434420000000  0.4933060000000 1.0
C      1  0.5862690000000  0.4537360000000  0.5226730000000 1.0
C      1  0.3927950000000  0.5442590000000  0.5295900000000 1.0
C      1  0.5088890000000  0.4366340000000  0.4549340000000 1.0
C      1  0.5085380000000  0.4023150000000  0.4359080000000 1.0
C      1  0.5537340000000  0.4386290000000  0.4748340000000 1.0
C      1  0.4585820000000  0.5048970000000  0.4421650000000 1.0
C      1  0.5259240000000  0.4269690000000  0.5219070000000 1.0
C      1  0.5199510000000  0.5169280000000  0.3896260000000 1.0
C      1  0.5464280000000  0.5259060000000  0.3975550000000 1.0
C      1  0.4557290000000  0.4967320000000  0.5008670000000 1.0
C      1  0.4787540000000  0.5427440000000  0.5547550000000 1.0
C      1  0.4328700000000  0.5724460000000  0.4358870000000 1.0
C      1  0.4384920000000  0.4972920000000  0.5952220000000 1.0
C      1  0.5780940000000  0.4803530000000  0.5757010000000 1.0
C      1  0.5353830000000  0.5222750000000  0.6137960000000 1.0
C      1  0.5204490000000  0.4463970000000  0.5672670000000 1.0
C      1  0.5355700000000  0.5810120000000  0.5862340000000 1.0
C      1  0.6259980000000  0.5346640000000  0.4780050000000 1.0
C      1  0.5311180000000  0.4713020000000  0.3813680000000 1.0
C      1  0.4426420000000  0.4529840000000  0.5218560000000 1.0
C      1  0.4966300000000  0.4261730000000  0.5658040000000 1.0
C      1  0.5527680000000  0.4451990000000  0.5562080000000 1.0
C      1  0.4153360000000  0.5715030000000  0.4980420000000 1.0
C      1  0.4547140000000  0.5148520000000  0.6106740000000 1.0
C      1  0.4827180000000  0.6089220000000  0.5016410000000 1.0
C      1  0.6013630000000  0.4982800000000  0.4614090000000 1.0
C      1  0.5333710000000  0.6016280000000  0.5180090000000 1.0
C      1  0.4374250000000  0.5233710000000  0.5522830000000 1.0
C      1  0.5795110000000  0.5049490000000  0.5107640000000 1.0
C      1  0.4437310000000  0.4671640000000  0.4123600000000 1.0
C      1  0.6008250000000  0.5204020000000  0.5483020000000 1.0
C      1  0.4979130000000  0.4790000000000  0.4870870000000 1.0
C      1  0.5460140000000  0.3924780000000  0.5409580000000 1.0
C      1  0.4738900000000  0.5656650000000  0.5997820000000 1.0
C      1  0.4751510000000  0.5136550000000  0.4083110000000 1.0
C      1  0.5420670000000  0.5777830000000  0.5363730000000 1.0
C      1  0.5763560000000  0.5407190000000  0.5526090000000 1.0
C      1  0.5128740000000  0.5982370000000  0.5889460000000 1.0
C      1  0.4094700000000  0.4115150000000  0.4509860000000 1.0
C      1  0.4324140000000  0.4925780000000  0.4256750000000 1.0
C      1  0.5003150000000  0.5181130000000  0.5135020000000 1.0
C      1  0.4907870000000  0.5352890000000  0.4499000000000 1.0
C      1  0.4057050000000  0.4135830000000  0.4991620000000 1.0
C      1  0.4752240000000  0.4401780000000  0.5303940000000 1.0
C      1  0.4452850000000  0.5631880000000  0.5949040000000 1.0
C      1  0.4582940000000  0.5318600000000  0.5760320000000 1.0
C      1  0.3992560000000  0.5042830000000  0.4636260000000 1.0
C      1  0.5546360000000  0.5074540000000  0.4204960000000 1.0
C      1  0.4757340000000  0.4634830000000  0.4740110000000 1.0
C      1  0.4024310000000  0.5337920000000  0.4583970000000 1.0
C      1  0.5304120000000  0.4956850000000  0.5966060000000 1.0
C      1  0.3875730000000  0.4826080000000  0.5111420000000 1.0
C      1  0.5188560000000  0.4721530000000  0.6114080000000 1.0
C      1  0.5273650000000  0.5483230000000  0.4955880000000 1.0
C      1  0.5007280000000  0.4281030000000  0.4831980000000 1.0
C      1  0.4533690000000  0.4816620000000  0.5282080000000 1.0
C      1  0.5506860000000  0.4219180000000  0.5044540000000 1.0
C      1  0.4543620000000  0.5749650000000  0.4153150000000 1.0
C      1  0.4088170000000  0.4993530000000  0.5201110000000 1.0
C      1  0.5330660000000  0.4562400000000  0.4563360000000 1.0
C      1  0.5124130000000  0.4964540000000  0.5720060000000 1.0
C      1  0.4465660000000  0.5304750000000  0.4523730000000 1.0
C      1  0.5066870000000  0.5819870000000  0.4220000000000 1.0
C      1  0.4290350000000  0.4948990000000  0.5424750000000 1.0
C      1  0.4360250000000  0.4494200000000  0.4920170000000 1.0
C      1  0.4402570000000  0.5829790000000  0.4894520000000 1.0
C      1  0.5263430000000  0.5517560000000  0.5818250000000 1.0
C      1  0.5431860000000  0.5967530000000  0.4903810000000 1.0
C      1  0.4235520000000  0.5412630000000  0.4376760000000 1.0
C      1  0.5004720000000  0.5609280000000  0.4911770000000 1.0
C      1  0.6089780000000  0.4618930000000  0.5037090000000 1.0
C      1  0.3822180000000  0.4855230000000  0.4812870000000 1.0
C      1  0.5055660000000  0.4219750000000  0.4136610000000 1.0
C      1  0.5282210000000  0.5821250000000  0.4422470000000 1.0
C      1  0.5292820000000  0.5186770000000  0.5069530000000 1.0
C      1  0.4645310000000  0.4221710000000  0.4497670000000 1.0
C      1  0.6211960000000  0.4903110000000  0.5064470000000 1.0
C      1  0.3935150000000  0.4548190000000  0.5184270000000 1.0
C      1  0.4151210000000  0.4365050000000  0.4398570000000 1.0
C      1  0.5796320000000  0.4695680000000  0.4364310000000 1.0
C      1  0.4334600000000  0.4399020000000  0.4181510000000 1.0
C      1  0.5173890000000  0.4996110000000  0.4496720000000 1.0
C      1  0.5632770000000  0.4176770000000  0.5469130000000 1.0
C      1  0.5228760000000  0.4813010000000  0.4699640000000 1.0
C      1  0.6068080000000  0.5467170000000  0.4974320000000 1.0
C      1  0.5716320000000  0.4532880000000  0.5767920000000 1.0
C      1  0.4656920000000  0.5597410000000  0.5320110000000 1.0
C      1  0.5573680000000  0.5259090000000  0.5734370000000 1.0
C      1  0.5517270000000  0.5673500000000  0.4311200000000 1.0
C      1  0.4086700000000  0.4866480000000  0.4427400000000 1.0
C      1  0.4394250000000  0.5246140000000  0.5006120000000 1.0
C      1  0.4530430000000  0.5868760000000  0.5400200000000 1.0
C      1  0.3855750000000  0.5350070000000  0.5548050000000 1.0
C      1  0.5843250000000  0.5115060000000  0.4221060000000 1.0
C      1  0.4811480000000  0.4486780000000  0.4486610000000 1.0
C      1  0.4271410000000  0.5205110000000  0.4127440000000 1.0
C      1  0.5235640000000  0.4498880000000  0.5956600000000 1.0
C      1  0.5609640000000  0.5529560000000  0.5237270000000 1.0
C      1  0.4169330000000  0.5617390000000  0.5265250000000 1.0
C      1  0.5713580000000  0.5309700000000  0.4986740000000 1.0
C      1  0.5756580000000  0.4851710000000  0.4717330000000 1.0
C      1  0.4840190000000  0.3992220000000  0.4538470000000 1.0
C      1  0.4463890000000  0.4344300000000  0.5636110000000 1.0
C      1  0.4842060000000  0.5055790000000  0.4932910000000 1.0
C      1  0.4006280000000  0.5522030000000  0.4809750000000 1.0
C      1  0.5660140000000  0.4972620000000  0.5365890000000 1.0
C      1  0.5011250000000  0.5335560000000  0.4047720000000 1.0
C      1  0.5016560000000  0.5603120000000  0.5651130000000 1.0
C      1  0.4404350000000  0.5413530000000  0.5270230000000 1.0
C      1  0.4212230000000  0.4051690000000  0.4755800000000 1.0
C      1  0.5380770000000  0.5197640000000  0.4437360000000 1.0
C      1  0.4253990000000  0.5597350000000  0.5739370000000 1.0
C      1  0.4802360000000  0.5044420000000  0.6198560000000 1.0
C      1  0.4560720000000  0.4211600000000  0.4201880000000 1.0
C      1  0.5509640000000  0.3921310000000  0.5018500000000 1.0
C      1  0.4415480000000  0.4137670000000  0.5422480000000 1.0
C      1  0.5401350000000  0.4690520000000  0.5092810000000 1.0
C      1  0.4933550000000  0.5211720000000  0.5412260000000 1.0
C      1  0.4468580000000  0.4203680000000  0.4795440000000 1.0
C      1  0.5492530000000  0.4707050000000  0.4275680000000 1.0
C      1  0.4192060000000  0.4111530000000  0.5245130000000 1.0
C      1  0.6246240000000  0.5040610000000  0.4794490000000 1.0
C      1  0.6061670000000  0.5148130000000  0.5185670000000 1.0
C      1  0.6141030000000  0.5432690000000  0.4514900000000 1.0
C      1  0.4920540000000  0.5961430000000  0.4762540000000 1.0
C      1  0.5138890000000  0.5682080000000  0.5396940000000 1.0
C      1  0.4893150000000  0.4013710000000  0.4829070000000 1.0
C      1  0.4448230000000  0.5872110000000  0.4605530000000 1.0
C      1  0.5042080000000  0.6072830000000  0.5211560000000 1.0
C      1  0.4892470000000  0.5066340000000  0.4493460000000 1.0
C      1  0.5936700000000  0.5222110000000  0.4472830000000 1.0
C      1  0.5973510000000  0.4934240000000  0.5591080000000 1.0
C      1  0.4787960000000  0.4686820000000  0.5434840000000 1.0
C      1  0.5408890000000  0.5156960000000  0.5343130000000 1.0
C      1  0.5781110000000  0.5729860000000  0.4383160000000 1.0
C      1  0.4926470000000  0.5704110000000  0.5188390000000 1.0
C      1  0.5729610000000  0.5607430000000  0.5991790000000 1.0
C      1  0.4721230000000  0.5949080000000  0.4544230000000 1.0
C      1  0.5454510000000  0.5557210000000  0.4733420000000 1.0
C      1  0.4731420000000  0.4636180000000  0.4132400000000 1.0
C      1  0.5935320000000  0.5708190000000  0.4842950000000 1.0
C      1  0.5634920000000  0.5733140000000  0.4911220000000 1.0
C      1  0.5763380000000  0.4260230000000  0.5214050000000 1.0
C      1  0.5214940000000  0.5926930000000  0.4696490000000 1.0
C      1  0.5956960000000  0.4861870000000  0.4190280000000 1.0
C      1  0.5108150000000  0.4680280000000  0.5135720000000 1.0
C      1  0.5147980000000  0.5625780000000  0.4009780000000 1.0
C      1  0.4128600000000  0.5035720000000  0.5830740000000 1.0
C      1  0.4874440000000  0.5395580000000  0.6066830000000 1.0
C      1  0.4291960000000  0.4540990000000  0.5786530000000 1.0
C      1  0.5425020000000  0.4564070000000  0.4019050000000 1.0
C      1  0.4794140000000  0.4342160000000  0.4065720000000 1.0
C      1  0.5622130000000  0.5344880000000  0.6016870000000 1.0
C      1  0.5782550000000  0.4204550000000  0.4373530000000 1.0
C      1  0.5198090000000  0.5205190000000  0.5562160000000 1.0
C      1  0.4450080000000  0.4695020000000  0.5966480000000 1.0
C      1  0.5789370000000  0.4567090000000  0.4796720000000 1.0
C      1  0.5162340000000  0.5416720000000  0.4348850000000 1.0
C      1  0.4934720000000  0.4037710000000  0.5464320000000 1.0
C      1  0.5941290000000  0.4430730000000  0.4408600000000 1.0
C      1  0.4644770000000  0.4025360000000  0.4985050000000 1.0
C      1  0.5021290000000  0.4400100000000  0.5113370000000 1.0
C      1  0.4001700000000  0.4594850000000  0.4470930000000 1.0
C      1  0.6002300000000  0.5696810000000  0.4553290000000 1.0
C      1  0.4064480000000  0.5332590000000  0.5738760000000 1.0
C      1  0.4124750000000  0.4757760000000  0.5640740000000 1.0
C      1  0.5547180000000  0.5849060000000  0.5637070000000 1.0
C      1  0.5580410000000  0.4162500000000  0.4556930000000 1.0
C      1  0.6042130000000  0.4457630000000  0.4685060000000 1.0
C      1  0.5182880000000  0.4008340000000  0.5306970000000 1.0
C      1  0.4540660000000  0.5550890000000  0.3957210000000 1.0
C      1  0.4662480000000  0.4027050000000  0.5296600000000 1.0
C      1  0.4014030000000  0.5246510000000  0.5080950000000 1.0
C      1  0.5292340000000  0.4324840000000  0.4041060000000 1.0
C      1  0.5593140000000  0.3751170000000  0.5219940000000 1.0
C      1  0.4787480000000  0.5824360000000  0.4298420000000 1.0
C      1  0.5346690000000  0.4029350000000  0.4480090000000 1.0
C      1  0.4508380000000  0.5273680000000  0.3965140000000 1.0
C      1  0.5558530000000  0.4965990000000  0.5794420000000 1.0
END
