TITL C-951341-1326-288 -5.9096203643694e-07 125000 -403.704515858035 0 0 66 (C1) n - 1
REM
REM in /home/bkarasulu/work/CARBON/AIRSS/Generating-Clusters/EDIP-Nigel-Params/with-SteepDescent/Only-C1/SD-CG/HFTN-CG
REM
REM
REM
REM
REM
REM ./C.cell (11c1c37f851c82e70ff6c80c92926a4b)
REM
REM compiler GCC version 9.2.1 20190827 (Red Hat 9.2.1-1)
REM options -cpp -mtune=generic -march=x86-64 -g -O0 -fpre-include=/usr/include/finclude/math-vector-fortran.h
REM seed -1972325039 2109053203 -466986275 -1255708264 -248430153 1029349780 1930582857 994709021 2091151559 941811291 -1682557732 1770452380 -1165182431 -1919615815 -594934140 -1929803990 563245454 1088081297 -610937872 -1230871711 1008075368 169535278 1254438647 -765288887 -1438944897 -1071029439 337090784 -3773571 51762483 950192562 712206419 -1480035776 -343761032
REM
CELL 1.54180   50.00000   50.00000   50.00000   90.00000   90.00000   90.00000
LATT -1
SFAC C  
C      1  0.5172420000000  0.5282340000000  0.4481950000000 1.0
C      1  0.4766480000000  0.5775210000000  0.5009940000000 1.0
C      1  0.4766510000000  0.4184650000000  0.4679700000000 1.0
C      1  0.4637280000000  0.4481000000000  0.5023670000000 1.0
C      1  0.5799540000000  0.5119850000000  0.4928500000000 1.0
C      1  0.5749550000000  0.4912620000000  0.4718940000000 1.0
C      1  0.5140810000000  0.5628940000000  0.4752670000000 1.0
C      1  0.4276150000000  0.4998010000000  0.4640600000000 1.0
C      1  0.5273390000000  0.4943350000000  0.5644240000000 1.0
C      1  0.5831620000000  0.4982400000000  0.5172410000000 1.0
C      1  0.5627290000000  0.4881390000000  0.5330630000000 1.0
C      1  0.5167800000000  0.5065190000000  0.4774890000000 1.0
C      1  0.5353440000000  0.5252420000000  0.5426020000000 1.0
C      1  0.5246000000000  0.5496600000000  0.4989550000000 1.0
C      1  0.4818410000000  0.4613930000000  0.5740890000000 1.0
C      1  0.5103870000000  0.4380080000000  0.4983820000000 1.0
C      1  0.4389380000000  0.5476960000000  0.5061920000000 1.0
C      1  0.5410980000000  0.4927880000000  0.4920940000000 1.0
C      1  0.5558480000000  0.4608360000000  0.5388820000000 1.0
C      1  0.5073220000000  0.5244480000000  0.5008220000000 1.0
C      1  0.4883420000000  0.4857690000000  0.4831270000000 1.0
C      1  0.4704200000000  0.5170940000000  0.4472060000000 1.0
C      1  0.5000550000000  0.5059470000000  0.5668120000000 1.0
C      1  0.5057030000000  0.4820690000000  0.4427890000000 1.0
C      1  0.4200290000000  0.5265010000000  0.4676110000000 1.0
C      1  0.4943860000000  0.5338300000000  0.5578140000000 1.0
C      1  0.4857150000000  0.5622550000000  0.4773820000000 1.0
C      1  0.4768400000000  0.5190870000000  0.4952830000000 1.0
C      1  0.4772060000000  0.4891310000000  0.5748440000000 1.0
C      1  0.4325840000000  0.4942530000000  0.5148310000000 1.0
C      1  0.4509800000000  0.5723350000000  0.5107930000000 1.0
C      1  0.4520200000000  0.4966440000000  0.5607510000000 1.0
C      1  0.5450930000000  0.4464790000000  0.5141340000000 1.0
C      1  0.4491260000000  0.4956820000000  0.4437040000000 1.0
C      1  0.4580800000000  0.4675140000000  0.4427180000000 1.0
C      1  0.5175780000000  0.5660040000000  0.5236150000000 1.0
C      1  0.4852030000000  0.4494880000000  0.5488930000000 1.0
C      1  0.4373880000000  0.4858080000000  0.4877770000000 1.0
C      1  0.4665700000000  0.4603130000000  0.5288640000000 1.0
C      1  0.5032340000000  0.4686040000000  0.5060470000000 1.0
C      1  0.5183240000000  0.5489920000000  0.5484520000000 1.0
C      1  0.5590040000000  0.5320970000000  0.4967570000000 1.0
C      1  0.4961950000000  0.5838420000000  0.5200100000000 1.0
C      1  0.5149630000000  0.5109940000000  0.5256100000000 1.0
C      1  0.4608460000000  0.4691240000000  0.4808230000000 1.0
C      1  0.5324270000000  0.4658310000000  0.5569580000000 1.0
C      1  0.5269530000000  0.4860930000000  0.5180800000000 1.0
C      1  0.4820750000000  0.4263880000000  0.4949560000000 1.0
C      1  0.5535550000000  0.4629430000000  0.4880920000000 1.0
C      1  0.5580730000000  0.5189700000000  0.4334620000000 1.0
C      1  0.4859910000000  0.4616640000000  0.4462180000000 1.0
C      1  0.5559360000000  0.5340350000000  0.5243480000000 1.0
C      1  0.4502240000000  0.4838030000000  0.5346720000000 1.0
C      1  0.4947970000000  0.4346200000000  0.4533080000000 1.0
C      1  0.5344280000000  0.4764400000000  0.4464090000000 1.0
C      1  0.5381180000000  0.5367230000000  0.4316160000000 1.0
C      1  0.4683320000000  0.5368960000000  0.4718430000000 1.0
C      1  0.5408490000000  0.4531170000000  0.4631180000000 1.0
C      1  0.5553900000000  0.4969900000000  0.4502700000000 1.0
C      1  0.4973580000000  0.5096590000000  0.4380620000000 1.0
C      1  0.5132510000000  0.4505140000000  0.5391080000000 1.0
C      1  0.4551690000000  0.5249450000000  0.5182900000000 1.0
C      1  0.5192510000000  0.4346010000000  0.4698330000000 1.0
C      1  0.4483280000000  0.5245580000000  0.5595030000000 1.0
C      1  0.4679920000000  0.5416380000000  0.5501180000000 1.0
C      1  0.4393520000000  0.5441490000000  0.4772540000000 1.0
END
