TITL C-950528-5794-345 0.0983518080652342 125000 -98.7354473353899 0 0 18 (C1) n - 1
REM
REM in /home/bkarasulu/work/CARBON/AIRSS/Generating-Clusters/EDIP-Nigel-Params/with-SteepDescent/Only-C1/SD-CG/HFTN-CG
REM
REM
REM
REM
REM
REM ./C.cell (11c1c37f851c82e70ff6c80c92926a4b)
REM
REM compiler GCC version 9.2.1 20190827 (Red Hat 9.2.1-1)
REM options -cpp -mtune=generic -march=x86-64 -g -O0 -fpre-include=/usr/include/finclude/math-vector-fortran.h
REM seed -909598758 179907600 -1682522078 1687663620 -760044512 -1421167657 33390677 1362936751 -1389823620 -3973586 114296124 -866336300 -710187784 -106706724 179349820 1608249555 1762612630 -761744058 128398574 776562194 1444462800 1739839078 166086960 1842928576 -682437863 -1970524311 -1059634758 553342362 -1121583868 871239952 -598305675 1948696169 -1222364294
REM
CELL 1.54180   50.00000   50.00000   50.00000   90.00000   90.00000   90.00000
LATT -1
SFAC C  
C      1  0.5165170000000  0.4876570000000  0.4596470000000 1.0
C      1  0.5272140000000  0.5024380000000  0.5067560000000 1.0
C      1  0.5720470000000  0.5066880000000  0.5298310000000 1.0
C      1  0.4799550000000  0.4995300000000  0.4936980000000 1.0
C      1  0.5543770000000  0.5184050000000  0.5465030000000 1.0
C      1  0.4621020000000  0.4642840000000  0.4304110000000 1.0
C      1  0.5089940000000  0.4614240000000  0.4470700000000 1.0
C      1  0.4900790000000  0.5261440000000  0.5822140000000 1.0
C      1  0.5325220000000  0.4910570000000  0.4821160000000 1.0
C      1  0.4648120000000  0.5286560000000  0.5731550000000 1.0
C      1  0.4860570000000  0.5369200000000  0.5563050000000 1.0
C      1  0.5483780000000  0.5177700000000  0.5187700000000 1.0
C      1  0.4434320000000  0.4600440000000  0.4134140000000 1.0
C      1  0.4926380000000  0.5223840000000  0.5339230000000 1.0
C      1  0.4548890000000  0.5060630000000  0.4991730000000 1.0
C      1  0.4859970000000  0.4928510000000  0.4659240000000 1.0
C      1  0.4796660000000  0.4656500000000  0.4514690000000 1.0
C      1  0.5003230000000  0.5120360000000  0.5096190000000 1.0
END
