TITL C-950530-3293-352 -3.53097163804495e-06 125000 -582.793817331718 0 0 94 (C1) n - 1
REM
REM in /home/bkarasulu/work/CARBON/AIRSS/Generating-Clusters/EDIP-Nigel-Params/with-SteepDescent/Only-C1/SD-CG/HFTN-CG
REM
REM
REM
REM
REM
REM ./C.cell (11c1c37f851c82e70ff6c80c92926a4b)
REM
REM compiler GCC version 9.2.1 20190827 (Red Hat 9.2.1-1)
REM options -cpp -mtune=generic -march=x86-64 -g -O0 -fpre-include=/usr/include/finclude/math-vector-fortran.h
REM seed 602801016 980659431 1930133450 1886898693 1156892424 -1784956634 -937672621 1346386255 -844357533 -642341487 -918483886 -992194495 1273849400 -348947252 -944107321 1998271694 105471278 -1664416061 -1948260820 1422549311 -1293272145 -1221738427 451476608 -829511216 -1728933441 949561026 1344574488 103062606 1654683584 1636570764 -481307013 2088549329 1742597495
REM
CELL 1.54180   50.00000   50.00000   50.00000   90.00000   90.00000   90.00000
LATT -1
SFAC C  
C      1  0.4768080000000  0.5796030000000  0.5160920000000 1.0
C      1  0.5740170000000  0.5252200000000  0.5316560000000 1.0
C      1  0.5626710000000  0.4616350000000  0.5276070000000 1.0
C      1  0.4392120000000  0.5199210000000  0.4480390000000 1.0
C      1  0.4744340000000  0.4945010000000  0.5467410000000 1.0
C      1  0.5348830000000  0.5205870000000  0.5624780000000 1.0
C      1  0.5285700000000  0.5195910000000  0.5158350000000 1.0
C      1  0.5489940000000  0.4524200000000  0.5007630000000 1.0
C      1  0.4881250000000  0.5135330000000  0.5838450000000 1.0
C      1  0.4714710000000  0.5598420000000  0.5385060000000 1.0
C      1  0.4816850000000  0.4564610000000  0.4820900000000 1.0
C      1  0.4928700000000  0.5301590000000  0.4872210000000 1.0
C      1  0.5132340000000  0.4197070000000  0.5149230000000 1.0
C      1  0.4674120000000  0.4680580000000  0.4348680000000 1.0
C      1  0.5277230000000  0.4192360000000  0.4725660000000 1.0
C      1  0.5652600000000  0.4985470000000  0.4467030000000 1.0
C      1  0.5397940000000  0.5133270000000  0.4734140000000 1.0
C      1  0.5488830000000  0.4787290000000  0.4316470000000 1.0
C      1  0.4797900000000  0.4316580000000  0.5025220000000 1.0
C      1  0.5501120000000  0.4936560000000  0.5579520000000 1.0
C      1  0.4802340000000  0.5217750000000  0.5338160000000 1.0
C      1  0.5617600000000  0.5284070000000  0.4394830000000 1.0
C      1  0.4689150000000  0.4432130000000  0.5295030000000 1.0
C      1  0.5736930000000  0.5290240000000  0.5008020000000 1.0
C      1  0.5218640000000  0.5984610000000  0.4928740000000 1.0
C      1  0.4100560000000  0.5087080000000  0.5030050000000 1.0
C      1  0.4261600000000  0.5247210000000  0.5248850000000 1.0
C      1  0.5726650000000  0.4966610000000  0.5389980000000 1.0
C      1  0.4401010000000  0.4485650000000  0.5352570000000 1.0
C      1  0.5505590000000  0.5698810000000  0.4649530000000 1.0
C      1  0.5064890000000  0.5304530000000  0.5675190000000 1.0
C      1  0.4467610000000  0.4916510000000  0.5600720000000 1.0
C      1  0.4549450000000  0.5318640000000  0.5184380000000 1.0
C      1  0.5124370000000  0.5473150000000  0.4377450000000 1.0
C      1  0.5596220000000  0.5731020000000  0.5139520000000 1.0
C      1  0.5092940000000  0.4651980000000  0.4721710000000 1.0
C      1  0.4997010000000  0.5162350000000  0.5120900000000 1.0
C      1  0.4703020000000  0.4792530000000  0.4975440000000 1.0
C      1  0.4617160000000  0.4497270000000  0.4586950000000 1.0
C      1  0.5805620000000  0.5007110000000  0.4955950000000 1.0
C      1  0.5496460000000  0.5867290000000  0.4902160000000 1.0
C      1  0.4963290000000  0.4636140000000  0.5695230000000 1.0
C      1  0.4621290000000  0.5306780000000  0.4900730000000 1.0
C      1  0.5638770000000  0.4587250000000  0.4742710000000 1.0
C      1  0.5356220000000  0.4252610000000  0.4983130000000 1.0
C      1  0.4728530000000  0.4238980000000  0.4488190000000 1.0
C      1  0.4224700000000  0.5023570000000  0.5448880000000 1.0
C      1  0.5074010000000  0.5569110000000  0.4940190000000 1.0
C      1  0.4081020000000  0.4846360000000  0.5230620000000 1.0
C      1  0.5455950000000  0.4644400000000  0.5520490000000 1.0
C      1  0.5088670000000  0.4690570000000  0.5235880000000 1.0
C      1  0.4359550000000  0.4395820000000  0.4820070000000 1.0
C      1  0.4661500000000  0.5194880000000  0.4379050000000 1.0
C      1  0.4418640000000  0.4750870000000  0.4893270000000 1.0
C      1  0.5422730000000  0.4987180000000  0.4996830000000 1.0
C      1  0.4697170000000  0.4037440000000  0.4682940000000 1.0
C      1  0.5175400000000  0.5725990000000  0.5405380000000 1.0
C      1  0.5173280000000  0.4550840000000  0.5480860000000 1.0
C      1  0.5367590000000  0.5452930000000  0.4992290000000 1.0
C      1  0.5107570000000  0.5145300000000  0.4670770000000 1.0
C      1  0.5260680000000  0.4719480000000  0.4988840000000 1.0
C      1  0.4799240000000  0.4724760000000  0.5251530000000 1.0
C      1  0.4569540000000  0.4173190000000  0.4896230000000 1.0
C      1  0.5054740000000  0.5878080000000  0.5181800000000 1.0
C      1  0.4249110000000  0.4613070000000  0.5124700000000 1.0
C      1  0.4592720000000  0.5111540000000  0.5797080000000 1.0
C      1  0.5171990000000  0.4255290000000  0.5427240000000 1.0
C      1  0.4444500000000  0.4614030000000  0.5633850000000 1.0
C      1  0.4990720000000  0.4121240000000  0.5589830000000 1.0
C      1  0.5070050000000  0.5803420000000  0.4731610000000 1.0
C      1  0.4620750000000  0.5836910000000  0.4907850000000 1.0
C      1  0.4974530000000  0.5560300000000  0.5546070000000 1.0
C      1  0.4789990000000  0.5883690000000  0.4672540000000 1.0
C      1  0.5052810000000  0.4905090000000  0.4521860000000 1.0
C      1  0.5477710000000  0.4537820000000  0.4488390000000 1.0
C      1  0.4706690000000  0.4486200000000  0.5735950000000 1.0
C      1  0.5208280000000  0.4415360000000  0.4559690000000 1.0
C      1  0.4825740000000  0.5440260000000  0.4437290000000 1.0
C      1  0.5326580000000  0.5251770000000  0.4300020000000 1.0
C      1  0.4979120000000  0.4878150000000  0.5825360000000 1.0
C      1  0.5745860000000  0.4858480000000  0.4720680000000 1.0
C      1  0.4388420000000  0.5362910000000  0.4723690000000 1.0
C      1  0.4748340000000  0.4258820000000  0.5552460000000 1.0
C      1  0.5453120000000  0.5650380000000  0.5375720000000 1.0
C      1  0.5242820000000  0.4951500000000  0.4290820000000 1.0
C      1  0.5528860000000  0.5387720000000  0.5474170000000 1.0
C      1  0.4418510000000  0.5648000000000  0.4648390000000 1.0
C      1  0.4665430000000  0.5686990000000  0.4491280000000 1.0
C      1  0.5639750000000  0.5434790000000  0.4660190000000 1.0
C      1  0.4986830000000  0.4330370000000  0.4358430000000 1.0
C      1  0.4885830000000  0.4548810000000  0.4209370000000 1.0
C      1  0.4773970000000  0.4933270000000  0.4445210000000 1.0
C      1  0.5243260000000  0.5714790000000  0.4504090000000 1.0
C      1  0.4263340000000  0.5006060000000  0.4789490000000 1.0
END
