TITL C-951343-2256-503 5.24086767156909e-05 125000 -160.700732372145 0 0 27 (C1) n - 1
REM
REM in /home/bkarasulu/work/CARBON/AIRSS/Generating-Clusters/EDIP-Nigel-Params/with-SteepDescent/Only-C1/SD-CG/HFTN-CG
REM
REM
REM
REM
REM
REM ./C.cell (11c1c37f851c82e70ff6c80c92926a4b)
REM
REM compiler GCC version 9.2.1 20190827 (Red Hat 9.2.1-1)
REM options -cpp -mtune=generic -march=x86-64 -g -O0 -fpre-include=/usr/include/finclude/math-vector-fortran.h
REM seed -204049867 440290114 1807290543 -409338343 -1219777483 39159868 -161406276 -894674285 1682146209 508951661 -849615824 2079369489 -337086202 -1093245141 -984477391 -1736345752 1754124210 -1905147648 814122977 2138688022 1527343509 1002091375 912579917 1292585932 -1324104611 500334053 78556787 2104545351 -192809593 -415308047 -1365499810 -1607182266 1876257837
REM
CELL 1.54180   50.00000   50.00000   50.00000   90.00000   90.00000   90.00000
LATT -1
SFAC C  
C      1  0.5141500000000  0.5453310000000  0.5313850000000 1.0
C      1  0.5399080000000  0.5076110000000  0.5407770000000 1.0
C      1  0.5187320000000  0.5239510000000  0.5488930000000 1.0
C      1  0.4600430000000  0.4730690000000  0.4592140000000 1.0
C      1  0.5041500000000  0.4926800000000  0.4453920000000 1.0
C      1  0.5204140000000  0.5454200000000  0.5040530000000 1.0
C      1  0.5463780000000  0.5030520000000  0.5138780000000 1.0
C      1  0.4357880000000  0.4998040000000  0.5181230000000 1.0
C      1  0.5193480000000  0.4463050000000  0.5168280000000 1.0
C      1  0.4549340000000  0.4709360000000  0.4852790000000 1.0
C      1  0.5399940000000  0.5252880000000  0.4959730000000 1.0
C      1  0.4366780000000  0.5259460000000  0.5291670000000 1.0
C      1  0.4965800000000  0.5100900000000  0.5579570000000 1.0
C      1  0.5095260000000  0.5182240000000  0.4582090000000 1.0
C      1  0.5045180000000  0.5548090000000  0.4829600000000 1.0
C      1  0.4944740000000  0.4546550000000  0.5217640000000 1.0
C      1  0.5362290000000  0.5147550000000  0.4687100000000 1.0
C      1  0.4753880000000  0.4730890000000  0.5293710000000 1.0
C      1  0.5410740000000  0.4857190000000  0.4693100000000 1.0
C      1  0.4780850000000  0.4838830000000  0.4427990000000 1.0
C      1  0.4814940000000  0.4891130000000  0.5510380000000 1.0
C      1  0.5240070000000  0.4732530000000  0.4504110000000 1.0
C      1  0.4584780000000  0.4845270000000  0.5090840000000 1.0
C      1  0.5425330000000  0.4790050000000  0.4978420000000 1.0
C      1  0.4978490000000  0.5438540000000  0.4589680000000 1.0
C      1  0.5437720000000  0.4529510000000  0.5077640000000 1.0
C      1  0.4254750000000  0.5226800000000  0.5048500000000 1.0
END
