TITL C-951339-9237-585 3.49020490145609e-07 125000 -926.41722227785 0 0 148 (C1) n - 1
REM
REM in /home/bkarasulu/work/CARBON/AIRSS/Generating-Clusters/EDIP-Nigel-Params/with-SteepDescent/Only-C1/SD-CG/HFTN-CG
REM
REM
REM
REM
REM
REM ./C.cell (11c1c37f851c82e70ff6c80c92926a4b)
REM
REM compiler GCC version 9.2.1 20190827 (Red Hat 9.2.1-1)
REM options -cpp -mtune=generic -march=x86-64 -g -O0 -fpre-include=/usr/include/finclude/math-vector-fortran.h
REM seed 1380425479 -1897455938 -1661996696 1698872546 892837924 -917346077 -1592022292 -284937724 563176673 1250967706 -1382037084 401401869 -186034612 1669435875 338576176 1305254304 -362576194 -1513047361 -228031312 1233976708 -15075688 -1449415642 1024864102 1789871190 -1010768140 577423360 -1043323761 686444433 -1292867629 291531979 -1285928402 -1306988636 -78343874
REM
CELL 1.54180   50.00000   50.00000   50.00000   90.00000   90.00000   90.00000
LATT -1
SFAC C  
C      1  0.5413670000000  0.5682790000000  0.5930520000000 1.0
C      1  0.4870390000000  0.4655900000000  0.5095180000000 1.0
C      1  0.5325770000000  0.5265220000000  0.5118260000000 1.0
C      1  0.4262680000000  0.4730720000000  0.5267700000000 1.0
C      1  0.4681450000000  0.4834310000000  0.4317490000000 1.0
C      1  0.5171150000000  0.5533100000000  0.5993960000000 1.0
C      1  0.4997570000000  0.4906630000000  0.5507300000000 1.0
C      1  0.5172130000000  0.5220360000000  0.3890150000000 1.0
C      1  0.6025680000000  0.4985410000000  0.4765590000000 1.0
C      1  0.5460850000000  0.4492960000000  0.4811350000000 1.0
C      1  0.4870770000000  0.5555150000000  0.4063850000000 1.0
C      1  0.4512880000000  0.4633930000000  0.4488380000000 1.0
C      1  0.4518230000000  0.4960200000000  0.4085880000000 1.0
C      1  0.4521490000000  0.5809820000000  0.5315960000000 1.0
C      1  0.4604550000000  0.5879970000000  0.4830550000000 1.0
C      1  0.5102820000000  0.4441530000000  0.5551920000000 1.0
C      1  0.5967490000000  0.5100540000000  0.5562190000000 1.0
C      1  0.4706470000000  0.4973720000000  0.5493910000000 1.0
C      1  0.4153450000000  0.5604950000000  0.4789060000000 1.0
C      1  0.4163640000000  0.5273340000000  0.4411290000000 1.0
C      1  0.5679050000000  0.4679060000000  0.5607790000000 1.0
C      1  0.5943060000000  0.5094990000000  0.5039350000000 1.0
C      1  0.4879430000000  0.4392750000000  0.4132180000000 1.0
C      1  0.4012870000000  0.4618360000000  0.4829070000000 1.0
C      1  0.4078980000000  0.4792780000000  0.5697150000000 1.0
C      1  0.5077320000000  0.6011400000000  0.4918360000000 1.0
C      1  0.5485280000000  0.5118410000000  0.5609770000000 1.0
C      1  0.4158660000000  0.4447380000000  0.5256650000000 1.0
C      1  0.5403070000000  0.4441010000000  0.4232000000000 1.0
C      1  0.3946620000000  0.5136490000000  0.4824930000000 1.0
C      1  0.4831170000000  0.4317090000000  0.5607530000000 1.0
C      1  0.4950940000000  0.4750440000000  0.5917770000000 1.0
C      1  0.4962250000000  0.5758690000000  0.4495610000000 1.0
C      1  0.4570980000000  0.5381680000000  0.4837290000000 1.0
C      1  0.5144950000000  0.4517070000000  0.4113290000000 1.0
C      1  0.5755480000000  0.5333300000000  0.4717570000000 1.0
C      1  0.5394090000000  0.4474540000000  0.5105110000000 1.0
C      1  0.4478580000000  0.5162350000000  0.4601100000000 1.0
C      1  0.5725460000000  0.4952920000000  0.5486510000000 1.0
C      1  0.4636410000000  0.4494800000000  0.5187940000000 1.0
C      1  0.4927850000000  0.3954480000000  0.5277710000000 1.0
C      1  0.4915170000000  0.5007040000000  0.4720700000000 1.0
C      1  0.5998300000000  0.5213170000000  0.4575720000000 1.0
C      1  0.4845490000000  0.5514190000000  0.5019510000000 1.0
C      1  0.5378100000000  0.5765900000000  0.5242520000000 1.0
C      1  0.4675860000000  0.4520690000000  0.3959150000000 1.0
C      1  0.5272900000000  0.4295460000000  0.4688350000000 1.0
C      1  0.5371100000000  0.5637570000000  0.4756930000000 1.0
C      1  0.5601630000000  0.5394730000000  0.5561660000000 1.0
C      1  0.4516400000000  0.4940640000000  0.5890140000000 1.0
C      1  0.4726320000000  0.5807810000000  0.5102120000000 1.0
C      1  0.4385740000000  0.5199380000000  0.5029350000000 1.0
C      1  0.5529790000000  0.5236550000000  0.6030900000000 1.0
C      1  0.5937000000000  0.5411720000000  0.5195040000000 1.0
C      1  0.5485280000000  0.4867280000000  0.4459960000000 1.0
C      1  0.5324640000000  0.4740620000000  0.5210750000000 1.0
C      1  0.5732320000000  0.5196110000000  0.4122740000000 1.0
C      1  0.5577090000000  0.4223250000000  0.5334710000000 1.0
C      1  0.4110410000000  0.5543820000000  0.5082200000000 1.0
C      1  0.5778620000000  0.4262140000000  0.4833070000000 1.0
C      1  0.5099350000000  0.5219360000000  0.4725230000000 1.0
C      1  0.4326600000000  0.4276340000000  0.5435620000000 1.0
C      1  0.4358860000000  0.5408570000000  0.4257920000000 1.0
C      1  0.5039480000000  0.5756470000000  0.5864530000000 1.0
C      1  0.5188650000000  0.4590590000000  0.5804120000000 1.0
C      1  0.5683120000000  0.5598350000000  0.4818480000000 1.0
C      1  0.4693600000000  0.5300120000000  0.5694970000000 1.0
C      1  0.4700450000000  0.4805550000000  0.3928620000000 1.0
C      1  0.5457410000000  0.4721620000000  0.5804800000000 1.0
C      1  0.5161580000000  0.4736700000000  0.3943310000000 1.0
C      1  0.5307350000000  0.5838080000000  0.4954700000000 1.0
C      1  0.5440730000000  0.4240400000000  0.4447690000000 1.0
C      1  0.5566330000000  0.5294700000000  0.4523010000000 1.0
C      1  0.4949450000000  0.5999190000000  0.5183490000000 1.0
C      1  0.5589020000000  0.5468550000000  0.5859090000000 1.0
C      1  0.4804880000000  0.4040630000000  0.5526590000000 1.0
C      1  0.4055430000000  0.4872160000000  0.4707840000000 1.0
C      1  0.4087300000000  0.5242320000000  0.5082910000000 1.0
C      1  0.5614970000000  0.4653920000000  0.4268940000000 1.0
C      1  0.5129700000000  0.5463450000000  0.4017980000000 1.0
C      1  0.5573980000000  0.5405450000000  0.4267820000000 1.0
C      1  0.4353960000000  0.4886840000000  0.4690520000000 1.0
C      1  0.4706030000000  0.5158940000000  0.5960390000000 1.0
C      1  0.5241890000000  0.5692140000000  0.4471870000000 1.0
C      1  0.4509580000000  0.5605100000000  0.4408030000000 1.0
C      1  0.5152770000000  0.4118370000000  0.5196550000000 1.0
C      1  0.4412220000000  0.4445820000000  0.4040350000000 1.0
C      1  0.4492000000000  0.5239930000000  0.4076250000000 1.0
C      1  0.4779020000000  0.4118370000000  0.4594420000000 1.0
C      1  0.4248050000000  0.5006840000000  0.5771030000000 1.0
C      1  0.4733550000000  0.5061390000000  0.4494410000000 1.0
C      1  0.4653930000000  0.5781270000000  0.5581610000000 1.0
C      1  0.4664480000000  0.4468960000000  0.4706480000000 1.0
C      1  0.5176090000000  0.5240610000000  0.5888940000000 1.0
C      1  0.5502960000000  0.4958860000000  0.5965860000000 1.0
C      1  0.5726920000000  0.4480190000000  0.5390350000000 1.0
C      1  0.5733610000000  0.4924640000000  0.5174980000000 1.0
C      1  0.5660550000000  0.5850290000000  0.5261320000000 1.0
C      1  0.4309770000000  0.5612480000000  0.5295910000000 1.0
C      1  0.5731610000000  0.4280700000000  0.4533660000000 1.0
C      1  0.5128340000000  0.5883720000000  0.5392020000000 1.0
C      1  0.5173060000000  0.5417190000000  0.4905900000000 1.0
C      1  0.4712650000000  0.4240140000000  0.4333460000000 1.0
C      1  0.5785880000000  0.5649070000000  0.5090040000000 1.0
C      1  0.4020990000000  0.5371240000000  0.4641900000000 1.0
C      1  0.4939970000000  0.4552280000000  0.4820320000000 1.0
C      1  0.4534580000000  0.4693740000000  0.5423720000000 1.0
C      1  0.4183110000000  0.4429240000000  0.4957950000000 1.0
C      1  0.4974510000000  0.5043730000000  0.6006870000000 1.0
C      1  0.4878250000000  0.5354350000000  0.5259830000000 1.0
C      1  0.5302540000000  0.5513780000000  0.4243570000000 1.0
C      1  0.4568520000000  0.4201550000000  0.5276820000000 1.0
C      1  0.4279970000000  0.5495500000000  0.5560680000000 1.0
C      1  0.5947810000000  0.5142360000000  0.4301510000000 1.0
C      1  0.5838150000000  0.4551900000000  0.4447100000000 1.0
C      1  0.5176140000000  0.5147010000000  0.5514550000000 1.0
C      1  0.4021330000000  0.5133770000000  0.5364610000000 1.0
C      1  0.5563190000000  0.4134110000000  0.5028380000000 1.0
C      1  0.5437400000000  0.4970200000000  0.5044940000000 1.0
C      1  0.5802650000000  0.4636420000000  0.5157000000000 1.0
C      1  0.4747520000000  0.3944850000000  0.5054310000000 1.0
C      1  0.4475900000000  0.4468870000000  0.4938990000000 1.0
C      1  0.4569430000000  0.4474600000000  0.5650820000000 1.0
C      1  0.4752570000000  0.4928760000000  0.5005990000000 1.0
C      1  0.4717080000000  0.5123680000000  0.5242210000000 1.0
C      1  0.5371120000000  0.4788820000000  0.4735120000000 1.0
C      1  0.5900540000000  0.4714630000000  0.4694540000000 1.0
C      1  0.5075750000000  0.4764540000000  0.4676300000000 1.0
C      1  0.4954490000000  0.5719200000000  0.5589560000000 1.0
C      1  0.5295040000000  0.4979110000000  0.3953320000000 1.0
C      1  0.5291620000000  0.4218040000000  0.5438380000000 1.0
C      1  0.4772070000000  0.5667280000000  0.4301020000000 1.0
C      1  0.4954570000000  0.5407060000000  0.5544960000000 1.0
C      1  0.4911470000000  0.3980870000000  0.4814800000000 1.0
C      1  0.4517680000000  0.5550780000000  0.5715190000000 1.0
C      1  0.5889340000000  0.4524620000000  0.4911020000000 1.0
C      1  0.4656420000000  0.4677040000000  0.5876150000000 1.0
C      1  0.5521910000000  0.4982050000000  0.4147780000000 1.0
C      1  0.4034790000000  0.4842350000000  0.5419150000000 1.0
C      1  0.4873670000000  0.5939880000000  0.4703970000000 1.0
C      1  0.4209820000000  0.5219000000000  0.5569690000000 1.0
C      1  0.4436240000000  0.4905330000000  0.4979640000000 1.0
C      1  0.5204720000000  0.4067990000000  0.4884360000000 1.0
C      1  0.5892890000000  0.5363130000000  0.5480550000000 1.0
C      1  0.4449500000000  0.4383630000000  0.4313780000000 1.0
C      1  0.5408200000000  0.5469290000000  0.5320990000000 1.0
C      1  0.5071060000000  0.4681240000000  0.5336120000000 1.0
C      1  0.4450540000000  0.5639180000000  0.4708900000000 1.0
END
