TITL C-951340-9809-388 3.48463100578803e-07 125000 -191.79135476876 0 0 32 (C1) n - 1
REM
REM in /home/bkarasulu/work/CARBON/AIRSS/Generating-Clusters/EDIP-Nigel-Params/with-SteepDescent/Only-C1/SD-CG/HFTN-CG
REM
REM
REM
REM
REM
REM ./C.cell (11c1c37f851c82e70ff6c80c92926a4b)
REM
REM compiler GCC version 9.2.1 20190827 (Red Hat 9.2.1-1)
REM options -cpp -mtune=generic -march=x86-64 -g -O0 -fpre-include=/usr/include/finclude/math-vector-fortran.h
REM seed -1082209067 1340872887 -1173421355 -997832975 327086191 -2009713204 310753917 526997987 -1732280723 222972915 302738974 1229835588 1733019496 -535122381 1563524219 -452124148 -1524472984 866315168 995078459 525499734 1134412763 1830340647 2005399406 -1070701915 1509329485 -1288878621 -2008240032 -1850672994 -1761787939 -1618929913 -1617057930 14171013 -1058239860
REM
CELL 1.54180   50.00000   50.00000   50.00000   90.00000   90.00000   90.00000
LATT -1
SFAC C  
C      1  0.5154100000000  0.4713270000000  0.5381050000000 1.0
C      1  0.4451070000000  0.4963690000000  0.4968600000000 1.0
C      1  0.4912630000000  0.4876260000000  0.5034570000000 1.0
C      1  0.5357070000000  0.4586550000000  0.5225390000000 1.0
C      1  0.5065820000000  0.5381340000000  0.5493080000000 1.0
C      1  0.4676750000000  0.4709470000000  0.5291210000000 1.0
C      1  0.5478220000000  0.5177010000000  0.5352920000000 1.0
C      1  0.5186710000000  0.5430870000000  0.5068640000000 1.0
C      1  0.4522730000000  0.4678970000000  0.5047460000000 1.0
C      1  0.5320460000000  0.5272060000000  0.5559130000000 1.0
C      1  0.4910940000000  0.4989880000000  0.4449400000000 1.0
C      1  0.5137150000000  0.4785430000000  0.4843100000000 1.0
C      1  0.5088130000000  0.5490810000000  0.4818650000000 1.0
C      1  0.5394810000000  0.5258630000000  0.4445750000000 1.0
C      1  0.4949270000000  0.4424280000000  0.5058880000000 1.0
C      1  0.4778700000000  0.5178560000000  0.4633040000000 1.0
C      1  0.4720680000000  0.4513590000000  0.4878040000000 1.0
C      1  0.5358790000000  0.4993500000000  0.4882040000000 1.0
C      1  0.4650380000000  0.5263830000000  0.5221950000000 1.0
C      1  0.4954740000000  0.5408570000000  0.4588800000000 1.0
C      1  0.4866640000000  0.5173170000000  0.5410630000000 1.0
C      1  0.4732500000000  0.5090470000000  0.4925880000000 1.0
C      1  0.4999320000000  0.4742200000000  0.4573010000000 1.0
C      1  0.4784230000000  0.4563600000000  0.4605460000000 1.0
C      1  0.4391700000000  0.5130520000000  0.5201890000000 1.0
C      1  0.5218700000000  0.4529630000000  0.4981930000000 1.0
C      1  0.5061820000000  0.4987350000000  0.5264940000000 1.0
C      1  0.5468000000000  0.5122030000000  0.4663670000000 1.0
C      1  0.5084890000000  0.5574420000000  0.5286880000000 1.0
C      1  0.4909140000000  0.4546100000000  0.5330440000000 1.0
C      1  0.5127140000000  0.5290660000000  0.4381580000000 1.0
C      1  0.5286760000000  0.5153280000000  0.5131990000000 1.0
END
