TITL C-950536-5891-237 -9.47581314140468e-07 125000 -1231.37088647423 0 0 194 (C1) n - 1
REM
REM in /home/bkarasulu/work/CARBON/AIRSS/Generating-Clusters/EDIP-Nigel-Params/with-SteepDescent/Only-C1/SD-CG/HFTN-CG
REM
REM
REM
REM
REM
REM ./C.cell (11c1c37f851c82e70ff6c80c92926a4b)
REM
REM compiler GCC version 9.2.1 20190827 (Red Hat 9.2.1-1)
REM options -cpp -mtune=generic -march=x86-64 -g -O0 -fpre-include=/usr/include/finclude/math-vector-fortran.h
REM seed -34434239 2111490075 142791555 -1568059832 -803616090 1747470130 -1594012785 685897439 -1162172257 -966198708 -1769898737 -799752298 1741599560 1631230515 -290688741 187802921 298893711 2115073333 -1068875681 -37928156 -887207363 -2100458876 1459184479 766835757 -946139854 -1789968527 -1982048554 -540126699 -2018288706 -1319917579 -812792185 188929304 2077192722
REM
CELL 1.54180   50.00000   50.00000   50.00000   90.00000   90.00000   90.00000
LATT -1
SFAC C  
C      1  0.4696450000000  0.5825370000000  0.4420160000000 1.0
C      1  0.4139810000000  0.4306190000000  0.4520880000000 1.0
C      1  0.5653980000000  0.5461010000000  0.4462590000000 1.0
C      1  0.4795820000000  0.5914290000000  0.5149050000000 1.0
C      1  0.4820140000000  0.4010360000000  0.5036110000000 1.0
C      1  0.5043960000000  0.6146400000000  0.4864720000000 1.0
C      1  0.5267570000000  0.5967140000000  0.4416960000000 1.0
C      1  0.5707170000000  0.5084080000000  0.5108130000000 1.0
C      1  0.5458550000000  0.4121310000000  0.4301250000000 1.0
C      1  0.6078200000000  0.5064530000000  0.5411900000000 1.0
C      1  0.3976960000000  0.5365890000000  0.4970960000000 1.0
C      1  0.4319160000000  0.4533160000000  0.5773700000000 1.0
C      1  0.5539210000000  0.4015490000000  0.4767300000000 1.0
C      1  0.5115470000000  0.5271770000000  0.5526240000000 1.0
C      1  0.4262660000000  0.5013810000000  0.4209810000000 1.0
C      1  0.5878470000000  0.5524340000000  0.5331450000000 1.0
C      1  0.4274180000000  0.5795400000000  0.5277310000000 1.0
C      1  0.5379210000000  0.5363610000000  0.5408110000000 1.0
C      1  0.3917230000000  0.5098530000000  0.5090670000000 1.0
C      1  0.5153760000000  0.4431620000000  0.5380900000000 1.0
C      1  0.6040420000000  0.5741160000000  0.4855540000000 1.0
C      1  0.5309400000000  0.5545800000000  0.5134720000000 1.0
C      1  0.5269620000000  0.6218290000000  0.5015200000000 1.0
C      1  0.4055100000000  0.5436670000000  0.4472920000000 1.0
C      1  0.5820120000000  0.5487120000000  0.5601800000000 1.0
C      1  0.5115650000000  0.5943250000000  0.4663660000000 1.0
C      1  0.5072650000000  0.4592090000000  0.4386390000000 1.0
C      1  0.4683720000000  0.6133830000000  0.4999560000000 1.0
C      1  0.4558710000000  0.4358740000000  0.4240270000000 1.0
C      1  0.5889430000000  0.4221770000000  0.5573690000000 1.0
C      1  0.5633750000000  0.4147980000000  0.5484660000000 1.0
C      1  0.3916360000000  0.4754820000000  0.4655920000000 1.0
C      1  0.4628470000000  0.4791560000000  0.5136900000000 1.0
C      1  0.4905010000000  0.5364020000000  0.5352070000000 1.0
C      1  0.4625020000000  0.5335480000000  0.4404640000000 1.0
C      1  0.5465220000000  0.5345720000000  0.5919410000000 1.0
C      1  0.4735350000000  0.5321980000000  0.6002020000000 1.0
C      1  0.4349320000000  0.5139140000000  0.5305860000000 1.0
C      1  0.5837380000000  0.5892700000000  0.4992350000000 1.0
C      1  0.5994700000000  0.4542100000000  0.4478080000000 1.0
C      1  0.4481720000000  0.5067700000000  0.4017490000000 1.0
C      1  0.4897200000000  0.4550330000000  0.5551960000000 1.0
C      1  0.4158760000000  0.5354220000000  0.4739990000000 1.0
C      1  0.4640700000000  0.4806100000000  0.3997510000000 1.0
C      1  0.4889000000000  0.3868060000000  0.5287040000000 1.0
C      1  0.4872880000000  0.4135300000000  0.4582410000000 1.0
C      1  0.4282170000000  0.4395550000000  0.4929130000000 1.0
C      1  0.4973030000000  0.5386730000000  0.4014120000000 1.0
C      1  0.6087550000000  0.4486050000000  0.4958810000000 1.0
C      1  0.5197880000000  0.5397500000000  0.6031430000000 1.0
C      1  0.5935920000000  0.4472120000000  0.5450880000000 1.0
C      1  0.4230140000000  0.5831450000000  0.4601290000000 1.0
C      1  0.6149730000000  0.5259450000000  0.4957010000000 1.0
C      1  0.4062230000000  0.5118600000000  0.5350340000000 1.0
C      1  0.4993080000000  0.4402980000000  0.3996300000000 1.0
C      1  0.4904110000000  0.5745800000000  0.4625770000000 1.0
C      1  0.3998930000000  0.5390420000000  0.5466900000000 1.0
C      1  0.4484900000000  0.5893480000000  0.5708290000000 1.0
C      1  0.5128770000000  0.5860230000000  0.4174570000000 1.0
C      1  0.4539870000000  0.4335970000000  0.5807570000000 1.0
C      1  0.4520660000000  0.4881740000000  0.6035530000000 1.0
C      1  0.4247570000000  0.4730340000000  0.4263590000000 1.0
C      1  0.5312360000000  0.4897500000000  0.5345800000000 1.0
C      1  0.4811370000000  0.4479610000000  0.5842420000000 1.0
C      1  0.4485210000000  0.4600820000000  0.5311280000000 1.0
C      1  0.5001110000000  0.5994600000000  0.5343640000000 1.0
C      1  0.6224960000000  0.4849810000000  0.5300830000000 1.0
C      1  0.4904240000000  0.4842130000000  0.4337870000000 1.0
C      1  0.4904310000000  0.5329620000000  0.4314750000000 1.0
C      1  0.5805240000000  0.4371150000000  0.4909690000000 1.0
C      1  0.4959030000000  0.5861000000000  0.5592800000000 1.0
C      1  0.4602010000000  0.4944400000000  0.5658660000000 1.0
C      1  0.5755790000000  0.4405330000000  0.4604210000000 1.0
C      1  0.5063600000000  0.5537840000000  0.4470040000000 1.0
C      1  0.4832880000000  0.5675820000000  0.4959860000000 1.0
C      1  0.4830830000000  0.5869510000000  0.4163930000000 1.0
C      1  0.5538370000000  0.5492490000000  0.5653990000000 1.0
C      1  0.5703000000000  0.5738330000000  0.5206880000000 1.0
C      1  0.4687350000000  0.4402600000000  0.5380050000000 1.0
C      1  0.5703970000000  0.4901240000000  0.4623760000000 1.0
C      1  0.5678740000000  0.5408700000000  0.4163340000000 1.0
C      1  0.4487230000000  0.5176130000000  0.6013650000000 1.0
C      1  0.5722090000000  0.5927570000000  0.4727730000000 1.0
C      1  0.5270400000000  0.6041780000000  0.5236100000000 1.0
C      1  0.5438500000000  0.4614260000000  0.5355190000000 1.0
C      1  0.5554620000000  0.4627430000000  0.4579360000000 1.0
C      1  0.4382160000000  0.4741320000000  0.5555750000000 1.0
C      1  0.5710280000000  0.4640650000000  0.5532580000000 1.0
C      1  0.4453290000000  0.5554300000000  0.5220550000000 1.0
C      1  0.4708410000000  0.5715770000000  0.5678480000000 1.0
C      1  0.5210190000000  0.4206440000000  0.4215290000000 1.0
C      1  0.4462820000000  0.4604070000000  0.4122800000000 1.0
C      1  0.5076770000000  0.5146820000000  0.3892050000000 1.0
C      1  0.4025730000000  0.5162750000000  0.4318310000000 1.0
C      1  0.5404660000000  0.5345570000000  0.4110850000000 1.0
C      1  0.4546690000000  0.3956130000000  0.4920040000000 1.0
C      1  0.4254620000000  0.5082440000000  0.4645150000000 1.0
C      1  0.5184520000000  0.4885110000000  0.3929590000000 1.0
C      1  0.5421230000000  0.4863270000000  0.4154980000000 1.0
C      1  0.5367330000000  0.4634670000000  0.4340860000000 1.0
C      1  0.5785370000000  0.4790940000000  0.5111310000000 1.0
C      1  0.4402560000000  0.4198350000000  0.4432290000000 1.0
C      1  0.4275300000000  0.4890780000000  0.4882400000000 1.0
C      1  0.4017690000000  0.4650120000000  0.5244510000000 1.0
C      1  0.5021290000000  0.3977840000000  0.4802830000000 1.0
C      1  0.3878330000000  0.4979850000000  0.4489230000000 1.0
C      1  0.4220670000000  0.5663010000000  0.4378380000000 1.0
C      1  0.4370520000000  0.5800510000000  0.4842670000000 1.0
C      1  0.5176130000000  0.4412280000000  0.4843080000000 1.0
C      1  0.5508760000000  0.5110210000000  0.5325670000000 1.0
C      1  0.5354660000000  0.5608390000000  0.4836360000000 1.0
C      1  0.5444090000000  0.5256690000000  0.4566430000000 1.0
C      1  0.4399190000000  0.6037760000000  0.5005480000000 1.0
C      1  0.5267960000000  0.4122140000000  0.4868990000000 1.0
C      1  0.5999970000000  0.5462340000000  0.4813510000000 1.0
C      1  0.4554840000000  0.5556260000000  0.4939050000000 1.0
C      1  0.5072240000000  0.5655500000000  0.5982010000000 1.0
C      1  0.5049270000000  0.5088680000000  0.4372530000000 1.0
C      1  0.5396350000000  0.4622890000000  0.4833960000000 1.0
C      1  0.4245740000000  0.4442680000000  0.5214450000000 1.0
C      1  0.6032440000000  0.4649730000000  0.5211650000000 1.0
C      1  0.5754590000000  0.4928730000000  0.5854650000000 1.0
C      1  0.4578720000000  0.4089480000000  0.4645530000000 1.0
C      1  0.5336260000000  0.5120620000000  0.4306950000000 1.0
C      1  0.4779060000000  0.5604850000000  0.5948540000000 1.0
C      1  0.5095160000000  0.4968780000000  0.5028870000000 1.0
C      1  0.4649400000000  0.5228570000000  0.4880420000000 1.0
C      1  0.5180960000000  0.5830510000000  0.5768150000000 1.0
C      1  0.4866210000000  0.4845620000000  0.5536020000000 1.0
C      1  0.5027570000000  0.4473550000000  0.5094170000000 1.0
C      1  0.5961960000000  0.5055740000000  0.4562010000000 1.0
C      1  0.5809210000000  0.5164310000000  0.4102100000000 1.0
C      1  0.4201710000000  0.5466470000000  0.5667890000000 1.0
C      1  0.5539330000000  0.5071590000000  0.4795050000000 1.0
C      1  0.4789390000000  0.4743460000000  0.6003160000000 1.0
C      1  0.4546280000000  0.5335550000000  0.3939480000000 1.0
C      1  0.4900010000000  0.4741950000000  0.5038160000000 1.0
C      1  0.5374030000000  0.4139020000000  0.5633670000000 1.0
C      1  0.4275520000000  0.5763660000000  0.5584550000000 1.0
C      1  0.5013550000000  0.5462060000000  0.5098160000000 1.0
C      1  0.5731600000000  0.4892160000000  0.4117210000000 1.0
C      1  0.4100410000000  0.4222980000000  0.4791200000000 1.0
C      1  0.3990570000000  0.4829640000000  0.4980560000000 1.0
C      1  0.4652260000000  0.5473200000000  0.5458040000000 1.0
C      1  0.5386910000000  0.4601990000000  0.5873080000000 1.0
C      1  0.4489820000000  0.5227710000000  0.5551700000000 1.0
C      1  0.4482050000000  0.5025930000000  0.5064820000000 1.0
C      1  0.4345890000000  0.3997300000000  0.5117580000000 1.0
C      1  0.5139340000000  0.4114610000000  0.5445510000000 1.0
C      1  0.5307610000000  0.4898070000000  0.4849930000000 1.0
C      1  0.4159000000000  0.4608110000000  0.4527730000000 1.0
C      1  0.5964480000000  0.5248350000000  0.5202130000000 1.0
C      1  0.5915510000000  0.5357630000000  0.4564280000000 1.0
C      1  0.5590470000000  0.4569810000000  0.5060720000000 1.0
C      1  0.4259570000000  0.4740850000000  0.5982510000000 1.0
C      1  0.4562090000000  0.4180400000000  0.5537890000000 1.0
C      1  0.4373570000000  0.4625410000000  0.4764310000000 1.0
C      1  0.4098380000000  0.4956150000000  0.5846230000000 1.0
C      1  0.4801180000000  0.4298740000000  0.5118840000000 1.0
C      1  0.4073160000000  0.4845390000000  0.5494130000000 1.0
C      1  0.5498410000000  0.5054980000000  0.5937950000000 1.0
C      1  0.5740300000000  0.4082800000000  0.4977350000000 1.0
C      1  0.4702140000000  0.4868630000000  0.4545820000000 1.0
C      1  0.4982960000000  0.5200260000000  0.6093990000000 1.0
C      1  0.4224340000000  0.5228280000000  0.5887970000000 1.0
C      1  0.4303070000000  0.4159110000000  0.5347150000000 1.0
C      1  0.5208780000000  0.5571100000000  0.4105890000000 1.0
C      1  0.6146540000000  0.4642450000000  0.4714770000000 1.0
C      1  0.5514640000000  0.5754430000000  0.4610920000000 1.0
C      1  0.4695510000000  0.4640700000000  0.4724670000000 1.0
C      1  0.4781630000000  0.4227750000000  0.4109710000000 1.0
C      1  0.4974570000000  0.5225930000000  0.4911930000000 1.0
C      1  0.4514040000000  0.5601040000000  0.4321510000000 1.0
C      1  0.5132860000000  0.4973100000000  0.5579920000000 1.0
C      1  0.5281120000000  0.4327500000000  0.5851390000000 1.0
C      1  0.5503010000000  0.5898540000000  0.5373640000000 1.0
C      1  0.4952750000000  0.4439410000000  0.4628070000000 1.0
C      1  0.5015560000000  0.4304950000000  0.5937950000000 1.0
C      1  0.5029320000000  0.4910940000000  0.6056750000000 1.0
C      1  0.4560440000000  0.5128750000000  0.4604810000000 1.0
C      1  0.4588600000000  0.5600770000000  0.4033550000000 1.0
C      1  0.6155230000000  0.5013910000000  0.4782740000000 1.0
C      1  0.4053140000000  0.5551230000000  0.5212710000000 1.0
C      1  0.5850620000000  0.4990740000000  0.5578880000000 1.0
C      1  0.5906910000000  0.4724640000000  0.4272860000000 1.0
C      1  0.5642320000000  0.4032440000000  0.5233350000000 1.0
C      1  0.4942070000000  0.4701400000000  0.3976450000000 1.0
C      1  0.5636760000000  0.4141480000000  0.4513040000000 1.0
C      1  0.5671060000000  0.4635220000000  0.5830260000000 1.0
C      1  0.4796240000000  0.3982050000000  0.5533160000000 1.0
C      1  0.5445640000000  0.5775280000000  0.5641170000000 1.0
C      1  0.4956530000000  0.4075500000000  0.4295230000000 1.0
C      1  0.5259880000000  0.4879980000000  0.5870370000000 1.0
C      1  0.5210830000000  0.5401120000000  0.4686510000000 1.0
END
