TITL C-951335-1172-713 -2.11812356533568e-06 125000 -240.044471596862 0 0 40 (C1) n - 1
REM
REM in /home/bkarasulu/work/CARBON/AIRSS/Generating-Clusters/EDIP-Nigel-Params/with-SteepDescent/Only-C1/SD-CG/HFTN-CG
REM
REM
REM
REM
REM
REM ./C.cell (11c1c37f851c82e70ff6c80c92926a4b)
REM
REM compiler GCC version 9.2.1 20190827 (Red Hat 9.2.1-1)
REM options -cpp -mtune=generic -march=x86-64 -g -O0 -fpre-include=/usr/include/finclude/math-vector-fortran.h
REM seed -1178035521 826862001 78558337 -306021306 2040414765 1309517260 -2020366196 1603291379 -1593154002 1031094993 1962427271 1382509624 -213333281 1879609342 -416222599 1558280900 641507842 1946157734 815346513 374733669 1867644052 2034161925 -2129744187 -1327183998 -683906873 1262751501 -758386010 97300002 1038555828 -1769669154 2132011896 538320198 1055409506
REM
CELL 1.54180   50.00000   50.00000   50.00000   90.00000   90.00000   90.00000
LATT -1
SFAC C  
C      1  0.4908190000000  0.4793490000000  0.5374540000000 1.0
C      1  0.4491030000000  0.4999490000000  0.4572900000000 1.0
C      1  0.5447870000000  0.5364220000000  0.4603090000000 1.0
C      1  0.5269020000000  0.4492820000000  0.4852360000000 1.0
C      1  0.4435850000000  0.4910580000000  0.4872020000000 1.0
C      1  0.4677250000000  0.5220870000000  0.5379650000000 1.0
C      1  0.4775270000000  0.4922750000000  0.4525250000000 1.0
C      1  0.5453600000000  0.4745250000000  0.5244580000000 1.0
C      1  0.4708710000000  0.5474090000000  0.4567710000000 1.0
C      1  0.4986200000000  0.5105080000000  0.4637850000000 1.0
C      1  0.4999220000000  0.5123830000000  0.4963840000000 1.0
C      1  0.4617650000000  0.4495360000000  0.5141120000000 1.0
C      1  0.4786610000000  0.4313580000000  0.4948410000000 1.0
C      1  0.5344560000000  0.5478300000000  0.5036000000000 1.0
C      1  0.4480310000000  0.5317910000000  0.4619120000000 1.0
C      1  0.5473350000000  0.4598460000000  0.5008780000000 1.0
C      1  0.5402450000000  0.5034150000000  0.5241820000000 1.0
C      1  0.5246580000000  0.4957450000000  0.4580330000000 1.0
C      1  0.5070120000000  0.4331570000000  0.4969790000000 1.0
C      1  0.4969880000000  0.5380120000000  0.4528180000000 1.0
C      1  0.4428000000000  0.5208330000000  0.4890340000000 1.0
C      1  0.5332620000000  0.5162210000000  0.5493990000000 1.0
C      1  0.5149210000000  0.4764720000000  0.5565880000000 1.0
C      1  0.4730440000000  0.4571560000000  0.5397700000000 1.0
C      1  0.5214080000000  0.5531760000000  0.4614100000000 1.0
C      1  0.5161290000000  0.4674880000000  0.4649850000000 1.0
C      1  0.5285580000000  0.5436220000000  0.5489380000000 1.0
C      1  0.5443900000000  0.5111700000000  0.4734870000000 1.0
C      1  0.5307870000000  0.5182790000000  0.4999580000000 1.0
C      1  0.4919970000000  0.4859330000000  0.5075600000000 1.0
C      1  0.5365990000000  0.4610070000000  0.5473460000000 1.0
C      1  0.4645550000000  0.5486000000000  0.5279420000000 1.0
C      1  0.5231200000000  0.5000030000000  0.5697790000000 1.0
C      1  0.4703180000000  0.4952460000000  0.5487380000000 1.0
C      1  0.4674480000000  0.4733450000000  0.4946150000000 1.0
C      1  0.4876850000000  0.4646970000000  0.4570060000000 1.0
C      1  0.4824440000000  0.5322550000000  0.5124240000000 1.0
C      1  0.5191090000000  0.5646020000000  0.4878650000000 1.0
C      1  0.4710370000000  0.4443080000000  0.4695060000000 1.0
C      1  0.5260170000000  0.5596480000000  0.5269180000000 1.0
END
