TITL C-951335-1172-28 -2.2784359631695e-08 125000 -903.92892761145 0 0 142 (C1) n - 1
REM
REM in /home/bkarasulu/work/CARBON/AIRSS/Generating-Clusters/EDIP-Nigel-Params/with-SteepDescent/Only-C1/SD-CG/HFTN-CG
REM
REM
REM
REM
REM
REM ./C.cell (11c1c37f851c82e70ff6c80c92926a4b)
REM
REM compiler GCC version 9.2.1 20190827 (Red Hat 9.2.1-1)
REM options -cpp -mtune=generic -march=x86-64 -g -O0 -fpre-include=/usr/include/finclude/math-vector-fortran.h
REM seed -617614395 1983146052 -1387135934 -1460957728 1178603302 -370473781 -1648619694 -1065374534 1556998787 1671694614 424613594 -1158654931 -1160744766 -1214529226 -13672926 -1990724896 -1647827483 -1703577715 195079071 865361672 100608233 -1404090123 1596784188 1719255372 -927319252 -360919890 1764620447 920986958 -190371303 -1442031950 1616801945 559506667 -767104755
REM
CELL 1.54180   50.00000   50.00000   50.00000   90.00000   90.00000   90.00000
LATT -1
SFAC C  
C      1  0.4354480000000  0.4650130000000  0.4206560000000 1.0
C      1  0.5372170000000  0.5438060000000  0.5847260000000 1.0
C      1  0.4709980000000  0.5286720000000  0.4023440000000 1.0
C      1  0.5205550000000  0.4507480000000  0.4429980000000 1.0
C      1  0.4324320000000  0.5510700000000  0.4623550000000 1.0
C      1  0.4933160000000  0.4510540000000  0.4300900000000 1.0
C      1  0.5040540000000  0.5969350000000  0.4581220000000 1.0
C      1  0.4372750000000  0.4230370000000  0.5246930000000 1.0
C      1  0.5029610000000  0.5175670000000  0.4409890000000 1.0
C      1  0.5473690000000  0.5716550000000  0.4490030000000 1.0
C      1  0.5551400000000  0.4991530000000  0.5018000000000 1.0
C      1  0.5311960000000  0.5831500000000  0.5584240000000 1.0
C      1  0.4357860000000  0.5107060000000  0.4322880000000 1.0
C      1  0.4752890000000  0.5396920000000  0.4297370000000 1.0
C      1  0.4757070000000  0.4139490000000  0.4588960000000 1.0
C      1  0.4259020000000  0.4315710000000  0.4376000000000 1.0
C      1  0.4744220000000  0.5359900000000  0.5802810000000 1.0
C      1  0.4585390000000  0.6005530000000  0.5129980000000 1.0
C      1  0.4665810000000  0.5235080000000  0.4724400000000 1.0
C      1  0.5648000000000  0.4250860000000  0.5230070000000 1.0
C      1  0.4129360000000  0.4997930000000  0.5231780000000 1.0
C      1  0.5205870000000  0.5195920000000  0.5789240000000 1.0
C      1  0.5856680000000  0.4983980000000  0.5028220000000 1.0
C      1  0.4276220000000  0.4843330000000  0.4417420000000 1.0
C      1  0.4523480000000  0.4165840000000  0.4771670000000 1.0
C      1  0.5470540000000  0.4723530000000  0.5122420000000 1.0
C      1  0.5932420000000  0.4827450000000  0.5372750000000 1.0
C      1  0.4488250000000  0.4290230000000  0.4216500000000 1.0
C      1  0.5233670000000  0.5852040000000  0.4366180000000 1.0
C      1  0.5187380000000  0.5416370000000  0.4071820000000 1.0
C      1  0.5228000000000  0.4715380000000  0.4677360000000 1.0
C      1  0.4430940000000  0.4839780000000  0.4866320000000 1.0
C      1  0.6060790000000  0.5331340000000  0.5260280000000 1.0
C      1  0.5321360000000  0.4353550000000  0.5563700000000 1.0
C      1  0.5755920000000  0.4908040000000  0.4276440000000 1.0
C      1  0.5944850000000  0.5138570000000  0.5429760000000 1.0
C      1  0.4404880000000  0.5866870000000  0.4958000000000 1.0
C      1  0.5818130000000  0.5435550000000  0.4840790000000 1.0
C      1  0.5207810000000  0.5354090000000  0.4840180000000 1.0
C      1  0.4153270000000  0.5267900000000  0.5318740000000 1.0
C      1  0.4214440000000  0.5296790000000  0.4844720000000 1.0
C      1  0.4934230000000  0.5185850000000  0.5945070000000 1.0
C      1  0.5102130000000  0.4310200000000  0.5767280000000 1.0
C      1  0.4234620000000  0.5706640000000  0.5157930000000 1.0
C      1  0.5845790000000  0.4562110000000  0.4893680000000 1.0
C      1  0.4357950000000  0.5008950000000  0.5780750000000 1.0
C      1  0.5922290000000  0.4831750000000  0.4785350000000 1.0
C      1  0.5703420000000  0.4409860000000  0.4694940000000 1.0
C      1  0.5545860000000  0.5050520000000  0.4107630000000 1.0
C      1  0.5082300000000  0.4998730000000  0.5335100000000 1.0
C      1  0.5319570000000  0.4866830000000  0.4103740000000 1.0
C      1  0.4760850000000  0.4519970000000  0.5397180000000 1.0
C      1  0.5487660000000  0.4215880000000  0.4751130000000 1.0
C      1  0.4506450000000  0.5320070000000  0.4476250000000 1.0
C      1  0.5185930000000  0.5666980000000  0.5800730000000 1.0
C      1  0.5030430000000  0.4098420000000  0.4671340000000 1.0
C      1  0.4034300000000  0.5037860000000  0.4800550000000 1.0
C      1  0.5631970000000  0.5807030000000  0.5215490000000 1.0
C      1  0.4647510000000  0.4797040000000  0.5466780000000 1.0
C      1  0.4714080000000  0.4758650000000  0.5841380000000 1.0
C      1  0.4797920000000  0.5690190000000  0.4272910000000 1.0
C      1  0.5158490000000  0.5246590000000  0.5471120000000 1.0
C      1  0.5546600000000  0.5696120000000  0.5480520000000 1.0
C      1  0.4962740000000  0.4825280000000  0.4763900000000 1.0
C      1  0.4856000000000  0.4184640000000  0.5667810000000 1.0
C      1  0.5300150000000  0.5233900000000  0.4588720000000 1.0
C      1  0.4630510000000  0.5809580000000  0.5332500000000 1.0
C      1  0.4910600000000  0.4274780000000  0.4980410000000 1.0
C      1  0.5405800000000  0.4148850000000  0.5055330000000 1.0
C      1  0.4625910000000  0.5225290000000  0.5206260000000 1.0
C      1  0.5591020000000  0.5620460000000  0.4978320000000 1.0
C      1  0.5730820000000  0.4733570000000  0.5583260000000 1.0
C      1  0.5463380000000  0.5798410000000  0.4769920000000 1.0
C      1  0.4324770000000  0.4783290000000  0.5334980000000 1.0
C      1  0.4853820000000  0.4045310000000  0.5427560000000 1.0
C      1  0.4798760000000  0.4968060000000  0.5267920000000 1.0
C      1  0.4153130000000  0.4602060000000  0.5493320000000 1.0
C      1  0.4852010000000  0.4751280000000  0.4161070000000 1.0
C      1  0.5466960000000  0.5336390000000  0.4160630000000 1.0
C      1  0.4147320000000  0.4374950000000  0.5109210000000 1.0
C      1  0.4848930000000  0.5825140000000  0.5513650000000 1.0
C      1  0.4579950000000  0.4787650000000  0.4053560000000 1.0
C      1  0.5465470000000  0.5192960000000  0.5236730000000 1.0
C      1  0.5035830000000  0.5572580000000  0.4780600000000 1.0
C      1  0.5763060000000  0.5304930000000  0.4578480000000 1.0
C      1  0.5259950000000  0.4229160000000  0.4552800000000 1.0
C      1  0.5461450000000  0.6030070000000  0.5159740000000 1.0
C      1  0.5687480000000  0.4617940000000  0.4247250000000 1.0
C      1  0.4763560000000  0.5501710000000  0.4855160000000 1.0
C      1  0.5049900000000  0.4977120000000  0.4155340000000 1.0
C      1  0.4273620000000  0.4270840000000  0.4658360000000 1.0
C      1  0.5109510000000  0.5811400000000  0.5364850000000 1.0
C      1  0.4808250000000  0.5451570000000  0.5142350000000 1.0
C      1  0.5462860000000  0.4132220000000  0.5434250000000 1.0
C      1  0.4810000000000  0.4041250000000  0.5149810000000 1.0
C      1  0.5551530000000  0.4519110000000  0.5641390000000 1.0
C      1  0.5661880000000  0.5204640000000  0.5499700000000 1.0
C      1  0.5605220000000  0.5460800000000  0.5651390000000 1.0
C      1  0.4719490000000  0.4520560000000  0.5096360000000 1.0
C      1  0.4840390000000  0.4781290000000  0.5028830000000 1.0
C      1  0.4528950000000  0.4071550000000  0.5055250000000 1.0
C      1  0.5355390000000  0.5436470000000  0.5081480000000 1.0
C      1  0.4536480000000  0.4328130000000  0.5511090000000 1.0
C      1  0.4418160000000  0.5348370000000  0.5422930000000 1.0
C      1  0.5728170000000  0.4559480000000  0.5181170000000 1.0
C      1  0.5615740000000  0.4974920000000  0.5678800000000 1.0
C      1  0.4123260000000  0.4456080000000  0.4824450000000 1.0
C      1  0.4340730000000  0.4505170000000  0.5678120000000 1.0
C      1  0.5171510000000  0.5843860000000  0.4832520000000 1.0
C      1  0.5179130000000  0.4361470000000  0.5084900000000 1.0
C      1  0.5343290000000  0.4554900000000  0.4905560000000 1.0
C      1  0.4873920000000  0.5056700000000  0.4626960000000 1.0
C      1  0.5184410000000  0.5976570000000  0.5116810000000 1.0
C      1  0.4191700000000  0.4795400000000  0.4705060000000 1.0
C      1  0.4990570000000  0.5202020000000  0.3964650000000 1.0
C      1  0.5338080000000  0.4710910000000  0.5974500000000 1.0
C      1  0.4400190000000  0.5651940000000  0.5401980000000 1.0
C      1  0.5441970000000  0.4974770000000  0.4681400000000 1.0
C      1  0.5374140000000  0.4951650000000  0.5821050000000 1.0
C      1  0.4474260000000  0.5134300000000  0.4930310000000 1.0
C      1  0.5092890000000  0.5506800000000  0.5270810000000 1.0
C      1  0.4896400000000  0.5607800000000  0.5717340000000 1.0
C      1  0.4758230000000  0.5858690000000  0.4515500000000 1.0
C      1  0.4494370000000  0.5075070000000  0.4058130000000 1.0
C      1  0.5091860000000  0.4551000000000  0.5944950000000 1.0
C      1  0.3921650000000  0.4956370000000  0.5044480000000 1.0
C      1  0.4539990000000  0.5702110000000  0.4741130000000 1.0
C      1  0.5789650000000  0.4441690000000  0.4435700000000 1.0
C      1  0.4822970000000  0.4925680000000  0.6049620000000 1.0
C      1  0.5262440000000  0.4761320000000  0.5341500000000 1.0
C      1  0.4423800000000  0.4636190000000  0.5079770000000 1.0
C      1  0.4107310000000  0.5445220000000  0.5086610000000 1.0
C      1  0.5078430000000  0.5678130000000  0.4183810000000 1.0
C      1  0.5394890000000  0.4607040000000  0.4212350000000 1.0
C      1  0.4482640000000  0.5252280000000  0.5699170000000 1.0
C      1  0.5136730000000  0.4494990000000  0.5361160000000 1.0
C      1  0.5512650000000  0.5413760000000  0.4447880000000 1.0
C      1  0.4744520000000  0.4291990000000  0.4342190000000 1.0
C      1  0.5741930000000  0.4993710000000  0.4571380000000 1.0
C      1  0.5010310000000  0.4741690000000  0.6170620000000 1.0
C      1  0.4431590000000  0.4740410000000  0.5844090000000 1.0
C      1  0.5978170000000  0.5254500000000  0.5005490000000 1.0
END
