TITL C-951338-5626-434 -1.71379439225191e-06 125000 -765.988533813772 0 0 123 (C1) n - 1
REM
REM in /home/bkarasulu/work/CARBON/AIRSS/Generating-Clusters/EDIP-Nigel-Params/with-SteepDescent/Only-C1/SD-CG/HFTN-CG
REM
REM
REM
REM
REM
REM ./C.cell (11c1c37f851c82e70ff6c80c92926a4b)
REM
REM compiler GCC version 9.2.1 20190827 (Red Hat 9.2.1-1)
REM options -cpp -mtune=generic -march=x86-64 -g -O0 -fpre-include=/usr/include/finclude/math-vector-fortran.h
REM seed -239786661 24557084 -1212956943 -154446965 -508879802 -2052211687 -153934662 -637835921 1978915394 -1293253862 2022251113 1121134781 -1282146838 1687097252 -144272498 279736630 -1109824600 -2072127237 1284434035 -1781291088 393158060 -699728204 -1275193482 -1770146604 1541363498 -217233409 995619800 -230788895 -1971546309 134043571 774519701 1775517394 1972536912
REM
CELL 1.54180   50.00000   50.00000   50.00000   90.00000   90.00000   90.00000
LATT -1
SFAC C  
C      1  0.4835760000000  0.5384740000000  0.5945810000000 1.0
C      1  0.4659560000000  0.4655110000000  0.5511750000000 1.0
C      1  0.4809300000000  0.5109360000000  0.4016030000000 1.0
C      1  0.4884060000000  0.3952880000000  0.5054490000000 1.0
C      1  0.5494480000000  0.5422390000000  0.4575520000000 1.0
C      1  0.4717800000000  0.5830680000000  0.4370280000000 1.0
C      1  0.4428860000000  0.5545230000000  0.5565090000000 1.0
C      1  0.5566270000000  0.4852630000000  0.4179760000000 1.0
C      1  0.4727640000000  0.5532860000000  0.5604470000000 1.0
C      1  0.5551280000000  0.5627070000000  0.5486860000000 1.0
C      1  0.5133860000000  0.5429040000000  0.5702160000000 1.0
C      1  0.4554760000000  0.5255680000000  0.5227860000000 1.0
C      1  0.5376110000000  0.5239040000000  0.5359680000000 1.0
C      1  0.4693250000000  0.4791750000000  0.5241790000000 1.0
C      1  0.4195000000000  0.4770220000000  0.5537290000000 1.0
C      1  0.4508500000000  0.4764870000000  0.5022340000000 1.0
C      1  0.5005590000000  0.5182460000000  0.5045180000000 1.0
C      1  0.5856740000000  0.5263800000000  0.5387490000000 1.0
C      1  0.4974200000000  0.4916010000000  0.5860400000000 1.0
C      1  0.5044830000000  0.4491190000000  0.4704920000000 1.0
C      1  0.5528090000000  0.4998640000000  0.5244620000000 1.0
C      1  0.4463680000000  0.5575020000000  0.4737010000000 1.0
C      1  0.5238930000000  0.5057610000000  0.5935130000000 1.0
C      1  0.4058730000000  0.4628900000000  0.4723220000000 1.0
C      1  0.5020950000000  0.4366860000000  0.5473380000000 1.0
C      1  0.4349970000000  0.4501040000000  0.5063570000000 1.0
C      1  0.4942460000000  0.4428210000000  0.5188810000000 1.0
C      1  0.5792700000000  0.4951860000000  0.5396300000000 1.0
C      1  0.5837970000000  0.4773880000000  0.4678080000000 1.0
C      1  0.5496340000000  0.5050700000000  0.5773820000000 1.0
C      1  0.5160730000000  0.4077410000000  0.5477390000000 1.0
C      1  0.4943770000000  0.4752780000000  0.4591650000000 1.0
C      1  0.4802890000000  0.5273320000000  0.5462710000000 1.0
C      1  0.5508100000000  0.4318940000000  0.5130450000000 1.0
C      1  0.4579170000000  0.5103520000000  0.4648690000000 1.0
C      1  0.4949480000000  0.4910110000000  0.5181850000000 1.0
C      1  0.5444150000000  0.4493980000000  0.4512370000000 1.0
C      1  0.4333310000000  0.5008620000000  0.5107880000000 1.0
C      1  0.5939370000000  0.5452560000000  0.4877220000000 1.0
C      1  0.4300380000000  0.5289830000000  0.5660520000000 1.0
C      1  0.4216190000000  0.5398020000000  0.4717360000000 1.0
C      1  0.5108510000000  0.4714110000000  0.4160870000000 1.0
C      1  0.5190860000000  0.5201920000000  0.4284960000000 1.0
C      1  0.4752410000000  0.4241690000000  0.5067060000000 1.0
C      1  0.5381900000000  0.4590150000000  0.5055870000000 1.0
C      1  0.5346200000000  0.4079360000000  0.5017000000000 1.0
C      1  0.4441870000000  0.4797440000000  0.5660900000000 1.0
C      1  0.4599250000000  0.4740040000000  0.4245790000000 1.0
C      1  0.4940730000000  0.4000180000000  0.4752740000000 1.0
C      1  0.4578430000000  0.4357060000000  0.5486810000000 1.0
C      1  0.5223400000000  0.5370480000000  0.5145780000000 1.0
C      1  0.4974050000000  0.5716660000000  0.4341920000000 1.0
C      1  0.4080790000000  0.5224970000000  0.5450740000000 1.0
C      1  0.5231640000000  0.4065960000000  0.4739350000000 1.0
C      1  0.4101230000000  0.4894750000000  0.4827500000000 1.0
C      1  0.4608960000000  0.5031630000000  0.4215290000000 1.0
C      1  0.4820290000000  0.5756630000000  0.5415210000000 1.0
C      1  0.3903130000000  0.5079280000000  0.4910460000000 1.0
C      1  0.4445770000000  0.4574350000000  0.4434840000000 1.0
C      1  0.4487360000000  0.4280650000000  0.5206640000000 1.0
C      1  0.4691750000000  0.5364100000000  0.4745930000000 1.0
C      1  0.4124210000000  0.4436150000000  0.4911790000000 1.0
C      1  0.5088190000000  0.4999960000000  0.4065060000000 1.0
C      1  0.5630630000000  0.4570020000000  0.4744050000000 1.0
C      1  0.5433050000000  0.4119370000000  0.5562570000000 1.0
C      1  0.5932370000000  0.4505380000000  0.5133330000000 1.0
C      1  0.5011390000000  0.5972280000000  0.4720160000000 1.0
C      1  0.5488470000000  0.4605010000000  0.5540280000000 1.0
C      1  0.5658090000000  0.4829250000000  0.5654090000000 1.0
C      1  0.5124120000000  0.5158130000000  0.5521010000000 1.0
C      1  0.5679430000000  0.5094020000000  0.4254140000000 1.0
C      1  0.5211650000000  0.4988330000000  0.4549880000000 1.0
C      1  0.4485350000000  0.5705360000000  0.5029940000000 1.0
C      1  0.4960240000000  0.4696960000000  0.5633150000000 1.0
C      1  0.4628200000000  0.4351370000000  0.4481030000000 1.0
C      1  0.5559010000000  0.4333310000000  0.5434920000000 1.0
C      1  0.4420050000000  0.5498530000000  0.4267410000000 1.0
C      1  0.4385740000000  0.5514170000000  0.5258320000000 1.0
C      1  0.5598990000000  0.5638850000000  0.5185970000000 1.0
C      1  0.4132720000000  0.4956000000000  0.5336850000000 1.0
C      1  0.5256740000000  0.5567320000000  0.4698510000000 1.0
C      1  0.5294590000000  0.4254530000000  0.4527680000000 1.0
C      1  0.4812370000000  0.4291350000000  0.4710770000000 1.0
C      1  0.5373560000000  0.4755300000000  0.5310340000000 1.0
C      1  0.5996100000000  0.5259340000000  0.4646870000000 1.0
C      1  0.4673430000000  0.4844870000000  0.4751260000000 1.0
C      1  0.5476760000000  0.5313790000000  0.4285670000000 1.0
C      1  0.5109580000000  0.4548320000000  0.4984480000000 1.0
C      1  0.5905730000000  0.4916740000000  0.4943910000000 1.0
C      1  0.5513000000000  0.5127040000000  0.4687630000000 1.0
C      1  0.4755810000000  0.5766630000000  0.5125570000000 1.0
C      1  0.5962690000000  0.4773850000000  0.5200640000000 1.0
C      1  0.4233170000000  0.5178740000000  0.4519370000000 1.0
C      1  0.4168260000000  0.4576910000000  0.4470810000000 1.0
C      1  0.4506150000000  0.5072820000000  0.5716500000000 1.0
C      1  0.5155200000000  0.5802670000000  0.4552970000000 1.0
C      1  0.4106780000000  0.5422530000000  0.5221170000000 1.0
C      1  0.5106640000000  0.4864070000000  0.5415660000000 1.0
C      1  0.4944300000000  0.5947820000000  0.4989740000000 1.0
C      1  0.5325730000000  0.5631030000000  0.5035810000000 1.0
C      1  0.5151560000000  0.3953220000000  0.5199550000000 1.0
C      1  0.4059210000000  0.5314800000000  0.4950200000000 1.0
C      1  0.5184940000000  0.5886420000000  0.5144480000000 1.0
C      1  0.5775360000000  0.5057780000000  0.4537140000000 1.0
C      1  0.5008400000000  0.5452690000000  0.4209180000000 1.0
C      1  0.5618220000000  0.5343350000000  0.5560800000000 1.0
C      1  0.5277140000000  0.5676740000000  0.5591930000000 1.0
C      1  0.5006150000000  0.5393010000000  0.4643660000000 1.0
C      1  0.6116720000000  0.5113590000000  0.4876070000000 1.0
C      1  0.4803050000000  0.4197580000000  0.5580290000000 1.0
C      1  0.5150260000000  0.5343000000000  0.5999860000000 1.0
C      1  0.5099690000000  0.5845670000000  0.5426880000000 1.0
C      1  0.5786030000000  0.5416150000000  0.5128070000000 1.0
C      1  0.4487450000000  0.5697650000000  0.4453940000000 1.0
C      1  0.4380900000000  0.5219350000000  0.4271040000000 1.0
C      1  0.5624510000000  0.5038660000000  0.4965170000000 1.0
C      1  0.4870570000000  0.4616670000000  0.4326550000000 1.0
C      1  0.4755720000000  0.5333200000000  0.5028900000000 1.0
C      1  0.5076670000000  0.5140080000000  0.4760920000000 1.0
C      1  0.4831600000000  0.5391800000000  0.3996820000000 1.0
C      1  0.5377160000000  0.4677670000000  0.4285710000000 1.0
C      1  0.5746470000000  0.4380650000000  0.4963450000000 1.0
C      1  0.4750000000000  0.5111910000000  0.5873280000000 1.0
END
