TITL C-950531-5884-745 2.1141611573822e-07 125000 -989.379495722918 0 0 157 (C1) n - 1
REM
REM in /home/bkarasulu/work/CARBON/AIRSS/Generating-Clusters/EDIP-Nigel-Params/with-SteepDescent/Only-C1/SD-CG/HFTN-CG
REM
REM
REM
REM
REM
REM ./C.cell (11c1c37f851c82e70ff6c80c92926a4b)
REM
REM compiler GCC version 9.2.1 20190827 (Red Hat 9.2.1-1)
REM options -cpp -mtune=generic -march=x86-64 -g -O0 -fpre-include=/usr/include/finclude/math-vector-fortran.h
REM seed -2017280233 -1311054388 -1578696787 -231799336 -701722446 690993344 -831771136 981620112 -326850964 -767537790 -1883180069 627304904 103561456 427114679 -1875778084 1131568810 1261883952 -540354134 1382537939 -594357099 -1792972754 1080341437 2049249496 -1527769446 -738452269 -519465831 -2054310116 -119040296 -1861521134 883046331 1943033568 940218126 -1139581428
REM
CELL 1.54180   50.00000   50.00000   50.00000   90.00000   90.00000   90.00000
LATT -1
SFAC C  
C      1  0.4121330000000  0.4856390000000  0.5574840000000 1.0
C      1  0.5657140000000  0.5382820000000  0.5696320000000 1.0
C      1  0.4995720000000  0.4488850000000  0.5288970000000 1.0
C      1  0.4505310000000  0.4781740000000  0.5825100000000 1.0
C      1  0.5197990000000  0.4264770000000  0.5361710000000 1.0
C      1  0.4350830000000  0.5880800000000  0.5007010000000 1.0
C      1  0.5512490000000  0.4404180000000  0.4412960000000 1.0
C      1  0.4446680000000  0.5447890000000  0.4044780000000 1.0
C      1  0.5193140000000  0.5873710000000  0.4761570000000 1.0
C      1  0.4687400000000  0.5527660000000  0.4878760000000 1.0
C      1  0.5187620000000  0.5577940000000  0.5848830000000 1.0
C      1  0.5468460000000  0.5173480000000  0.5806680000000 1.0
C      1  0.5666270000000  0.5592350000000  0.4636120000000 1.0
C      1  0.5311350000000  0.5108620000000  0.5517170000000 1.0
C      1  0.5714110000000  0.4470390000000  0.4837460000000 1.0
C      1  0.5631490000000  0.4398100000000  0.5474320000000 1.0
C      1  0.4704850000000  0.5211780000000  0.4565360000000 1.0
C      1  0.4100000000000  0.4588910000000  0.5159170000000 1.0
C      1  0.5929950000000  0.5084100000000  0.4580270000000 1.0
C      1  0.4948920000000  0.5460750000000  0.5734120000000 1.0
C      1  0.4752380000000  0.4341080000000  0.5766020000000 1.0
C      1  0.4214850000000  0.4972430000000  0.4122810000000 1.0
C      1  0.4811220000000  0.3859700000000  0.4740190000000 1.0
C      1  0.5293910000000  0.5723840000000  0.5642330000000 1.0
C      1  0.4067100000000  0.4857950000000  0.4581950000000 1.0
C      1  0.5222930000000  0.5552190000000  0.4781240000000 1.0
C      1  0.4178280000000  0.5483030000000  0.4924750000000 1.0
C      1  0.5936690000000  0.5293390000000  0.4996490000000 1.0
C      1  0.5063630000000  0.6087540000000  0.5047160000000 1.0
C      1  0.5354000000000  0.5325010000000  0.3981870000000 1.0
C      1  0.5966000000000  0.4756810000000  0.5416650000000 1.0
C      1  0.5109600000000  0.5825630000000  0.5448380000000 1.0
C      1  0.4877100000000  0.5496760000000  0.4183990000000 1.0
C      1  0.5821530000000  0.5232070000000  0.5495970000000 1.0
C      1  0.5457410000000  0.4734960000000  0.5908910000000 1.0
C      1  0.5062220000000  0.4872240000000  0.5598250000000 1.0
C      1  0.5236990000000  0.5920110000000  0.5199080000000 1.0
C      1  0.5112820000000  0.4003030000000  0.5247910000000 1.0
C      1  0.5510440000000  0.5571260000000  0.5524480000000 1.0
C      1  0.5747700000000  0.4883220000000  0.4453560000000 1.0
C      1  0.4692630000000  0.4579840000000  0.5936560000000 1.0
C      1  0.5236830000000  0.4241090000000  0.5652450000000 1.0
C      1  0.4451610000000  0.4043590000000  0.5060410000000 1.0
C      1  0.5213840000000  0.4146140000000  0.4747800000000 1.0
C      1  0.5404900000000  0.5146690000000  0.4526860000000 1.0
C      1  0.5436280000000  0.5128580000000  0.4819630000000 1.0
C      1  0.5316240000000  0.4797680000000  0.4443830000000 1.0
C      1  0.4257830000000  0.4213790000000  0.4946460000000 1.0
C      1  0.5182330000000  0.4446410000000  0.4848320000000 1.0
C      1  0.4909910000000  0.4738230000000  0.6051610000000 1.0
C      1  0.4492540000000  0.5551010000000  0.5782420000000 1.0
C      1  0.6136900000000  0.4961850000000  0.4728900000000 1.0
C      1  0.5473900000000  0.4860690000000  0.5422620000000 1.0
C      1  0.4397740000000  0.4944040000000  0.4875370000000 1.0
C      1  0.4264440000000  0.5604170000000  0.4670020000000 1.0
C      1  0.6075380000000  0.5028840000000  0.4995060000000 1.0
C      1  0.5499100000000  0.4334740000000  0.5724990000000 1.0
C      1  0.5917140000000  0.4462710000000  0.5435650000000 1.0
C      1  0.5340860000000  0.5525990000000  0.4224660000000 1.0
C      1  0.5142450000000  0.5942420000000  0.4304890000000 1.0
C      1  0.5675330000000  0.4167650000000  0.4804230000000 1.0
C      1  0.5052010000000  0.5289130000000  0.6158000000000 1.0
C      1  0.4410150000000  0.5067810000000  0.5885650000000 1.0
C      1  0.5273060000000  0.3963750000000  0.4995970000000 1.0
C      1  0.4660780000000  0.4597940000000  0.4628110000000 1.0
C      1  0.5447640000000  0.6009740000000  0.4669560000000 1.0
C      1  0.4876820000000  0.5304520000000  0.3956140000000 1.0
C      1  0.4843780000000  0.3931590000000  0.5288990000000 1.0
C      1  0.4293430000000  0.5265100000000  0.5431100000000 1.0
C      1  0.4566030000000  0.4258850000000  0.5543930000000 1.0
C      1  0.4997710000000  0.5059890000000  0.5052590000000 1.0
C      1  0.5291480000000  0.5152950000000  0.6076030000000 1.0
C      1  0.4631930000000  0.5784150000000  0.5043260000000 1.0
C      1  0.5471450000000  0.4156070000000  0.4581660000000 1.0
C      1  0.4074170000000  0.5221040000000  0.4970490000000 1.0
C      1  0.4566060000000  0.5163010000000  0.5322950000000 1.0
C      1  0.4882700000000  0.4742370000000  0.5397500000000 1.0
C      1  0.5816900000000  0.5335790000000  0.4725000000000 1.0
C      1  0.4583800000000  0.3875400000000  0.4883230000000 1.0
C      1  0.4038160000000  0.4860690000000  0.5293090000000 1.0
C      1  0.4965440000000  0.4049440000000  0.4608760000000 1.0
C      1  0.4092610000000  0.5144760000000  0.5238490000000 1.0
C      1  0.5327060000000  0.4670120000000  0.5641010000000 1.0
C      1  0.4476100000000  0.4970320000000  0.4025120000000 1.0
C      1  0.5005050000000  0.4230090000000  0.5804830000000 1.0
C      1  0.5277040000000  0.4532480000000  0.4274540000000 1.0
C      1  0.4326090000000  0.4486430000000  0.4409570000000 1.0
C      1  0.5627470000000  0.5022140000000  0.4230380000000 1.0
C      1  0.4968990000000  0.5283980000000  0.4389690000000 1.0
C      1  0.5417110000000  0.4789260000000  0.5129140000000 1.0
C      1  0.5502310000000  0.5804320000000  0.5092720000000 1.0
C      1  0.5952960000000  0.4798390000000  0.5128580000000 1.0
C      1  0.4381800000000  0.4710860000000  0.5571520000000 1.0
C      1  0.4515860000000  0.5221920000000  0.5023010000000 1.0
C      1  0.4701090000000  0.4588550000000  0.4917080000000 1.0
C      1  0.5786010000000  0.5365650000000  0.5235540000000 1.0
C      1  0.4988450000000  0.5911470000000  0.4553690000000 1.0
C      1  0.5690490000000  0.4598210000000  0.4557310000000 1.0
C      1  0.5243810000000  0.4934840000000  0.4932670000000 1.0
C      1  0.5447770000000  0.4517750000000  0.5017150000000 1.0
C      1  0.5668900000000  0.4929950000000  0.5839090000000 1.0
C      1  0.3989840000000  0.5019720000000  0.4795790000000 1.0
C      1  0.4872710000000  0.4664170000000  0.3916030000000 1.0
C      1  0.4802460000000  0.5372490000000  0.5384030000000 1.0
C      1  0.5445290000000  0.5947330000000  0.4379630000000 1.0
C      1  0.4591540000000  0.4834250000000  0.5343490000000 1.0
C      1  0.4650950000000  0.5654150000000  0.5338190000000 1.0
C      1  0.5549020000000  0.4063320000000  0.5060170000000 1.0
C      1  0.5758400000000  0.4935080000000  0.5541670000000 1.0
C      1  0.5231830000000  0.5392580000000  0.4488680000000 1.0
C      1  0.4129410000000  0.4379890000000  0.5348520000000 1.0
C      1  0.4934800000000  0.4453150000000  0.5015830000000 1.0
C      1  0.4814420000000  0.5834750000000  0.5522620000000 1.0
C      1  0.5472150000000  0.4308750000000  0.5234510000000 1.0
C      1  0.4783460000000  0.6073500000000  0.4659360000000 1.0
C      1  0.4342990000000  0.5582890000000  0.5427030000000 1.0
C      1  0.4142900000000  0.4465620000000  0.4890320000000 1.0
C      1  0.4803830000000  0.6019800000000  0.4939900000000 1.0
C      1  0.5096990000000  0.5041390000000  0.4235700000000 1.0
C      1  0.5318060000000  0.5340750000000  0.5272600000000 1.0
C      1  0.5377050000000  0.5060030000000  0.4093360000000 1.0
C      1  0.4594190000000  0.4702760000000  0.3998030000000 1.0
C      1  0.4329820000000  0.4421840000000  0.5539020000000 1.0
C      1  0.5575070000000  0.5674630000000  0.4355530000000 1.0
C      1  0.4764430000000  0.5108790000000  0.4864950000000 1.0
C      1  0.4217580000000  0.4612990000000  0.4643180000000 1.0
C      1  0.4277760000000  0.5879520000000  0.4732020000000 1.0
C      1  0.5122980000000  0.5317210000000  0.3814280000000 1.0
C      1  0.4571160000000  0.5310480000000  0.5939610000000 1.0
C      1  0.4521230000000  0.5487570000000  0.4531900000000 1.0
C      1  0.4590310000000  0.5577940000000  0.4250320000000 1.0
C      1  0.4770870000000  0.4334020000000  0.4244780000000 1.0
C      1  0.5111420000000  0.5702220000000  0.4140010000000 1.0
C      1  0.4891990000000  0.4765450000000  0.4558340000000 1.0
C      1  0.4750290000000  0.5680640000000  0.5770320000000 1.0
C      1  0.4978020000000  0.5487410000000  0.4935040000000 1.0
C      1  0.6016030000000  0.4343350000000  0.5196870000000 1.0
C      1  0.5155490000000  0.4732520000000  0.4700810000000 1.0
C      1  0.4603460000000  0.4071970000000  0.5312540000000 1.0
C      1  0.4798570000000  0.4257060000000  0.4513850000000 1.0
C      1  0.4870770000000  0.5245170000000  0.5932380000000 1.0
C      1  0.5963880000000  0.4536160000000  0.4998860000000 1.0
C      1  0.5005850000000  0.4459190000000  0.4100400000000 1.0
C      1  0.5626710000000  0.5829880000000  0.4817980000000 1.0
C      1  0.4200730000000  0.5124610000000  0.5685410000000 1.0
C      1  0.5269540000000  0.4863610000000  0.6091800000000 1.0
C      1  0.4925650000000  0.4798950000000  0.4267550000000 1.0
C      1  0.4238930000000  0.5013520000000  0.4399070000000 1.0
C      1  0.4496510000000  0.4948430000000  0.4557470000000 1.0
C      1  0.4202160000000  0.5672290000000  0.5157700000000 1.0
C      1  0.4508100000000  0.4734390000000  0.5068840000000 1.0
C      1  0.5025340000000  0.5324980000000  0.5174980000000 1.0
C      1  0.4912810000000  0.4952650000000  0.5844670000000 1.0
C      1  0.5650640000000  0.5627310000000  0.5271550000000 1.0
C      1  0.4587400000000  0.5228690000000  0.3929110000000 1.0
C      1  0.5441890000000  0.5389390000000  0.4960980000000 1.0
C      1  0.4537900000000  0.4504420000000  0.4213000000000 1.0
END
