TITL C-950531-5884-565 6.40398173460262e-07 125000 -383.940023023304 0 0 63 (C1) n - 1
REM
REM in /home/bkarasulu/work/CARBON/AIRSS/Generating-Clusters/EDIP-Nigel-Params/with-SteepDescent/Only-C1/SD-CG/HFTN-CG
REM
REM
REM
REM
REM
REM ./C.cell (11c1c37f851c82e70ff6c80c92926a4b)
REM
REM compiler GCC version 9.2.1 20190827 (Red Hat 9.2.1-1)
REM options -cpp -mtune=generic -march=x86-64 -g -O0 -fpre-include=/usr/include/finclude/math-vector-fortran.h
REM seed -288857286 534964065 1677804056 -1876998958 190297424 -485819802 2045161428 -155358519 518626580 132433347 -508338791 -1611036727 996329650 209549136 73835514 1885288568 -679556615 -2146051696 -1960891620 1346072741 -1924953442 2074380543 1413114201 -422984662 -1597271039 1797204142 -1813524307 1045708942 372167208 -2038481108 -1277273091 -624872841 -1393088866
REM
CELL 1.54180   50.00000   50.00000   50.00000   90.00000   90.00000   90.00000
LATT -1
SFAC C  
C      1  0.5131130000000  0.4953340000000  0.5745430000000 1.0
C      1  0.5041050000000  0.4611160000000  0.5560400000000 1.0
C      1  0.5826090000000  0.5078550000000  0.4688420000000 1.0
C      1  0.4927570000000  0.5199870000000  0.4868910000000 1.0
C      1  0.4540550000000  0.5631770000000  0.4920740000000 1.0
C      1  0.4790550000000  0.4437000000000  0.5495950000000 1.0
C      1  0.5878000000000  0.5116720000000  0.4963950000000 1.0
C      1  0.5609670000000  0.4862640000000  0.5257000000000 1.0
C      1  0.5165420000000  0.4258470000000  0.5235060000000 1.0
C      1  0.5138760000000  0.5007680000000  0.4988220000000 1.0
C      1  0.5193660000000  0.5601030000000  0.5137010000000 1.0
C      1  0.5610140000000  0.5339240000000  0.5287070000000 1.0
C      1  0.5229890000000  0.4277180000000  0.4939240000000 1.0
C      1  0.5661470000000  0.5319020000000  0.4568910000000 1.0
C      1  0.4725460000000  0.4359710000000  0.5046150000000 1.0
C      1  0.4827540000000  0.5641630000000  0.4522230000000 1.0
C      1  0.5014270000000  0.5314020000000  0.5321160000000 1.0
C      1  0.4331880000000  0.4917120000000  0.5127850000000 1.0
C      1  0.4677770000000  0.4997990000000  0.5543930000000 1.0
C      1  0.5399540000000  0.5514310000000  0.5360800000000 1.0
C      1  0.5134090000000  0.4782840000000  0.4544950000000 1.0
C      1  0.4965010000000  0.5485930000000  0.4328570000000 1.0
C      1  0.5201180000000  0.5075120000000  0.4466750000000 1.0
C      1  0.5023950000000  0.4212210000000  0.4756680000000 1.0
C      1  0.4690710000000  0.5038720000000  0.4720980000000 1.0
C      1  0.5109390000000  0.5036150000000  0.5289400000000 1.0
C      1  0.4850950000000  0.4760400000000  0.4410710000000 1.0
C      1  0.4813750000000  0.5643460000000  0.5051920000000 1.0
C      1  0.5268830000000  0.5194060000000  0.5735800000000 1.0
C      1  0.4829640000000  0.5356470000000  0.5103290000000 1.0
C      1  0.4972130000000  0.4901380000000  0.5518030000000 1.0
C      1  0.4821220000000  0.4327440000000  0.4615720000000 1.0
C      1  0.4830040000000  0.4637150000000  0.4972860000000 1.0
C      1  0.5091290000000  0.4736410000000  0.4865790000000 1.0
C      1  0.5547420000000  0.4912580000000  0.4681510000000 1.0
C      1  0.4572330000000  0.5556510000000  0.4624860000000 1.0
C      1  0.4439850000000  0.4435760000000  0.5126890000000 1.0
C      1  0.4908880000000  0.5401210000000  0.5587850000000 1.0
C      1  0.5071340000000  0.5408890000000  0.4694800000000 1.0
C      1  0.4524160000000  0.4553570000000  0.5394890000000 1.0
C      1  0.5519870000000  0.5360120000000  0.4854530000000 1.0
C      1  0.4391800000000  0.5426800000000  0.5098090000000 1.0
C      1  0.4731250000000  0.5048910000000  0.4404250000000 1.0
C      1  0.4483990000000  0.4845900000000  0.5380940000000 1.0
C      1  0.5471890000000  0.5160120000000  0.4396780000000 1.0
C      1  0.4642290000000  0.5290890000000  0.5564840000000 1.0
C      1  0.5272710000000  0.4497590000000  0.5386460000000 1.0
C      1  0.5473240000000  0.4625620000000  0.4666700000000 1.0
C      1  0.5749010000000  0.5103750000000  0.5215280000000 1.0
C      1  0.5426790000000  0.5067880000000  0.4914780000000 1.0
C      1  0.4305440000000  0.5167610000000  0.4697500000000 1.0
C      1  0.4623620000000  0.4736450000000  0.4795450000000 1.0
C      1  0.4868990000000  0.4240170000000  0.5284310000000 1.0
C      1  0.4681380000000  0.4565720000000  0.4552290000000 1.0
C      1  0.4353570000000  0.5167570000000  0.4973990000000 1.0
C      1  0.5285660000000  0.5544680000000  0.4856100000000 1.0
C      1  0.5329630000000  0.4558830000000  0.4918980000000 1.0
C      1  0.5290220000000  0.5453540000000  0.5629070000000 1.0
C      1  0.4357820000000  0.4676320000000  0.4951290000000 1.0
C      1  0.4977440000000  0.5198210000000  0.4321570000000 1.0
C      1  0.4460050000000  0.5308370000000  0.4508280000000 1.0
C      1  0.5437770000000  0.4647800000000  0.5190320000000 1.0
C      1  0.4479000000000  0.5412380000000  0.5367530000000 1.0
END
