TITL C-951336-9012-9 7.90658040622858e-05 125000 -209.029173341875 0 0 35 (C1) n - 1
REM
REM in /home/bkarasulu/work/CARBON/AIRSS/Generating-Clusters/EDIP-Nigel-Params/with-SteepDescent/Only-C1/SD-CG/HFTN-CG
REM
REM
REM
REM
REM
REM ./C.cell (11c1c37f851c82e70ff6c80c92926a4b)
REM
REM compiler GCC version 9.2.1 20190827 (Red Hat 9.2.1-1)
REM options -cpp -mtune=generic -march=x86-64 -g -O0 -fpre-include=/usr/include/finclude/math-vector-fortran.h
REM seed -239805092 1640618576 -337622210 2100350122 1025700080 -741817786 1363326685 1346050996 689974069 -1900442353 -1114199267 1539256530 -142518926 -934674386 -599008280 1081953754 -1627239871 -1723544224 1159363716 1837966723 -1991930251 1913395941 1696955075 -1679773958 -440551688 1162752863 509250665 -75669272 1803490039 1260228887 -1338782887 150781674 -1957440293
REM
CELL 1.54180   50.00000   50.00000   50.00000   90.00000   90.00000   90.00000
LATT -1
SFAC C  
C      1  0.4916050000000  0.5441910000000  0.5455470000000 1.0
C      1  0.5784150000000  0.4342050000000  0.5215860000000 1.0
C      1  0.4490520000000  0.4904340000000  0.5357970000000 1.0
C      1  0.5100040000000  0.5487810000000  0.4711610000000 1.0
C      1  0.4530000000000  0.5184550000000  0.5370600000000 1.0
C      1  0.4663430000000  0.5371210000000  0.4913990000000 1.0
C      1  0.4478900000000  0.4738840000000  0.5568970000000 1.0
C      1  0.5503120000000  0.4659570000000  0.5016540000000 1.0
C      1  0.4948780000000  0.5430470000000  0.4960450000000 1.0
C      1  0.4728140000000  0.5264880000000  0.5559860000000 1.0
C      1  0.5348340000000  0.5321390000000  0.4692170000000 1.0
C      1  0.4351810000000  0.4816520000000  0.4931970000000 1.0
C      1  0.4325200000000  0.4765900000000  0.5199300000000 1.0
C      1  0.5337320000000  0.5491160000000  0.5246270000000 1.0
C      1  0.5063230000000  0.4385560000000  0.4674310000000 1.0
C      1  0.5143550000000  0.4863370000000  0.4584190000000 1.0
C      1  0.4700810000000  0.4697290000000  0.4618870000000 1.0
C      1  0.4642700000000  0.4830910000000  0.5770820000000 1.0
C      1  0.4934570000000  0.5466880000000  0.4482470000000 1.0
C      1  0.5445420000000  0.4201010000000  0.4924230000000 1.0
C      1  0.4770890000000  0.5070220000000  0.5757200000000 1.0
C      1  0.5060330000000  0.5496220000000  0.5223870000000 1.0
C      1  0.4533560000000  0.4891460000000  0.4734030000000 1.0
C      1  0.5583310000000  0.4399700000000  0.5054370000000 1.0
C      1  0.4801350000000  0.5221130000000  0.4464050000000 1.0
C      1  0.5301140000000  0.5034060000000  0.4767350000000 1.0
C      1  0.5495800000000  0.4927140000000  0.4955290000000 1.0
C      1  0.5232400000000  0.4202270000000  0.4764990000000 1.0
C      1  0.5558780000000  0.5382800000000  0.5115800000000 1.0
C      1  0.5557290000000  0.5441750000000  0.4842490000000 1.0
C      1  0.5597590000000  0.5107210000000  0.5142970000000 1.0
C      1  0.4618850000000  0.5174760000000  0.4692000000000 1.0
C      1  0.4507850000000  0.5332990000000  0.5139700000000 1.0
C      1  0.4971600000000  0.4645580000000  0.4675870000000 1.0
C      1  0.4973190000000  0.5007110000000  0.4414080000000 1.0
END
