TITL C-950526-5686-430 2.04809239083965e-06 125000 -1152.26397029079 0 0 182 (C1) n - 1
REM
REM in /home/bkarasulu/work/CARBON/AIRSS/Generating-Clusters/EDIP-Nigel-Params/with-SteepDescent/Only-C1/SD-CG/HFTN-CG
REM
REM
REM
REM
REM
REM ./C.cell (11c1c37f851c82e70ff6c80c92926a4b)
REM
REM compiler GCC version 9.2.1 20190827 (Red Hat 9.2.1-1)
REM options -cpp -mtune=generic -march=x86-64 -g -O0 -fpre-include=/usr/include/finclude/math-vector-fortran.h
REM seed -1682974997 1904342351 -407036503 -317950849 740185271 -1834381219 -1758769377 -719476858 2025299040 586535186 888811755 426285183 767841105 1012663643 1777318823 919858877 1091769422 979891736 -2055799576 1306740994 545968680 255055520 -656257098 -1034413310 369544738 -145973431 -317257349 -2080805567 1041805430 -1350712812 2051622329 -1475627500 -2036509207
REM
CELL 1.54180   50.00000   50.00000   50.00000   90.00000   90.00000   90.00000
LATT -1
SFAC C  
C      1  0.5402590000000  0.4832880000000  0.6025210000000 1.0
C      1  0.5569520000000  0.5337400000000  0.4858080000000 1.0
C      1  0.5689670000000  0.4939640000000  0.4260420000000 1.0
C      1  0.4897920000000  0.5230720000000  0.5666460000000 1.0
C      1  0.5309160000000  0.4815450000000  0.4802090000000 1.0
C      1  0.5132940000000  0.5087810000000  0.5537880000000 1.0
C      1  0.5909490000000  0.5010080000000  0.4461320000000 1.0
C      1  0.5071460000000  0.5597820000000  0.5963550000000 1.0
C      1  0.4587170000000  0.5327980000000  0.4005210000000 1.0
C      1  0.5372750000000  0.5255240000000  0.5566400000000 1.0
C      1  0.5439940000000  0.5077840000000  0.4141680000000 1.0
C      1  0.4203160000000  0.4375240000000  0.4561300000000 1.0
C      1  0.5005310000000  0.4034940000000  0.4502640000000 1.0
C      1  0.4543840000000  0.5571010000000  0.4151450000000 1.0
C      1  0.4597050000000  0.5482940000000  0.4836810000000 1.0
C      1  0.4052280000000  0.5455200000000  0.4943670000000 1.0
C      1  0.5802290000000  0.4392980000000  0.4965610000000 1.0
C      1  0.3873880000000  0.4781010000000  0.4757780000000 1.0
C      1  0.4689680000000  0.4321510000000  0.5637270000000 1.0
C      1  0.4556290000000  0.4161390000000  0.4257320000000 1.0
C      1  0.5484820000000  0.5397030000000  0.4191610000000 1.0
C      1  0.5219080000000  0.4562370000000  0.4117800000000 1.0
C      1  0.3994610000000  0.5149050000000  0.5345350000000 1.0
C      1  0.4152660000000  0.4945570000000  0.5524290000000 1.0
C      1  0.4154200000000  0.5702690000000  0.4828120000000 1.0
C      1  0.5320360000000  0.4013850000000  0.5314860000000 1.0
C      1  0.4174050000000  0.5711890000000  0.4524060000000 1.0
C      1  0.5495380000000  0.4260960000000  0.5368730000000 1.0
C      1  0.4674940000000  0.5351280000000  0.5141990000000 1.0
C      1  0.4977590000000  0.5850640000000  0.4311440000000 1.0
C      1  0.4196720000000  0.4629940000000  0.4408780000000 1.0
C      1  0.6055510000000  0.4766790000000  0.4519800000000 1.0
C      1  0.4185860000000  0.4601220000000  0.5007770000000 1.0
C      1  0.4982740000000  0.5498990000000  0.4441510000000 1.0
C      1  0.4526440000000  0.5908270000000  0.5599980000000 1.0
C      1  0.4537620000000  0.5895570000000  0.5112040000000 1.0
C      1  0.5080060000000  0.4606350000000  0.5424520000000 1.0
C      1  0.5519720000000  0.5859480000000  0.4436680000000 1.0
C      1  0.3804340000000  0.5027280000000  0.4882920000000 1.0
C      1  0.5402590000000  0.4382360000000  0.4548900000000 1.0
C      1  0.4609700000000  0.3766020000000  0.4661020000000 1.0
C      1  0.5762020000000  0.5697590000000  0.5366150000000 1.0
C      1  0.5935370000000  0.4480350000000  0.5434590000000 1.0
C      1  0.4526920000000  0.5511400000000  0.5798330000000 1.0
C      1  0.5042180000000  0.4031720000000  0.5417140000000 1.0
C      1  0.4512260000000  0.5083430000000  0.5153290000000 1.0
C      1  0.4496170000000  0.4200410000000  0.5451900000000 1.0
C      1  0.4088380000000  0.5399720000000  0.5230060000000 1.0
C      1  0.4522740000000  0.5067620000000  0.5944300000000 1.0
C      1  0.5426120000000  0.3929020000000  0.4763930000000 1.0
C      1  0.5243200000000  0.4146870000000  0.4647260000000 1.0
C      1  0.5193200000000  0.4369360000000  0.5776770000000 1.0
C      1  0.5876770000000  0.4180910000000  0.4772570000000 1.0
C      1  0.4613370000000  0.4592200000000  0.5746100000000 1.0
C      1  0.4732690000000  0.4908010000000  0.6092110000000 1.0
C      1  0.4780540000000  0.4473610000000  0.4556800000000 1.0
C      1  0.4960900000000  0.5191700000000  0.4317800000000 1.0
C      1  0.5191080000000  0.5791310000000  0.4777540000000 1.0
C      1  0.4405730000000  0.4872480000000  0.5352240000000 1.0
C      1  0.4409610000000  0.5040190000000  0.4669810000000 1.0
C      1  0.5937860000000  0.5099460000000  0.5519480000000 1.0
C      1  0.5085150000000  0.6068060000000  0.4670410000000 1.0
C      1  0.6034510000000  0.4697040000000  0.5248450000000 1.0
C      1  0.5699090000000  0.3970770000000  0.4772280000000 1.0
C      1  0.5103790000000  0.4600920000000  0.5953470000000 1.0
C      1  0.4319370000000  0.4625730000000  0.5821360000000 1.0
C      1  0.6077600000000  0.4995700000000  0.5271950000000 1.0
C      1  0.5024130000000  0.4761980000000  0.4785470000000 1.0
C      1  0.4434830000000  0.3980510000000  0.4700820000000 1.0
C      1  0.4633530000000  0.5102150000000  0.5659680000000 1.0
C      1  0.4399560000000  0.4128870000000  0.4950060000000 1.0
C      1  0.4764850000000  0.4726000000000  0.4427090000000 1.0
C      1  0.6019960000000  0.4596440000000  0.4979520000000 1.0
C      1  0.5315430000000  0.6020300000000  0.5196170000000 1.0
C      1  0.5636870000000  0.5571700000000  0.4415700000000 1.0
C      1  0.4752440000000  0.5011770000000  0.4479530000000 1.0
C      1  0.4852280000000  0.5004810000000  0.4770020000000 1.0
C      1  0.4864240000000  0.3874160000000  0.4707240000000 1.0
C      1  0.5185850000000  0.4800620000000  0.5634790000000 1.0
C      1  0.4840070000000  0.4248100000000  0.4362230000000 1.0
C      1  0.3915380000000  0.4683420000000  0.5141830000000 1.0
C      1  0.5070100000000  0.5043850000000  0.5247090000000 1.0
C      1  0.4294480000000  0.5460770000000  0.4415600000000 1.0
C      1  0.4453130000000  0.5753900000000  0.4864390000000 1.0
C      1  0.5448600000000  0.4478770000000  0.4273230000000 1.0
C      1  0.4991540000000  0.5854350000000  0.5829890000000 1.0
C      1  0.4266920000000  0.5537360000000  0.5411010000000 1.0
C      1  0.4351430000000  0.5364740000000  0.5624700000000 1.0
C      1  0.5472140000000  0.4408670000000  0.5645510000000 1.0
C      1  0.4843340000000  0.6135460000000  0.4817140000000 1.0
C      1  0.5924630000000  0.5458110000000  0.5388810000000 1.0
C      1  0.5685930000000  0.4836960000000  0.5376940000000 1.0
C      1  0.4206460000000  0.4348940000000  0.4857760000000 1.0
C      1  0.5271890000000  0.5525700000000  0.4551020000000 1.0
C      1  0.5125920000000  0.4267660000000  0.4911860000000 1.0
C      1  0.5357430000000  0.5038650000000  0.4605230000000 1.0
C      1  0.5917220000000  0.4542280000000  0.4409430000000 1.0
C      1  0.5546650000000  0.5985440000000  0.5006440000000 1.0
C      1  0.5974510000000  0.5227900000000  0.4647050000000 1.0
C      1  0.5999870000000  0.5164520000000  0.5015150000000 1.0
C      1  0.5010950000000  0.5270560000000  0.4840710000000 1.0
C      1  0.4973720000000  0.5148760000000  0.3769450000000 1.0
C      1  0.4477960000000  0.4846740000000  0.3999230000000 1.0
C      1  0.5167580000000  0.6006230000000  0.5670750000000 1.0
C      1  0.4038140000000  0.4852050000000  0.4527450000000 1.0
C      1  0.6156010000000  0.4722100000000  0.4772670000000 1.0
C      1  0.5945000000000  0.4286800000000  0.4523680000000 1.0
C      1  0.4796460000000  0.5525250000000  0.5650950000000 1.0
C      1  0.4468170000000  0.5321260000000  0.4618230000000 1.0
C      1  0.5711130000000  0.5759890000000  0.5088860000000 1.0
C      1  0.4484400000000  0.5747540000000  0.5366970000000 1.0
C      1  0.5327800000000  0.5511170000000  0.5443920000000 1.0
C      1  0.5276140000000  0.5847430000000  0.4247190000000 1.0
C      1  0.5529570000000  0.5256530000000  0.5824340000000 1.0
C      1  0.5702400000000  0.5117410000000  0.4980220000000 1.0
C      1  0.4284870000000  0.4384860000000  0.5385590000000 1.0
C      1  0.5000190000000  0.4884610000000  0.3835950000000 1.0
C      1  0.4979780000000  0.4266830000000  0.5587510000000 1.0
C      1  0.5753690000000  0.5458980000000  0.5829050000000 1.0
C      1  0.4256170000000  0.4919020000000  0.5840840000000 1.0
C      1  0.4577140000000  0.4083070000000  0.5197110000000 1.0
C      1  0.6029730000000  0.5446400000000  0.5113860000000 1.0
C      1  0.4805220000000  0.4654960000000  0.5972200000000 1.0
C      1  0.4476730000000  0.5916100000000  0.4613860000000 1.0
C      1  0.5131600000000  0.5546500000000  0.5229820000000 1.0
C      1  0.5306540000000  0.5290930000000  0.4734310000000 1.0
C      1  0.4983960000000  0.4375450000000  0.4114920000000 1.0
C      1  0.4345110000000  0.4132930000000  0.4467470000000 1.0
C      1  0.4338700000000  0.4626940000000  0.4144440000000 1.0
C      1  0.4411870000000  0.5115360000000  0.4015720000000 1.0
C      1  0.5515540000000  0.5725550000000  0.5533660000000 1.0
C      1  0.4747030000000  0.4753620000000  0.3913700000000 1.0
C      1  0.4494730000000  0.4379640000000  0.4062370000000 1.0
C      1  0.4957050000000  0.5088230000000  0.6150840000000 1.0
C      1  0.4980900000000  0.3857610000000  0.4978400000000 1.0
C      1  0.5368270000000  0.4411770000000  0.5032290000000 1.0
C      1  0.5854960000000  0.4885950000000  0.5757270000000 1.0
C      1  0.5271500000000  0.5586080000000  0.4112100000000 1.0
C      1  0.5267190000000  0.3918950000000  0.5026440000000 1.0
C      1  0.4644010000000  0.4819520000000  0.5529390000000 1.0
C      1  0.3831070000000  0.4983400000000  0.5165450000000 1.0
C      1  0.4840320000000  0.4737800000000  0.5305680000000 1.0
C      1  0.4758350000000  0.4467060000000  0.3948940000000 1.0
C      1  0.5107480000000  0.5817950000000  0.5087820000000 1.0
C      1  0.5379830000000  0.5986570000000  0.5488380000000 1.0
C      1  0.5210370000000  0.4972830000000  0.6164060000000 1.0
C      1  0.5827860000000  0.4571590000000  0.5698120000000 1.0
C      1  0.5252180000000  0.4812530000000  0.3964520000000 1.0
C      1  0.4708880000000  0.5568890000000  0.5362210000000 1.0
C      1  0.4718590000000  0.5907990000000  0.5793540000000 1.0
C      1  0.5903150000000  0.5634210000000  0.4912000000000 1.0
C      1  0.4879010000000  0.5273620000000  0.4011920000000 1.0
C      1  0.5623470000000  0.4990800000000  0.5921540000000 1.0
C      1  0.4703110000000  0.4566370000000  0.5090280000000 1.0
C      1  0.4136270000000  0.4495220000000  0.5616680000000 1.0
C      1  0.5436580000000  0.5986880000000  0.4714120000000 1.0
C      1  0.5222950000000  0.5032830000000  0.4344630000000 1.0
C      1  0.4999990000000  0.5538890000000  0.4000230000000 1.0
C      1  0.4798760000000  0.5723730000000  0.4113220000000 1.0
C      1  0.4823980000000  0.5976380000000  0.5065320000000 1.0
C      1  0.4884930000000  0.5374730000000  0.6086430000000 1.0
C      1  0.5576740000000  0.5688610000000  0.5831710000000 1.0
C      1  0.5357460000000  0.5565080000000  0.5991120000000 1.0
C      1  0.5693650000000  0.4643820000000  0.4250930000000 1.0
C      1  0.4896560000000  0.4495990000000  0.4842070000000 1.0
C      1  0.4981040000000  0.5304240000000  0.5128110000000 1.0
C      1  0.4578710000000  0.4946630000000  0.4902250000000 1.0
C      1  0.5783370000000  0.5457150000000  0.4689880000000 1.0
C      1  0.4864200000000  0.5498350000000  0.4719870000000 1.0
C      1  0.5480650000000  0.4721130000000  0.5607180000000 1.0
C      1  0.4583180000000  0.5360790000000  0.6039790000000 1.0
C      1  0.5290440000000  0.4623270000000  0.5221900000000 1.0
C      1  0.5552630000000  0.5003770000000  0.5186680000000 1.0
C      1  0.3978890000000  0.4703780000000  0.5475500000000 1.0
C      1  0.5495530000000  0.4549170000000  0.4783290000000 1.0
C      1  0.4397240000000  0.4599740000000  0.5205180000000 1.0
C      1  0.4072340000000  0.5161550000000  0.4516100000000 1.0
C      1  0.5303310000000  0.4892950000000  0.5107330000000 1.0
C      1  0.4609260000000  0.6155210000000  0.4662600000000 1.0
C      1  0.4839630000000  0.3949850000000  0.5214410000000 1.0
C      1  0.5773930000000  0.4296540000000  0.5258890000000 1.0
C      1  0.3922600000000  0.5265340000000  0.4757610000000 1.0
END
