TITL C-950533-5798-672 -1.48251332413831e-06 125000 -660.922844573089 0 0 106 (C1) n - 1
REM
REM in /home/bkarasulu/work/CARBON/AIRSS/Generating-Clusters/EDIP-Nigel-Params/with-SteepDescent/Only-C1/SD-CG/HFTN-CG
REM
REM
REM
REM
REM
REM ./C.cell (11c1c37f851c82e70ff6c80c92926a4b)
REM
REM compiler GCC version 9.2.1 20190827 (Red Hat 9.2.1-1)
REM options -cpp -mtune=generic -march=x86-64 -g -O0 -fpre-include=/usr/include/finclude/math-vector-fortran.h
REM seed -1246045979 704405336 -1637290815 973888242 1281400319 -227901878 1040015994 1895494770 -923550932 -356437608 1846235064 1795178682 1658297907 1066727339 884173063 660184834 -1039095918 -914998285 985301466 -1945656300 -1918242628 1694542183 -540087440 -607606989 580215315 1250179978 1561584692 -1678426952 61021956 1995714094 792394206 -1155212238 -2146376228
REM
CELL 1.54180   50.00000   50.00000   50.00000   90.00000   90.00000   90.00000
LATT -1
SFAC C  
C      1  0.5466050000000  0.5434190000000  0.4392950000000 1.0
C      1  0.5289230000000  0.4440220000000  0.5348050000000 1.0
C      1  0.4474750000000  0.4557560000000  0.4434560000000 1.0
C      1  0.5251750000000  0.4571840000000  0.4554990000000 1.0
C      1  0.4860460000000  0.5832000000000  0.5361060000000 1.0
C      1  0.5435000000000  0.4912780000000  0.4206620000000 1.0
C      1  0.4985120000000  0.5497640000000  0.4290430000000 1.0
C      1  0.4945380000000  0.4919860000000  0.4207310000000 1.0
C      1  0.4606700000000  0.4921720000000  0.4815240000000 1.0
C      1  0.4935810000000  0.4126300000000  0.5335250000000 1.0
C      1  0.5799460000000  0.5042520000000  0.5171530000000 1.0
C      1  0.4136520000000  0.5334410000000  0.4868870000000 1.0
C      1  0.4736800000000  0.5014830000000  0.5789050000000 1.0
C      1  0.4714270000000  0.4504220000000  0.5060470000000 1.0
C      1  0.4624820000000  0.5388580000000  0.4773950000000 1.0
C      1  0.5381550000000  0.5697660000000  0.4494100000000 1.0
C      1  0.4972730000000  0.4878520000000  0.5699940000000 1.0
C      1  0.4575690000000  0.5671530000000  0.4683900000000 1.0
C      1  0.5721390000000  0.4534450000000  0.5614060000000 1.0
C      1  0.5391880000000  0.4115110000000  0.4734730000000 1.0
C      1  0.4223130000000  0.4916650000000  0.5151000000000 1.0
C      1  0.4381710000000  0.5754890000000  0.4881790000000 1.0
C      1  0.5426780000000  0.4821980000000  0.4914770000000 1.0
C      1  0.5481010000000  0.4967780000000  0.4499560000000 1.0
C      1  0.5821900000000  0.5092150000000  0.5456460000000 1.0
C      1  0.5062030000000  0.5702390000000  0.4494420000000 1.0
C      1  0.5289350000000  0.4953840000000  0.5341180000000 1.0
C      1  0.4705870000000  0.5417140000000  0.5084350000000 1.0
C      1  0.4435410000000  0.5427690000000  0.5244250000000 1.0
C      1  0.4447170000000  0.4723870000000  0.5002800000000 1.0
C      1  0.4867360000000  0.5918860000000  0.4911940000000 1.0
C      1  0.4991860000000  0.4525560000000  0.4406470000000 1.0
C      1  0.5044930000000  0.5123770000000  0.5409610000000 1.0
C      1  0.5671650000000  0.5487050000000  0.5048980000000 1.0
C      1  0.4479920000000  0.4673210000000  0.5546960000000 1.0
C      1  0.5592850000000  0.5237550000000  0.4593690000000 1.0
C      1  0.4695950000000  0.4493820000000  0.5564700000000 1.0
C      1  0.4310800000000  0.5131400000000  0.5616370000000 1.0
C      1  0.4224920000000  0.4541180000000  0.4583190000000 1.0
C      1  0.4713050000000  0.5305460000000  0.5824560000000 1.0
C      1  0.5518180000000  0.4585400000000  0.4386980000000 1.0
C      1  0.4442630000000  0.4967640000000  0.4274650000000 1.0
C      1  0.4062030000000  0.4726040000000  0.5305490000000 1.0
C      1  0.5898580000000  0.4873410000000  0.4539460000000 1.0
C      1  0.5172270000000  0.4696120000000  0.5254410000000 1.0
C      1  0.4522470000000  0.4125440000000  0.4848280000000 1.0
C      1  0.4473880000000  0.4905190000000  0.5717410000000 1.0
C      1  0.5406300000000  0.5228380000000  0.5701760000000 1.0
C      1  0.5284850000000  0.5544680000000  0.5357210000000 1.0
C      1  0.5486750000000  0.5291030000000  0.4899320000000 1.0
C      1  0.4052620000000  0.5036050000000  0.4923920000000 1.0
C      1  0.4334690000000  0.5147410000000  0.5322260000000 1.0
C      1  0.5770410000000  0.4518370000000  0.5126860000000 1.0
C      1  0.4946080000000  0.4587110000000  0.5677730000000 1.0
C      1  0.5041090000000  0.4127350000000  0.5599460000000 1.0
C      1  0.4246510000000  0.4529880000000  0.4873960000000 1.0
C      1  0.5636310000000  0.4620640000000  0.4864440000000 1.0
C      1  0.4262230000000  0.4552280000000  0.5404260000000 1.0
C      1  0.4313660000000  0.4259030000000  0.4986000000000 1.0
C      1  0.5295440000000  0.4050550000000  0.4985150000000 1.0
C      1  0.5749880000000  0.4635280000000  0.4579480000000 1.0
C      1  0.5565330000000  0.5488350000000  0.5333060000000 1.0
C      1  0.5255600000000  0.4869650000000  0.4680610000000 1.0
C      1  0.4724880000000  0.4316700000000  0.4822360000000 1.0
C      1  0.5605800000000  0.5764670000000  0.4927860000000 1.0
C      1  0.5210580000000  0.5384560000000  0.4885330000000 1.0
C      1  0.4092770000000  0.4888670000000  0.4661670000000 1.0
C      1  0.5180670000000  0.5618800000000  0.5089590000000 1.0
C      1  0.4893030000000  0.5707760000000  0.5109200000000 1.0
C      1  0.4861900000000  0.5172220000000  0.5170570000000 1.0
C      1  0.4375490000000  0.4299630000000  0.5275860000000 1.0
C      1  0.4246650000000  0.5559430000000  0.5047280000000 1.0
C      1  0.5160350000000  0.4385340000000  0.5617530000000 1.0
C      1  0.5497200000000  0.5044140000000  0.5090460000000 1.0
C      1  0.5878780000000  0.5152000000000  0.4578840000000 1.0
C      1  0.5591300000000  0.5802180000000  0.4652440000000 1.0
C      1  0.4360620000000  0.5264670000000  0.4698920000000 1.0
C      1  0.5159620000000  0.4228100000000  0.5167100000000 1.0
C      1  0.5111700000000  0.5196030000000  0.4650160000000 1.0
C      1  0.4676280000000  0.4805960000000  0.4533790000000 1.0
C      1  0.4830820000000  0.5819470000000  0.4655530000000 1.0
C      1  0.4738220000000  0.5341940000000  0.4343960000000 1.0
C      1  0.4950720000000  0.4645610000000  0.4156500000000 1.0
C      1  0.5649120000000  0.5301630000000  0.5542200000000 1.0
C      1  0.4688970000000  0.4320310000000  0.5322570000000 1.0
C      1  0.5624890000000  0.4774500000000  0.5691700000000 1.0
C      1  0.5159040000000  0.5364210000000  0.5558230000000 1.0
C      1  0.5911120000000  0.4774570000000  0.5091360000000 1.0
C      1  0.4699190000000  0.5086000000000  0.4196790000000 1.0
C      1  0.4739190000000  0.4423800000000  0.4540250000000 1.0
C      1  0.5352720000000  0.5841970000000  0.5023100000000 1.0
C      1  0.4747350000000  0.5686900000000  0.5566450000000 1.0
C      1  0.5404660000000  0.4938860000000  0.5627930000000 1.0
C      1  0.4941770000000  0.4699400000000  0.5075050000000 1.0
C      1  0.4474040000000  0.5580260000000  0.5513090000000 1.0
C      1  0.5197950000000  0.5297740000000  0.4361250000000 1.0
C      1  0.4918010000000  0.5490100000000  0.5711050000000 1.0
C      1  0.4806540000000  0.5201480000000  0.4609280000000 1.0
C      1  0.6026470000000  0.5256800000000  0.4786720000000 1.0
C      1  0.4434430000000  0.5382260000000  0.5733320000000 1.0
C      1  0.5194120000000  0.5063890000000  0.4177190000000 1.0
C      1  0.5919730000000  0.5296080000000  0.5038590000000 1.0
C      1  0.5299010000000  0.4373400000000  0.4772770000000 1.0
C      1  0.5600050000000  0.4474800000000  0.5366950000000 1.0
C      1  0.4300370000000  0.5039120000000  0.4522890000000 1.0
C      1  0.4853050000000  0.4956550000000  0.4980080000000 1.0
END
