TITL C-950535-5962-734 -2.47306799718926e-07 125000 -541.146582234371 0 0 88 (C1) n - 1
REM
REM in /home/bkarasulu/work/CARBON/AIRSS/Generating-Clusters/EDIP-Nigel-Params/with-SteepDescent/Only-C1/SD-CG/HFTN-CG
REM
REM
REM
REM
REM
REM ./C.cell (11c1c37f851c82e70ff6c80c92926a4b)
REM
REM compiler GCC version 9.2.1 20190827 (Red Hat 9.2.1-1)
REM options -cpp -mtune=generic -march=x86-64 -g -O0 -fpre-include=/usr/include/finclude/math-vector-fortran.h
REM seed -991504209 2092581247 2000370938 1690026160 -1141657828 80341923 -281580295 -1637336435 1720286634 -806167914 2006159377 1087918567 159833537 -150927844 213472315 1013879802 -1107096194 1942272409 -473742589 1992267387 -1962464614 281182161 1654375719 1642622913 -2036364398 261576287 1722869387 -991962559 -1016824752 1027534170 2104192854 1598581451 1296663579
REM
CELL 1.54180   50.00000   50.00000   50.00000   90.00000   90.00000   90.00000
LATT -1
SFAC C  
C      1  0.4621720000000  0.5530750000000  0.5674610000000 1.0
C      1  0.5691520000000  0.5546220000000  0.4793080000000 1.0
C      1  0.5683380000000  0.4999140000000  0.5483210000000 1.0
C      1  0.4937710000000  0.5445390000000  0.4838430000000 1.0
C      1  0.5200780000000  0.4869710000000  0.4823100000000 1.0
C      1  0.4868050000000  0.5631560000000  0.5609790000000 1.0
C      1  0.4991640000000  0.4745680000000  0.4198990000000 1.0
C      1  0.5644060000000  0.5291980000000  0.5526920000000 1.0
C      1  0.5401580000000  0.5637210000000  0.4817940000000 1.0
C      1  0.5128180000000  0.4653190000000  0.5044130000000 1.0
C      1  0.5438570000000  0.4456210000000  0.4641730000000 1.0
C      1  0.5319180000000  0.5798910000000  0.5064470000000 1.0
C      1  0.4725830000000  0.5095250000000  0.4266930000000 1.0
C      1  0.5235070000000  0.5367770000000  0.4835970000000 1.0
C      1  0.4410450000000  0.4841460000000  0.5489630000000 1.0
C      1  0.5001130000000  0.5494890000000  0.5396770000000 1.0
C      1  0.5196210000000  0.5162720000000  0.4333830000000 1.0
C      1  0.5659250000000  0.5100620000000  0.4934630000000 1.0
C      1  0.5024530000000  0.4332340000000  0.4461440000000 1.0
C      1  0.4476490000000  0.5112350000000  0.5395450000000 1.0
C      1  0.5392420000000  0.5360020000000  0.5683260000000 1.0
C      1  0.4198470000000  0.4714380000000  0.5350910000000 1.0
C      1  0.5898660000000  0.4912850000000  0.5323320000000 1.0
C      1  0.4424490000000  0.5365490000000  0.4538360000000 1.0
C      1  0.5194770000000  0.4295090000000  0.4678370000000 1.0
C      1  0.5619830000000  0.4512040000000  0.5204680000000 1.0
C      1  0.5226850000000  0.5122610000000  0.5800860000000 1.0
C      1  0.5237750000000  0.4467890000000  0.5515950000000 1.0
C      1  0.4522280000000  0.5630260000000  0.4596410000000 1.0
C      1  0.5174310000000  0.4619370000000  0.5748800000000 1.0
C      1  0.4131920000000  0.4903750000000  0.5147790000000 1.0
C      1  0.4893240000000  0.5743190000000  0.4893870000000 1.0
C      1  0.5323340000000  0.4859150000000  0.5706390000000 1.0
C      1  0.4412410000000  0.4403760000000  0.5116890000000 1.0
C      1  0.4597120000000  0.4723300000000  0.5674650000000 1.0
C      1  0.5635020000000  0.5466000000000  0.5283020000000 1.0
C      1  0.5054910000000  0.4251570000000  0.5424920000000 1.0
C      1  0.5136170000000  0.4160570000000  0.5147590000000 1.0
C      1  0.4716320000000  0.4851370000000  0.4855900000000 1.0
C      1  0.4988360000000  0.5194500000000  0.5390560000000 1.0
C      1  0.4588690000000  0.5732280000000  0.4870640000000 1.0
C      1  0.5017040000000  0.5648640000000  0.4416770000000 1.0
C      1  0.4828460000000  0.4737000000000  0.5115900000000 1.0
C      1  0.5435580000000  0.5684010000000  0.5310320000000 1.0
C      1  0.5358630000000  0.4623400000000  0.5289880000000 1.0
C      1  0.5067900000000  0.4366270000000  0.4940400000000 1.0
C      1  0.4868780000000  0.4527630000000  0.4345830000000 1.0
C      1  0.4697100000000  0.4449970000000  0.5163820000000 1.0
C      1  0.4957550000000  0.5115240000000  0.5683720000000 1.0
C      1  0.4392950000000  0.5207660000000  0.4773250000000 1.0
C      1  0.4062220000000  0.4624470000000  0.4729820000000 1.0
C      1  0.4927270000000  0.5164610000000  0.4463550000000 1.0
C      1  0.4136450000000  0.4859040000000  0.4860440000000 1.0
C      1  0.4709160000000  0.5275220000000  0.4979320000000 1.0
C      1  0.5676670000000  0.5358340000000  0.4550830000000 1.0
C      1  0.5049910000000  0.5884040000000  0.5081560000000 1.0
C      1  0.4473760000000  0.4414300000000  0.4850250000000 1.0
C      1  0.4798020000000  0.4895880000000  0.5754590000000 1.0
C      1  0.5281840000000  0.5648560000000  0.4496900000000 1.0
C      1  0.4518120000000  0.5513810000000  0.5067240000000 1.0
C      1  0.5409500000000  0.4097380000000  0.5124060000000 1.0
C      1  0.5599400000000  0.4889100000000  0.4487300000000 1.0
C      1  0.5364980000000  0.4744480000000  0.4587730000000 1.0
C      1  0.4494260000000  0.5305380000000  0.5606550000000 1.0
C      1  0.4391710000000  0.4725870000000  0.4360390000000 1.0
C      1  0.4857640000000  0.5451740000000  0.4550570000000 1.0
C      1  0.4232030000000  0.5167110000000  0.5225110000000 1.0
C      1  0.5651990000000  0.4404520000000  0.4831090000000 1.0
C      1  0.4277740000000  0.5351670000000  0.4999600000000 1.0
C      1  0.4502100000000  0.4676700000000  0.4723810000000 1.0
C      1  0.5258680000000  0.4871780000000  0.4294340000000 1.0
C      1  0.5407170000000  0.4894830000000  0.5425680000000 1.0
C      1  0.4938730000000  0.4967100000000  0.4704300000000 1.0
C      1  0.5249670000000  0.5602100000000  0.5541270000000 1.0
C      1  0.5639140000000  0.4251640000000  0.5079380000000 1.0
C      1  0.5336380000000  0.5105900000000  0.4972690000000 1.0
C      1  0.4766870000000  0.4325910000000  0.5428090000000 1.0
C      1  0.4804290000000  0.4914270000000  0.4070030000000 1.0
C      1  0.5754480000000  0.5374670000000  0.5025900000000 1.0
C      1  0.5381910000000  0.5362790000000  0.4470170000000 1.0
C      1  0.5246240000000  0.5087820000000  0.5265280000000 1.0
C      1  0.4585240000000  0.4518320000000  0.4381970000000 1.0
C      1  0.5802740000000  0.4893790000000  0.5071660000000 1.0
C      1  0.4487140000000  0.5234750000000  0.4298050000000 1.0
C      1  0.4139360000000  0.4748210000000  0.4491510000000 1.0
C      1  0.4662340000000  0.4454350000000  0.5654310000000 1.0
C      1  0.4747350000000  0.5089820000000  0.5226750000000 1.0
C      1  0.5730850000000  0.5087100000000  0.4643850000000 1.0
END
