TITL C-951345-2650-230 -5.02248274114403e-07 125000 -313.827233322913 0 0 53 (C1) n - 1
REM
REM in /home/bkarasulu/work/CARBON/AIRSS/Generating-Clusters/EDIP-Nigel-Params/with-SteepDescent/Only-C1/SD-CG/HFTN-CG
REM
REM
REM
REM
REM
REM ./C.cell (11c1c37f851c82e70ff6c80c92926a4b)
REM
REM compiler GCC version 9.2.1 20190827 (Red Hat 9.2.1-1)
REM options -cpp -mtune=generic -march=x86-64 -g -O0 -fpre-include=/usr/include/finclude/math-vector-fortran.h
REM seed 758389791 -620532269 -1083862780 -335598230 -1729941523 1639510670 1657854383 -24258170 1475382947 -1512806724 -1924938764 1491024152 1245611033 1117833314 1800912031 1142246732 2133481643 1265089617 -438301284 384226653 1779160207 1380926665 1357835317 -1100279021 1937140609 -1166343505 -1201554676 294643700 680791772 -1824467990 -2072314066 -1140304723 -2001317129
REM
CELL 1.54180   50.00000   50.00000   50.00000   90.00000   90.00000   90.00000
LATT -1
SFAC C  
C      1  0.5693620000000  0.4705020000000  0.4971970000000 1.0
C      1  0.5390790000000  0.4349460000000  0.4856370000000 1.0
C      1  0.4802740000000  0.5321740000000  0.4857620000000 1.0
C      1  0.5749720000000  0.5075280000000  0.5014770000000 1.0
C      1  0.4351670000000  0.5095020000000  0.5510320000000 1.0
C      1  0.5324160000000  0.4801930000000  0.5039920000000 1.0
C      1  0.4714870000000  0.5394790000000  0.5447560000000 1.0
C      1  0.4754710000000  0.4957200000000  0.4550770000000 1.0
C      1  0.5536900000000  0.4574570000000  0.4727060000000 1.0
C      1  0.4382420000000  0.5473050000000  0.5059790000000 1.0
C      1  0.4501790000000  0.5359970000000  0.4831920000000 1.0
C      1  0.4934600000000  0.4600160000000  0.5011800000000 1.0
C      1  0.4466050000000  0.4646050000000  0.4668040000000 1.0
C      1  0.5142780000000  0.5475030000000  0.5168460000000 1.0
C      1  0.5148160000000  0.5298450000000  0.5634850000000 1.0
C      1  0.5113550000000  0.4608720000000  0.4424560000000 1.0
C      1  0.4775810000000  0.4961530000000  0.5685570000000 1.0
C      1  0.4227970000000  0.5024710000000  0.5280620000000 1.0
C      1  0.4845810000000  0.4740600000000  0.4367630000000 1.0
C      1  0.4665050000000  0.4529350000000  0.4492840000000 1.0
C      1  0.4982510000000  0.4379520000000  0.4574570000000 1.0
C      1  0.5324150000000  0.5377480000000  0.4507070000000 1.0
C      1  0.5063790000000  0.5323290000000  0.4410530000000 1.0
C      1  0.4522940000000  0.5093600000000  0.4438150000000 1.0
C      1  0.4534180000000  0.5526830000000  0.5277630000000 1.0
C      1  0.5228850000000  0.4965880000000  0.4759960000000 1.0
C      1  0.5325890000000  0.5581260000000  0.4722970000000 1.0
C      1  0.5322450000000  0.5082250000000  0.5645390000000 1.0
C      1  0.5250310000000  0.4801420000000  0.5646270000000 1.0
C      1  0.5125610000000  0.5183810000000  0.5131910000000 1.0
C      1  0.5005400000000  0.5461820000000  0.5454580000000 1.0
C      1  0.4609480000000  0.5162980000000  0.5589490000000 1.0
C      1  0.5653050000000  0.4721080000000  0.5327340000000 1.0
C      1  0.5465850000000  0.5488530000000  0.4962330000000 1.0
C      1  0.4371460000000  0.5140070000000  0.4671330000000 1.0
C      1  0.4960720000000  0.5156290000000  0.4626760000000 1.0
C      1  0.5071690000000  0.4370420000000  0.4860690000000 1.0
C      1  0.5460770000000  0.5135180000000  0.4622870000000 1.0
C      1  0.5349950000000  0.4763060000000  0.4562710000000 1.0
C      1  0.4338900000000  0.4871100000000  0.4800490000000 1.0
C      1  0.4973390000000  0.4778450000000  0.5675240000000 1.0
C      1  0.5344200000000  0.4491280000000  0.5118540000000 1.0
C      1  0.5415700000000  0.4625580000000  0.5475180000000 1.0
C      1  0.4483560000000  0.4638110000000  0.5177830000000 1.0
C      1  0.4350580000000  0.4861480000000  0.5090260000000 1.0
C      1  0.5612650000000  0.5262370000000  0.4846950000000 1.0
C      1  0.5633200000000  0.5018210000000  0.5271800000000 1.0
C      1  0.4756850000000  0.4830080000000  0.4921260000000 1.0
C      1  0.5321970000000  0.5006720000000  0.5270530000000 1.0
C      1  0.5081560000000  0.5717470000000  0.4759700000000 1.0
C      1  0.4853980000000  0.5092610000000  0.5052520000000 1.0
C      1  0.4950330000000  0.5569370000000  0.4958010000000 1.0
C      1  0.4730900000000  0.4529780000000  0.5186740000000 1.0
END
