TITL C-951333-8791-161 8.16223568855832e-08 125000 -397.915870432711 0 0 65 (C1) n - 1
REM
REM in /home/bkarasulu/work/CARBON/AIRSS/Generating-Clusters/EDIP-Nigel-Params/with-SteepDescent/Only-C1/SD-CG/HFTN-CG
REM
REM
REM
REM
REM
REM ./C.cell (11c1c37f851c82e70ff6c80c92926a4b)
REM
REM compiler GCC version 9.2.1 20190827 (Red Hat 9.2.1-1)
REM options -cpp -mtune=generic -march=x86-64 -g -O0 -fpre-include=/usr/include/finclude/math-vector-fortran.h
REM seed 1439111456 1667411904 -327085188 -1364404231 667423090 -2054038047 -496493282 -1818554110 1731040945 1740533365 -951403907 -1372186432 532847134 -1858774540 -32533856 1573189447 -1897826009 973618306 -907880112 -1563659359 -722751768 -1979347084 327889290 94859320 -1829754216 -349908868 -1637341256 -1018744891 155286274 2061556170 930033745 1436958692 290705709
REM
CELL 1.54180   50.00000   50.00000   50.00000   90.00000   90.00000   90.00000
LATT -1
SFAC C  
C      1  0.4417430000000  0.4432050000000  0.4870890000000 1.0
C      1  0.5242810000000  0.4708090000000  0.4765990000000 1.0
C      1  0.5151510000000  0.4811740000000  0.5525250000000 1.0
C      1  0.4347200000000  0.5505770000000  0.5053840000000 1.0
C      1  0.4705840000000  0.4558620000000  0.4441950000000 1.0
C      1  0.5038230000000  0.5090490000000  0.5497550000000 1.0
C      1  0.5696990000000  0.4833700000000  0.4908490000000 1.0
C      1  0.5255680000000  0.5536210000000  0.5410470000000 1.0
C      1  0.5251060000000  0.4716160000000  0.4303620000000 1.0
C      1  0.4318160000000  0.4686050000000  0.4943990000000 1.0
C      1  0.4875710000000  0.4340240000000  0.4830870000000 1.0
C      1  0.5176440000000  0.5149550000000  0.4330590000000 1.0
C      1  0.5342190000000  0.4719490000000  0.5287360000000 1.0
C      1  0.5093840000000  0.4337310000000  0.5278750000000 1.0
C      1  0.5469790000000  0.5676550000000  0.5195860000000 1.0
C      1  0.4696310000000  0.4776170000000  0.5693790000000 1.0
C      1  0.4882260000000  0.4478850000000  0.5098560000000 1.0
C      1  0.5696690000000  0.5090070000000  0.4763490000000 1.0
C      1  0.4228320000000  0.5061350000000  0.5197910000000 1.0
C      1  0.5355750000000  0.4434030000000  0.5284420000000 1.0
C      1  0.5017420000000  0.5311210000000  0.4897640000000 1.0
C      1  0.4830790000000  0.5197630000000  0.5727000000000 1.0
C      1  0.4840000000000  0.5424240000000  0.5135770000000 1.0
C      1  0.4363700000000  0.5152400000000  0.4746360000000 1.0
C      1  0.4723350000000  0.4990380000000  0.5878170000000 1.0
C      1  0.4473440000000  0.4878010000000  0.4773610000000 1.0
C      1  0.5692950000000  0.5094650000000  0.5349690000000 1.0
C      1  0.5441190000000  0.5264880000000  0.4396270000000 1.0
C      1  0.4675490000000  0.4476760000000  0.5323950000000 1.0
C      1  0.5525280000000  0.4757830000000  0.4429150000000 1.0
C      1  0.5035240000000  0.5637940000000  0.5234010000000 1.0
C      1  0.4551340000000  0.5540740000000  0.5474310000000 1.0
C      1  0.4522610000000  0.4793290000000  0.4486050000000 1.0
C      1  0.5649030000000  0.5476210000000  0.5063070000000 1.0
C      1  0.5534690000000  0.4662470000000  0.4719010000000 1.0
C      1  0.5029400000000  0.4544290000000  0.4412070000000 1.0
C      1  0.4871940000000  0.5109830000000  0.4742760000000 1.0
C      1  0.4784160000000  0.5116420000000  0.5302290000000 1.0
C      1  0.4627280000000  0.5273930000000  0.5521760000000 1.0
C      1  0.4627380000000  0.4377500000000  0.4685560000000 1.0
C      1  0.4575730000000  0.5569700000000  0.5195870000000 1.0
C      1  0.4739410000000  0.4922410000000  0.4908860000000 1.0
C      1  0.5198910000000  0.4841320000000  0.5039780000000 1.0
C      1  0.4920930000000  0.4771370000000  0.5071790000000 1.0
C      1  0.5084780000000  0.4953190000000  0.4559650000000 1.0
C      1  0.4959250000000  0.4631910000000  0.5670710000000 1.0
C      1  0.5094400000000  0.5485920000000  0.4652540000000 1.0
C      1  0.4698730000000  0.5238260000000  0.4367940000000 1.0
C      1  0.4712740000000  0.4942190000000  0.4341030000000 1.0
C      1  0.4327530000000  0.4800370000000  0.5227120000000 1.0
C      1  0.4571650000000  0.5311950000000  0.4619410000000 1.0
C      1  0.5631130000000  0.5043450000000  0.4474400000000 1.0
C      1  0.5503160000000  0.5158210000000  0.5538840000000 1.0
C      1  0.5226060000000  0.5763670000000  0.5043580000000 1.0
C      1  0.5275600000000  0.5244990000000  0.5375860000000 1.0
C      1  0.5812930000000  0.5318070000000  0.5228960000000 1.0
C      1  0.5104800000000  0.4445790000000  0.4677120000000 1.0
C      1  0.4604340000000  0.4777280000000  0.5375650000000 1.0
C      1  0.4978810000000  0.5368090000000  0.4375170000000 1.0
C      1  0.4905730000000  0.4374120000000  0.5527220000000 1.0
C      1  0.5502650000000  0.5294710000000  0.4876580000000 1.0
C      1  0.5390310000000  0.5443480000000  0.4635440000000 1.0
C      1  0.4249240000000  0.5253420000000  0.4993720000000 1.0
C      1  0.5259420000000  0.5167570000000  0.5038930000000 1.0
C      1  0.5612890000000  0.4855440000000  0.5201730000000 1.0
END
