TITL C-950521-2237-386 0.000116439747846656 125000 -396.746100363907 0 0 66 (C1) n - 1
REM
REM in /home/bkarasulu/work/CARBON/AIRSS/Generating-Clusters/EDIP-Nigel-Params/with-SteepDescent/Only-C1/SD-CG/HFTN-CG
REM
REM
REM
REM
REM
REM ./C.cell (11c1c37f851c82e70ff6c80c92926a4b)
REM
REM compiler GCC version 9.2.1 20190827 (Red Hat 9.2.1-1)
REM options -cpp -mtune=generic -march=x86-64 -g -O0 -fpre-include=/usr/include/finclude/math-vector-fortran.h
REM seed 1379481974 914956594 -339086198 2032609791 1254783467 906963366 -1415614028 -782584451 -1066984726 869699861 -1510315709 -1463483773 -680200864 -184762715 -571182636 838639801 918452535 -1605811281 2019704874 -273749391 635344065 -409363087 -429626794 -1489860498 1286167005 1692859747 1445696063 -397546102 -273887979 907403494 -88975101 -717752275 -488838637
REM
CELL 1.54180   50.00000   50.00000   50.00000   90.00000   90.00000   90.00000
LATT -1
SFAC C  
C      1  0.4757850000000  0.4354350000000  0.5081490000000 1.0
C      1  0.4808730000000  0.4809430000000  0.5223790000000 1.0
C      1  0.5527710000000  0.5411020000000  0.5231370000000 1.0
C      1  0.4788550000000  0.4375280000000  0.5461820000000 1.0
C      1  0.5326810000000  0.4718520000000  0.5058800000000 1.0
C      1  0.4434200000000  0.5135410000000  0.4564800000000 1.0
C      1  0.4606550000000  0.5824100000000  0.5186820000000 1.0
C      1  0.4901300000000  0.5601010000000  0.4631630000000 1.0
C      1  0.5570500000000  0.4664010000000  0.4899300000000 1.0
C      1  0.5105000000000  0.4619680000000  0.4875190000000 1.0
C      1  0.4401620000000  0.4900620000000  0.5071230000000 1.0
C      1  0.4994070000000  0.4209120000000  0.5349650000000 1.0
C      1  0.5025570000000  0.4983750000000  0.5331140000000 1.0
C      1  0.5764050000000  0.5035370000000  0.5046160000000 1.0
C      1  0.5360070000000  0.4996600000000  0.5699570000000 1.0
C      1  0.4696360000000  0.5382250000000  0.4261830000000 1.0
C      1  0.4270150000000  0.4746270000000  0.5265690000000 1.0
C      1  0.5575970000000  0.4657050000000  0.5461270000000 1.0
C      1  0.5140390000000  0.5459800000000  0.5544290000000 1.0
C      1  0.4441430000000  0.5220740000000  0.5455360000000 1.0
C      1  0.5178250000000  0.4778750000000  0.5619910000000 1.0
C      1  0.5545180000000  0.5103090000000  0.5246750000000 1.0
C      1  0.4811440000000  0.5628020000000  0.5232910000000 1.0
C      1  0.4619140000000  0.5572620000000  0.4701120000000 1.0
C      1  0.5757840000000  0.5239120000000  0.4827290000000 1.0
C      1  0.5367050000000  0.4966280000000  0.4652120000000 1.0
C      1  0.4823660000000  0.4636760000000  0.4988980000000 1.0
C      1  0.4514070000000  0.4258430000000  0.5015520000000 1.0
C      1  0.5255860000000  0.4271000000000  0.4950540000000 1.0
C      1  0.5274460000000  0.5005080000000  0.5128000000000 1.0
C      1  0.4861000000000  0.4864570000000  0.4433670000000 1.0
C      1  0.5052620000000  0.4408820000000  0.4497940000000 1.0
C      1  0.5222420000000  0.5129960000000  0.4863710000000 1.0
C      1  0.4714460000000  0.5233630000000  0.5512790000000 1.0
C      1  0.5278040000000  0.4600090000000  0.4473310000000 1.0
C      1  0.4849350000000  0.5489060000000  0.5495330000000 1.0
C      1  0.5043510000000  0.4263150000000  0.4757870000000 1.0
C      1  0.5159320000000  0.4953620000000  0.4397740000000 1.0
C      1  0.4717720000000  0.4667640000000  0.5467200000000 1.0
C      1  0.4940350000000  0.5436170000000  0.4391670000000 1.0
C      1  0.5418930000000  0.5375240000000  0.4492430000000 1.0
C      1  0.5816490000000  0.4772300000000  0.4967960000000 1.0
C      1  0.5076840000000  0.5662610000000  0.5115940000000 1.0
C      1  0.4354700000000  0.5780950000000  0.5080190000000 1.0
C      1  0.5249590000000  0.4294730000000  0.5244300000000 1.0
C      1  0.5258120000000  0.5511560000000  0.5289750000000 1.0
C      1  0.4473440000000  0.5784240000000  0.4829900000000 1.0
C      1  0.4504610000000  0.5410100000000  0.4474380000000 1.0
C      1  0.4805450000000  0.4568740000000  0.4442880000000 1.0
C      1  0.5119910000000  0.5613900000000  0.4829150000000 1.0
C      1  0.4890790000000  0.4820110000000  0.5657430000000 1.0
C      1  0.4675610000000  0.4976230000000  0.4637480000000 1.0
C      1  0.4209740000000  0.5112630000000  0.4731940000000 1.0
C      1  0.5586610000000  0.5463110000000  0.4943850000000 1.0
C      1  0.5330970000000  0.5409540000000  0.4788320000000 1.0
C      1  0.4519910000000  0.5141910000000  0.5199140000000 1.0
C      1  0.5576140000000  0.4940230000000  0.5507090000000 1.0
C      1  0.5330720000000  0.4577160000000  0.5323500000000 1.0
C      1  0.4602020000000  0.4733310000000  0.4799410000000 1.0
C      1  0.4429920000000  0.4700530000000  0.5486810000000 1.0
C      1  0.5613370000000  0.5146160000000  0.4568040000000 1.0
C      1  0.5514020000000  0.4588760000000  0.4633970000000 1.0
C      1  0.5247130000000  0.5252240000000  0.5697460000000 1.0
C      1  0.4573430000000  0.4513470000000  0.4604340000000 1.0
C      1  0.5184290000000  0.5271140000000  0.4340310000000 1.0
C      1  0.4154600000000  0.4968860000000  0.4958450000000 1.0
END
