TITL C-951346-9544-176 1.51575918449256e-08 125000 -747.083901688439 0 0 121 (C1) n - 1
REM
REM in /home/bkarasulu/work/CARBON/AIRSS/Generating-Clusters/EDIP-Nigel-Params/with-SteepDescent/Only-C1/SD-CG/HFTN-CG
REM
REM
REM
REM
REM
REM ./C.cell (11c1c37f851c82e70ff6c80c92926a4b)
REM
REM compiler GCC version 9.2.1 20190827 (Red Hat 9.2.1-1)
REM options -cpp -mtune=generic -march=x86-64 -g -O0 -fpre-include=/usr/include/finclude/math-vector-fortran.h
REM seed 58275560 109152436 -379045487 536639174 2139123337 692116503 -219456270 -563109586 -1312752303 951717168 -232444870 1780014488 1978236522 1489361488 -1592630903 1757282824 -902886047 -1186932308 -180384621 812873612 -1325781724 1737663209 95963623 1768212544 676830218 -1385542955 -407223767 -1657670232 640496547 -814403304 -877433468 -681340367 -12088263
REM
CELL 1.54180   50.00000   50.00000   50.00000   90.00000   90.00000   90.00000
LATT -1
SFAC C  
C      1  0.5091910000000  0.4634220000000  0.5766600000000 1.0
C      1  0.4470330000000  0.4539150000000  0.4518880000000 1.0
C      1  0.4803570000000  0.5367190000000  0.4215090000000 1.0
C      1  0.4673310000000  0.5554950000000  0.4419740000000 1.0
C      1  0.5074840000000  0.4637600000000  0.4174560000000 1.0
C      1  0.4788210000000  0.4237130000000  0.4745120000000 1.0
C      1  0.4192070000000  0.5079940000000  0.4695010000000 1.0
C      1  0.4238870000000  0.5169810000000  0.5567260000000 1.0
C      1  0.5540120000000  0.4879990000000  0.4208060000000 1.0
C      1  0.5055590000000  0.4790170000000  0.5505950000000 1.0
C      1  0.5054260000000  0.4764210000000  0.4909400000000 1.0
C      1  0.5547560000000  0.4756570000000  0.5719630000000 1.0
C      1  0.4699850000000  0.4435190000000  0.4955750000000 1.0
C      1  0.5055520000000  0.5753590000000  0.5650380000000 1.0
C      1  0.5697910000000  0.4321020000000  0.4925550000000 1.0
C      1  0.5895890000000  0.4682480000000  0.5207650000000 1.0
C      1  0.4164910000000  0.5358930000000  0.5118260000000 1.0
C      1  0.5681280000000  0.4479600000000  0.5163290000000 1.0
C      1  0.5304350000000  0.4354100000000  0.4256630000000 1.0
C      1  0.4162690000000  0.5134760000000  0.5300530000000 1.0
C      1  0.4251320000000  0.5772990000000  0.4908930000000 1.0
C      1  0.5060910000000  0.5453490000000  0.4128350000000 1.0
C      1  0.4606920000000  0.4950230000000  0.4931360000000 1.0
C      1  0.4843960000000  0.5877500000000  0.4828650000000 1.0
C      1  0.4581140000000  0.4219110000000  0.5325250000000 1.0
C      1  0.5869130000000  0.4778740000000  0.4841240000000 1.0
C      1  0.4379800000000  0.5470990000000  0.4468050000000 1.0
C      1  0.4333570000000  0.4676030000000  0.5343980000000 1.0
C      1  0.5226770000000  0.4085070000000  0.5278180000000 1.0
C      1  0.4820030000000  0.4826170000000  0.4069620000000 1.0
C      1  0.4969830000000  0.4568450000000  0.4452850000000 1.0
C      1  0.5069220000000  0.5298150000000  0.5483140000000 1.0
C      1  0.4328470000000  0.5741050000000  0.5396180000000 1.0
C      1  0.5554320000000  0.5176930000000  0.4539050000000 1.0
C      1  0.4212360000000  0.5561000000000  0.4698700000000 1.0
C      1  0.5596510000000  0.4844040000000  0.4924160000000 1.0
C      1  0.4710950000000  0.5051200000000  0.5201630000000 1.0
C      1  0.5133180000000  0.4187540000000  0.5025740000000 1.0
C      1  0.5408760000000  0.5668210000000  0.5255350000000 1.0
C      1  0.5583720000000  0.5748980000000  0.4809720000000 1.0
C      1  0.4553820000000  0.4244450000000  0.4537490000000 1.0
C      1  0.4461900000000  0.5034950000000  0.4224960000000 1.0
C      1  0.4733440000000  0.4704700000000  0.4555400000000 1.0
C      1  0.5165000000000  0.5744260000000  0.4500940000000 1.0
C      1  0.4168790000000  0.5649730000000  0.5171750000000 1.0
C      1  0.5673900000000  0.4666440000000  0.4371060000000 1.0
C      1  0.5042900000000  0.4331560000000  0.4613990000000 1.0
C      1  0.4353090000000  0.5175890000000  0.4457540000000 1.0
C      1  0.4939350000000  0.5051020000000  0.5575090000000 1.0
C      1  0.4111200000000  0.5323270000000  0.4835760000000 1.0
C      1  0.5848990000000  0.5452180000000  0.5125390000000 1.0
C      1  0.4593780000000  0.4803830000000  0.5451030000000 1.0
C      1  0.5015110000000  0.5486490000000  0.4953990000000 1.0
C      1  0.4306580000000  0.4874240000000  0.4888940000000 1.0
C      1  0.5352320000000  0.5203780000000  0.5396390000000 1.0
C      1  0.4348800000000  0.4392550000000  0.5226660000000 1.0
C      1  0.4817390000000  0.4595470000000  0.5874290000000 1.0
C      1  0.5745000000000  0.5334510000000  0.4682240000000 1.0
C      1  0.4617240000000  0.4775000000000  0.5777320000000 1.0
C      1  0.5054670000000  0.5002390000000  0.5109740000000 1.0
C      1  0.4552420000000  0.4778810000000  0.4154350000000 1.0
C      1  0.4838970000000  0.4660400000000  0.5357470000000 1.0
C      1  0.5453690000000  0.4280290000000  0.5753930000000 1.0
C      1  0.4838150000000  0.5451100000000  0.5904050000000 1.0
C      1  0.4534150000000  0.5549200000000  0.5486640000000 1.0
C      1  0.4672300000000  0.5875770000000  0.5315560000000 1.0
C      1  0.5317350000000  0.4868960000000  0.5355770000000 1.0
C      1  0.5584820000000  0.5615740000000  0.5483850000000 1.0
C      1  0.5318870000000  0.4821740000000  0.5890300000000 1.0
C      1  0.5788030000000  0.5169120000000  0.5149020000000 1.0
C      1  0.4878510000000  0.5116640000000  0.4064840000000 1.0
C      1  0.5647180000000  0.5135040000000  0.4264670000000 1.0
C      1  0.5442070000000  0.4660710000000  0.5120540000000 1.0
C      1  0.5182030000000  0.5847380000000  0.5226260000000 1.0
C      1  0.4761760000000  0.5008640000000  0.4469320000000 1.0
C      1  0.5519120000000  0.5350320000000  0.5611790000000 1.0
C      1  0.5842320000000  0.4948170000000  0.5333940000000 1.0
C      1  0.4663070000000  0.4004900000000  0.5148010000000 1.0
C      1  0.5192790000000  0.4878450000000  0.4677500000000 1.0
C      1  0.5199480000000  0.5245960000000  0.4928550000000 1.0
C      1  0.5204010000000  0.4503860000000  0.4989100000000 1.0
C      1  0.5130690000000  0.4158710000000  0.4386910000000 1.0
C      1  0.4547670000000  0.5524900000000  0.4981870000000 1.0
C      1  0.4842870000000  0.4375350000000  0.5297130000000 1.0
C      1  0.4754160000000  0.5433160000000  0.4781160000000 1.0
C      1  0.5297980000000  0.5099630000000  0.5942160000000 1.0
C      1  0.5619250000000  0.4292000000000  0.4664620000000 1.0
C      1  0.4635160000000  0.4124240000000  0.4296740000000 1.0
C      1  0.4759880000000  0.5027960000000  0.5798540000000 1.0
C      1  0.4290160000000  0.4598660000000  0.4758630000000 1.0
C      1  0.5621600000000  0.4488330000000  0.5719980000000 1.0
C      1  0.4897660000000  0.4078570000000  0.4250850000000 1.0
C      1  0.5477250000000  0.4915900000000  0.4679380000000 1.0
C      1  0.4615140000000  0.5831190000000  0.5015270000000 1.0
C      1  0.5336200000000  0.5364020000000  0.5849110000000 1.0
C      1  0.5197570000000  0.4366630000000  0.5680540000000 1.0
C      1  0.4406230000000  0.4389400000000  0.4933820000000 1.0
C      1  0.5837930000000  0.5616700000000  0.5358130000000 1.0
C      1  0.5068550000000  0.4236920000000  0.5456760000000 1.0
C      1  0.5690180000000  0.4944540000000  0.5570680000000 1.0
C      1  0.5236590000000  0.4894320000000  0.4201490000000 1.0
C      1  0.5538470000000  0.4417630000000  0.4423120000000 1.0
C      1  0.4410700000000  0.5360200000000  0.5683900000000 1.0
C      1  0.5117670000000  0.5866170000000  0.4941890000000 1.0
C      1  0.4952750000000  0.5749860000000  0.5378690000000 1.0
C      1  0.5073900000000  0.5479810000000  0.5736130000000 1.0
C      1  0.4769820000000  0.4707790000000  0.4849740000000 1.0
C      1  0.4618250000000  0.5274510000000  0.5879730000000 1.0
C      1  0.4928150000000  0.5467440000000  0.5261750000000 1.0
C      1  0.4189080000000  0.4872020000000  0.5172060000000 1.0
C      1  0.5870860000000  0.4742910000000  0.4561770000000 1.0
C      1  0.5267460000000  0.5294180000000  0.4549850000000 1.0
C      1  0.5774700000000  0.5548640000000  0.4855040000000 1.0
C      1  0.5246030000000  0.5514210000000  0.4341460000000 1.0
C      1  0.5432360000000  0.5314830000000  0.5123610000000 1.0
C      1  0.4867110000000  0.4027490000000  0.4946350000000 1.0
C      1  0.5307760000000  0.5754560000000  0.4756700000000 1.0
C      1  0.4700860000000  0.5144710000000  0.4729180000000 1.0
C      1  0.4639690000000  0.5381180000000  0.5244450000000 1.0
C      1  0.5096760000000  0.5041000000000  0.4445440000000 1.0
C      1  0.4866610000000  0.5775340000000  0.4546470000000 1.0
END
