TITL C-951336-9012-192 2.39088396449268e-07 125000 -753.035548973091 0 0 120 (C1) n - 1
REM
REM in /home/bkarasulu/work/CARBON/AIRSS/Generating-Clusters/EDIP-Nigel-Params/with-SteepDescent/Only-C1/SD-CG/HFTN-CG
REM
REM
REM
REM
REM
REM ./C.cell (11c1c37f851c82e70ff6c80c92926a4b)
REM
REM compiler GCC version 9.2.1 20190827 (Red Hat 9.2.1-1)
REM options -cpp -mtune=generic -march=x86-64 -g -O0 -fpre-include=/usr/include/finclude/math-vector-fortran.h
REM seed 818364148 1011430458 -1748286219 -1073749885 2018853776 -156297494 1003474663 -1179249730 1221150732 99353146 1943393985 1240569731 319035435 2116441727 -2062051588 -199704347 102655393 -109932456 2105124994 -355397540 -1668698564 423930559 1652445939 -576442205 -60519786 1633572697 1636795817 1682202464 2135568775 -238197722 2012086253 473417802 -1240770970
REM
CELL 1.54180   50.00000   50.00000   50.00000   90.00000   90.00000   90.00000
LATT -1
SFAC C  
C      1  0.5265010000000  0.4700670000000  0.4974550000000 1.0
C      1  0.4852100000000  0.5334150000000  0.5800160000000 1.0
C      1  0.4372770000000  0.4492540000000  0.5453550000000 1.0
C      1  0.5402290000000  0.4343840000000  0.4604660000000 1.0
C      1  0.4428610000000  0.5113040000000  0.5857290000000 1.0
C      1  0.4275650000000  0.5120760000000  0.5129560000000 1.0
C      1  0.5429690000000  0.5624310000000  0.5411180000000 1.0
C      1  0.5697380000000  0.4890600000000  0.5700620000000 1.0
C      1  0.5653310000000  0.5458940000000  0.5035060000000 1.0
C      1  0.5458220000000  0.5820640000000  0.4792250000000 1.0
C      1  0.4995290000000  0.5342580000000  0.4037260000000 1.0
C      1  0.5436130000000  0.4966640000000  0.4996990000000 1.0
C      1  0.4498930000000  0.5168760000000  0.4941720000000 1.0
C      1  0.4406170000000  0.5439760000000  0.4849620000000 1.0
C      1  0.5682360000000  0.5196850000000  0.5690420000000 1.0
C      1  0.4377830000000  0.5372840000000  0.4569150000000 1.0
C      1  0.5725320000000  0.4288520000000  0.5221210000000 1.0
C      1  0.4811380000000  0.4338360000000  0.5539690000000 1.0
C      1  0.4991920000000  0.5242460000000  0.4495470000000 1.0
C      1  0.5032130000000  0.4862950000000  0.4172770000000 1.0
C      1  0.4739500000000  0.4788080000000  0.4165850000000 1.0
C      1  0.4576620000000  0.5668110000000  0.4954160000000 1.0
C      1  0.4614450000000  0.5653120000000  0.5339430000000 1.0
C      1  0.5778180000000  0.5261560000000  0.5208720000000 1.0
C      1  0.5456690000000  0.4934070000000  0.4301710000000 1.0
C      1  0.4541780000000  0.5367750000000  0.5456920000000 1.0
C      1  0.4863180000000  0.5521280000000  0.4452660000000 1.0
C      1  0.5321560000000  0.4015190000000  0.5056030000000 1.0
C      1  0.5917300000000  0.5048120000000  0.5073200000000 1.0
C      1  0.4563510000000  0.5335930000000  0.5754870000000 1.0
C      1  0.4753430000000  0.4568870000000  0.5714220000000 1.0
C      1  0.4572860000000  0.4576400000000  0.4301830000000 1.0
C      1  0.5278600000000  0.5170320000000  0.5175400000000 1.0
C      1  0.5270450000000  0.5081420000000  0.5910140000000 1.0
C      1  0.5746270000000  0.4627830000000  0.4883960000000 1.0
C      1  0.5443520000000  0.4827900000000  0.5879990000000 1.0
C      1  0.5004890000000  0.5083600000000  0.4938050000000 1.0
C      1  0.5339520000000  0.6031430000000  0.4652520000000 1.0
C      1  0.4836080000000  0.4058330000000  0.5048890000000 1.0
C      1  0.4825140000000  0.5516840000000  0.5052120000000 1.0
C      1  0.4974800000000  0.4714800000000  0.5834770000000 1.0
C      1  0.3997440000000  0.4773670000000  0.5393170000000 1.0
C      1  0.5107370000000  0.5642490000000  0.4993320000000 1.0
C      1  0.4769800000000  0.4648930000000  0.5056210000000 1.0
C      1  0.4314540000000  0.4877910000000  0.5762670000000 1.0
C      1  0.5251880000000  0.4604680000000  0.5799500000000 1.0
C      1  0.4062090000000  0.4984080000000  0.4715090000000 1.0
C      1  0.4981760000000  0.5600610000000  0.4189350000000 1.0
C      1  0.4301520000000  0.4988000000000  0.4232390000000 1.0
C      1  0.5250380000000  0.4736820000000  0.4312560000000 1.0
C      1  0.4063000000000  0.4690990000000  0.4758840000000 1.0
C      1  0.4771110000000  0.5223760000000  0.5065600000000 1.0
C      1  0.5776950000000  0.5719340000000  0.5146480000000 1.0
C      1  0.4555760000000  0.4302910000000  0.4397950000000 1.0
C      1  0.5081210000000  0.4242140000000  0.5458600000000 1.0
C      1  0.4915740000000  0.4713050000000  0.5328870000000 1.0
C      1  0.4648710000000  0.4308120000000  0.5070980000000 1.0
C      1  0.4389760000000  0.4336510000000  0.4897600000000 1.0
C      1  0.4976570000000  0.5031630000000  0.5847640000000 1.0
C      1  0.4043520000000  0.5103450000000  0.4971380000000 1.0
C      1  0.4304760000000  0.5064190000000  0.4536270000000 1.0
C      1  0.5576550000000  0.4065750000000  0.5151980000000 1.0
C      1  0.5912900000000  0.5096920000000  0.4780270000000 1.0
C      1  0.5377170000000  0.5233090000000  0.5677030000000 1.0
C      1  0.5852820000000  0.4830790000000  0.4656950000000 1.0
C      1  0.5086300000000  0.4093060000000  0.5206390000000 1.0
C      1  0.4504490000000  0.4787640000000  0.4949230000000 1.0
C      1  0.4283580000000  0.5283660000000  0.5357430000000 1.0
C      1  0.5885630000000  0.4413990000000  0.5022850000000 1.0
C      1  0.5362970000000  0.4806900000000  0.5422070000000 1.0
C      1  0.4780470000000  0.5044880000000  0.4556640000000 1.0
C      1  0.4350380000000  0.4330360000000  0.4598120000000 1.0
C      1  0.4935350000000  0.4037920000000  0.4768490000000 1.0
C      1  0.4897790000000  0.4753360000000  0.4574580000000 1.0
C      1  0.5694230000000  0.4870370000000  0.4428230000000 1.0
C      1  0.5577640000000  0.5606950000000  0.4619430000000 1.0
C      1  0.5326580000000  0.4395260000000  0.5573480000000 1.0
C      1  0.4535900000000  0.4864400000000  0.4635260000000 1.0
C      1  0.5067640000000  0.5851650000000  0.5215520000000 1.0
C      1  0.5615130000000  0.4443470000000  0.5444810000000 1.0
C      1  0.4888720000000  0.5728860000000  0.5434910000000 1.0
C      1  0.5198800000000  0.4616200000000  0.5275050000000 1.0
C      1  0.4165250000000  0.4585150000000  0.5268650000000 1.0
C      1  0.5738660000000  0.5634990000000  0.5445330000000 1.0
C      1  0.4260580000000  0.4598040000000  0.4978110000000 1.0
C      1  0.5661980000000  0.5338850000000  0.4748980000000 1.0
C      1  0.5228890000000  0.5747940000000  0.4278070000000 1.0
C      1  0.5649300000000  0.4742770000000  0.5424070000000 1.0
C      1  0.5160870000000  0.5241670000000  0.4734540000000 1.0
C      1  0.4575630000000  0.5017170000000  0.4085990000000 1.0
C      1  0.4157590000000  0.4545550000000  0.4516670000000 1.0
C      1  0.4956410000000  0.4453390000000  0.4482770000000 1.0
C      1  0.5347540000000  0.5896390000000  0.5304570000000 1.0
C      1  0.5248930000000  0.4039620000000  0.4769780000000 1.0
C      1  0.4069080000000  0.4888120000000  0.5629380000000 1.0
C      1  0.5708240000000  0.4836350000000  0.5106720000000 1.0
C      1  0.4306940000000  0.4688580000000  0.4298020000000 1.0
C      1  0.5838850000000  0.5350160000000  0.5480900000000 1.0
C      1  0.4577120000000  0.4302680000000  0.5361540000000 1.0
C      1  0.5449830000000  0.5594890000000  0.4370260000000 1.0
C      1  0.5001750000000  0.5516890000000  0.5614520000000 1.0
C      1  0.5433580000000  0.5139800000000  0.4741550000000 1.0
C      1  0.4746120000000  0.5174000000000  0.5348300000000 1.0
C      1  0.5239960000000  0.5067160000000  0.5447060000000 1.0
C      1  0.5360720000000  0.5464090000000  0.5142070000000 1.0
C      1  0.4679320000000  0.5844470000000  0.4731550000000 1.0
C      1  0.5130650000000  0.5915350000000  0.4507860000000 1.0
C      1  0.5232940000000  0.4450690000000  0.4383510000000 1.0
C      1  0.4483780000000  0.4669670000000  0.5656300000000 1.0
C      1  0.5464700000000  0.4534890000000  0.4817720000000 1.0
C      1  0.4938600000000  0.4987160000000  0.5487450000000 1.0
C      1  0.4556710000000  0.5556760000000  0.4418100000000 1.0
C      1  0.4512710000000  0.5824820000000  0.4505100000000 1.0
C      1  0.5555290000000  0.5901120000000  0.5065150000000 1.0
C      1  0.4986290000000  0.4776150000000  0.4869940000000 1.0
C      1  0.4731430000000  0.5240850000000  0.3998710000000 1.0
C      1  0.4952530000000  0.5731610000000  0.4670240000000 1.0
C      1  0.5140590000000  0.5153110000000  0.4229360000000 1.0
C      1  0.5285050000000  0.5511900000000  0.5644320000000 1.0
C      1  0.4979870000000  0.4318230000000  0.4725010000000 1.0
END
