TITL C-951335-1172-209 7.2829182478171e-08 125000 -515.156239353122 0 0 84 (C1) n - 1
REM
REM in /home/bkarasulu/work/CARBON/AIRSS/Generating-Clusters/EDIP-Nigel-Params/with-SteepDescent/Only-C1/SD-CG/HFTN-CG
REM
REM
REM
REM
REM
REM ./C.cell (11c1c37f851c82e70ff6c80c92926a4b)
REM
REM compiler GCC version 9.2.1 20190827 (Red Hat 9.2.1-1)
REM options -cpp -mtune=generic -march=x86-64 -g -O0 -fpre-include=/usr/include/finclude/math-vector-fortran.h
REM seed -598489779 1947761810 784698145 -1804546136 20407488 -1182797307 -1963800409 -1041109154 -1052899910 -1825613276 -889232047 -1675927709 1672920968 -2145124787 -1271798821 2035333087 -1708962430 2141845569 1719088528 -1878877999 2070438615 1641006858 -1183503359 -2145618470 -2013330695 516860885 165393274 -1309967541 1032463244 1267269511 454446903 180331260 -1730482370
REM
CELL 1.54180   50.00000   50.00000   50.00000   90.00000   90.00000   90.00000
LATT -1
SFAC C  
C      1  0.5627630000000  0.4874810000000  0.5017800000000 1.0
C      1  0.5186900000000  0.4879320000000  0.5005910000000 1.0
C      1  0.5777420000000  0.4845460000000  0.5476900000000 1.0
C      1  0.5023790000000  0.4287430000000  0.5289870000000 1.0
C      1  0.4758350000000  0.5083670000000  0.4362250000000 1.0
C      1  0.4401950000000  0.5039890000000  0.5598090000000 1.0
C      1  0.5091580000000  0.4328520000000  0.4705120000000 1.0
C      1  0.4392110000000  0.4823570000000  0.5399680000000 1.0
C      1  0.5080960000000  0.5537160000000  0.5551400000000 1.0
C      1  0.4754430000000  0.4702980000000  0.5612950000000 1.0
C      1  0.5667290000000  0.4703150000000  0.5262330000000 1.0
C      1  0.5455660000000  0.5589990000000  0.5248080000000 1.0
C      1  0.4847690000000  0.5691850000000  0.5206470000000 1.0
C      1  0.4638170000000  0.5081480000000  0.5791900000000 1.0
C      1  0.5138940000000  0.4421900000000  0.4430330000000 1.0
C      1  0.5694330000000  0.4854020000000  0.4252550000000 1.0
C      1  0.4877360000000  0.5807410000000  0.4679280000000 1.0
C      1  0.4639790000000  0.4323110000000  0.4965530000000 1.0
C      1  0.4641200000000  0.5246430000000  0.5287220000000 1.0
C      1  0.4230440000000  0.5171790000000  0.4732110000000 1.0
C      1  0.5164670000000  0.5765180000000  0.4691490000000 1.0
C      1  0.4299960000000  0.5363230000000  0.4522710000000 1.0
C      1  0.5685120000000  0.5175590000000  0.4597530000000 1.0
C      1  0.5256290000000  0.4994130000000  0.5625110000000 1.0
C      1  0.4960840000000  0.4870180000000  0.4300490000000 1.0
C      1  0.5691990000000  0.4734470000000  0.4752730000000 1.0
C      1  0.5313560000000  0.5215080000000  0.4239050000000 1.0
C      1  0.4371210000000  0.4406280000000  0.4951230000000 1.0
C      1  0.4743970000000  0.5827460000000  0.4954920000000 1.0
C      1  0.4410190000000  0.4562090000000  0.5517220000000 1.0
C      1  0.5345720000000  0.5451990000000  0.5465360000000 1.0
C      1  0.4976510000000  0.4655430000000  0.5398810000000 1.0
C      1  0.5771040000000  0.4911970000000  0.4519900000000 1.0
C      1  0.4622790000000  0.5538750000000  0.5314910000000 1.0
C      1  0.5219380000000  0.4949150000000  0.4183950000000 1.0
C      1  0.4566500000000  0.4352430000000  0.5434000000000 1.0
C      1  0.5583980000000  0.4367030000000  0.4792110000000 1.0
C      1  0.4909740000000  0.4574250000000  0.4318520000000 1.0
C      1  0.4312460000000  0.4877780000000  0.5120000000000 1.0
C      1  0.4438870000000  0.5611220000000  0.4488520000000 1.0
C      1  0.4807090000000  0.4374810000000  0.4738140000000 1.0
C      1  0.5463520000000  0.5399050000000  0.5041190000000 1.0
C      1  0.5858920000000  0.5254810000000  0.5279800000000 1.0
C      1  0.5436900000000  0.5179630000000  0.5500440000000 1.0
C      1  0.4436230000000  0.4574250000000  0.4444360000000 1.0
C      1  0.4694190000000  0.4473450000000  0.4487890000000 1.0
C      1  0.5202600000000  0.4956030000000  0.4726810000000 1.0
C      1  0.5292400000000  0.5636850000000  0.4475090000000 1.0
C      1  0.5290850000000  0.5421020000000  0.4798310000000 1.0
C      1  0.4876700000000  0.5369700000000  0.4437990000000 1.0
C      1  0.4302100000000  0.5149950000000  0.5016850000000 1.0
C      1  0.5400500000000  0.4527200000000  0.4375030000000 1.0
C      1  0.5279610000000  0.4358200000000  0.5180760000000 1.0
C      1  0.5317990000000  0.4347810000000  0.4893230000000 1.0
C      1  0.5694430000000  0.5196860000000  0.5042050000000 1.0
C      1  0.5450150000000  0.4521040000000  0.5373930000000 1.0
C      1  0.4914380000000  0.5344550000000  0.5705480000000 1.0
C      1  0.5248470000000  0.4704590000000  0.5529010000000 1.0
C      1  0.4221600000000  0.5361600000000  0.5211020000000 1.0
C      1  0.4968000000000  0.5077600000000  0.5589730000000 1.0
C      1  0.4566290000000  0.5026560000000  0.4594970000000 1.0
C      1  0.5624170000000  0.4427900000000  0.4521600000000 1.0
C      1  0.5439810000000  0.4750090000000  0.4195240000000 1.0
C      1  0.5152350000000  0.5430460000000  0.4333030000000 1.0
C      1  0.5718690000000  0.5116230000000  0.5479160000000 1.0
C      1  0.4748420000000  0.4318400000000  0.5229390000000 1.0
C      1  0.4486320000000  0.5689700000000  0.4919500000000 1.0
C      1  0.4359120000000  0.4684520000000  0.4908380000000 1.0
C      1  0.4725470000000  0.4861410000000  0.5968070000000 1.0
C      1  0.4405410000000  0.4776110000000  0.4634770000000 1.0
C      1  0.4996400000000  0.5781970000000  0.5428560000000 1.0
C      1  0.5307180000000  0.4517370000000  0.5737860000000 1.0
C      1  0.5845920000000  0.5271390000000  0.4808290000000 1.0
C      1  0.4864970000000  0.5326340000000  0.4735650000000 1.0
C      1  0.4367180000000  0.5631460000000  0.5185800000000 1.0
C      1  0.4727110000000  0.5641040000000  0.4453470000000 1.0
C      1  0.4833080000000  0.4604090000000  0.5886920000000 1.0
C      1  0.4953400000000  0.4859730000000  0.5175010000000 1.0
C      1  0.4304550000000  0.5282370000000  0.5482500000000 1.0
C      1  0.5372920000000  0.5187680000000  0.4615440000000 1.0
C      1  0.4896630000000  0.5111460000000  0.5307670000000 1.0
C      1  0.4568780000000  0.5415630000000  0.4797170000000 1.0
C      1  0.5097740000000  0.4524400000000  0.5913070000000 1.0
C      1  0.4910650000000  0.5037050000000  0.4777040000000 1.0
END
