TITL C-950532-2784-577 -2.22873749642466e-06 125000 -561.708768157904 0 0 92 (C1) n - 1
REM
REM in /home/bkarasulu/work/CARBON/AIRSS/Generating-Clusters/EDIP-Nigel-Params/with-SteepDescent/Only-C1/SD-CG/HFTN-CG
REM
REM
REM
REM
REM
REM ./C.cell (11c1c37f851c82e70ff6c80c92926a4b)
REM
REM compiler GCC version 9.2.1 20190827 (Red Hat 9.2.1-1)
REM options -cpp -mtune=generic -march=x86-64 -g -O0 -fpre-include=/usr/include/finclude/math-vector-fortran.h
REM seed -598888143 703583789 -801618169 -692345004 -590413906 -1382571797 724833288 -388842961 -566348461 935044056 492837361 1884617357 2114580474 -320332749 1411086726 2055455313 1706996684 -917905541 1500956698 453545721 703608945 -987104120 784021422 -1530172405 -53562600 1604009015 -1999901904 -774438843 249213004 1239456775 888493632 -1862975256 -667531495
REM
CELL 1.54180   50.00000   50.00000   50.00000   90.00000   90.00000   90.00000
LATT -1
SFAC C  
C      1  0.5579240000000  0.5398080000000  0.4471400000000 1.0
C      1  0.5155430000000  0.5085350000000  0.5882130000000 1.0
C      1  0.4358530000000  0.5355620000000  0.4561150000000 1.0
C      1  0.5317780000000  0.4750550000000  0.5454370000000 1.0
C      1  0.5578560000000  0.4852790000000  0.5545550000000 1.0
C      1  0.5656940000000  0.5131220000000  0.5445690000000 1.0
C      1  0.5519270000000  0.5428030000000  0.4740230000000 1.0
C      1  0.4961630000000  0.5774540000000  0.4420570000000 1.0
C      1  0.5632440000000  0.5553880000000  0.5220150000000 1.0
C      1  0.4355590000000  0.4878460000000  0.4633250000000 1.0
C      1  0.5023590000000  0.4838870000000  0.5871610000000 1.0
C      1  0.4818130000000  0.5333420000000  0.4719790000000 1.0
C      1  0.5361480000000  0.4389680000000  0.4471470000000 1.0
C      1  0.5638190000000  0.5240820000000  0.4265660000000 1.0
C      1  0.4863780000000  0.4468920000000  0.5352510000000 1.0
C      1  0.4130580000000  0.4892250000000  0.5058050000000 1.0
C      1  0.4666080000000  0.4510880000000  0.4407040000000 1.0
C      1  0.5565730000000  0.5277280000000  0.5184450000000 1.0
C      1  0.4279710000000  0.5052210000000  0.5547690000000 1.0
C      1  0.4628530000000  0.5415120000000  0.4499200000000 1.0
C      1  0.5079170000000  0.5324870000000  0.4579220000000 1.0
C      1  0.5483640000000  0.5614220000000  0.5454080000000 1.0
C      1  0.5623960000000  0.4740730000000  0.4288370000000 1.0
C      1  0.5830980000000  0.4687250000000  0.5225030000000 1.0
C      1  0.4618280000000  0.5133060000000  0.5141200000000 1.0
C      1  0.4624190000000  0.4212380000000  0.4889780000000 1.0
C      1  0.5102940000000  0.5900950000000  0.4638340000000 1.0
C      1  0.4510420000000  0.4858020000000  0.5151590000000 1.0
C      1  0.5178230000000  0.4967040000000  0.5296500000000 1.0
C      1  0.5612490000000  0.4568660000000  0.5058370000000 1.0
C      1  0.4867540000000  0.4229730000000  0.4752980000000 1.0
C      1  0.4660970000000  0.4923640000000  0.4650360000000 1.0
C      1  0.5852830000000  0.4846990000000  0.4740210000000 1.0
C      1  0.5846590000000  0.5065660000000  0.4910590000000 1.0
C      1  0.5041720000000  0.5177850000000  0.5432700000000 1.0
C      1  0.5064590000000  0.5533780000000  0.5781240000000 1.0
C      1  0.5885050000000  0.4973100000000  0.5182990000000 1.0
C      1  0.4604760000000  0.4547170000000  0.5448700000000 1.0
C      1  0.4798400000000  0.4714580000000  0.4248700000000 1.0
C      1  0.4747840000000  0.4836600000000  0.5816890000000 1.0
C      1  0.5172960000000  0.4648280000000  0.5708520000000 1.0
C      1  0.4238830000000  0.4707070000000  0.4844080000000 1.0
C      1  0.5775930000000  0.4655200000000  0.5500670000000 1.0
C      1  0.5369420000000  0.4951010000000  0.4822220000000 1.0
C      1  0.5044300000000  0.4287220000000  0.5486930000000 1.0
C      1  0.4759780000000  0.5719370000000  0.4923800000000 1.0
C      1  0.5130280000000  0.4269600000000  0.4890330000000 1.0
C      1  0.4346130000000  0.5328350000000  0.5481220000000 1.0
C      1  0.4413000000000  0.5384690000000  0.5184120000000 1.0
C      1  0.4160240000000  0.5413690000000  0.5043620000000 1.0
C      1  0.4715500000000  0.5251120000000  0.4258350000000 1.0
C      1  0.5099510000000  0.4737810000000  0.4613890000000 1.0
C      1  0.4210200000000  0.4427920000000  0.4827650000000 1.0
C      1  0.4916340000000  0.5391820000000  0.4122580000000 1.0
C      1  0.4421150000000  0.4449260000000  0.5257210000000 1.0
C      1  0.5185900000000  0.5287400000000  0.5681080000000 1.0
C      1  0.5124870000000  0.4572220000000  0.5015040000000 1.0
C      1  0.5654560000000  0.4986520000000  0.4192360000000 1.0
C      1  0.4870820000000  0.4318180000000  0.4472630000000 1.0
C      1  0.5196780000000  0.5848840000000  0.5116880000000 1.0
C      1  0.5336090000000  0.4235900000000  0.4697760000000 1.0
C      1  0.5225770000000  0.5729300000000  0.5370150000000 1.0
C      1  0.5591660000000  0.4721850000000  0.4788050000000 1.0
C      1  0.5568770000000  0.4585490000000  0.4511870000000 1.0
C      1  0.5350910000000  0.4527120000000  0.5223440000000 1.0
C      1  0.5004030000000  0.5674730000000  0.5546240000000 1.0
C      1  0.4601570000000  0.5843850000000  0.4725170000000 1.0
C      1  0.4795860000000  0.5089930000000  0.4888520000000 1.0
C      1  0.5479290000000  0.5352860000000  0.5611480000000 1.0
C      1  0.4611230000000  0.5626320000000  0.5168660000000 1.0
C      1  0.4619310000000  0.5380160000000  0.5582340000000 1.0
C      1  0.4675970000000  0.5716380000000  0.4486410000000 1.0
C      1  0.4204630000000  0.4850560000000  0.5357470000000 1.0
C      1  0.4799190000000  0.4669250000000  0.4725760000000 1.0
C      1  0.5187500000000  0.4079670000000  0.5101390000000 1.0
C      1  0.5105110000000  0.4908630000000  0.5012330000000 1.0
C      1  0.4587010000000  0.4823190000000  0.5579520000000 1.0
C      1  0.5077480000000  0.5736930000000  0.4878560000000 1.0
C      1  0.4222850000000  0.5137650000000  0.4662840000000 1.0
C      1  0.4744550000000  0.4657040000000  0.5045560000000 1.0
C      1  0.5098910000000  0.5022600000000  0.4482870000000 1.0
C      1  0.5231480000000  0.5465870000000  0.4799350000000 1.0
C      1  0.4397360000000  0.4324150000000  0.5005070000000 1.0
C      1  0.4742420000000  0.5604690000000  0.5435110000000 1.0
C      1  0.5574310000000  0.5183490000000  0.4906400000000 1.0
C      1  0.5067600000000  0.5508590000000  0.4332500000000 1.0
C      1  0.4744960000000  0.5140600000000  0.5427900000000 1.0
C      1  0.5100820000000  0.4518790000000  0.4396790000000 1.0
C      1  0.5114140000000  0.4374360000000  0.5743370000000 1.0
C      1  0.5275200000000  0.4243310000000  0.5312310000000 1.0
C      1  0.4809570000000  0.4984150000000  0.4380860000000 1.0
C      1  0.4122180000000  0.5162790000000  0.4930920000000 1.0
END
