TITL C-950528-5794-413 5.28760219669309e-07 125000 -894.624198038083 0 0 143 (C1) n - 1
REM
REM in /home/bkarasulu/work/CARBON/AIRSS/Generating-Clusters/EDIP-Nigel-Params/with-SteepDescent/Only-C1/SD-CG/HFTN-CG
REM
REM
REM
REM
REM
REM ./C.cell (11c1c37f851c82e70ff6c80c92926a4b)
REM
REM compiler GCC version 9.2.1 20190827 (Red Hat 9.2.1-1)
REM options -cpp -mtune=generic -march=x86-64 -g -O0 -fpre-include=/usr/include/finclude/math-vector-fortran.h
REM seed 1346128456 747193226 -1639742098 -1622363494 1934846993 -1918501664 -1387585182 1635229870 -1588734199 1032699576 -1995630558 -1800713987 222334105 -1242933069 -2068461766 -1953201822 2142299665 -413859295 536354760 1815445354 -1098961060 222407722 -1665622290 1945213814 307364090 -1393757204 1140564959 -1435188646 562244785 1344637412 -627429644 793296575 220360261
REM
CELL 1.54180   50.00000   50.00000   50.00000   90.00000   90.00000   90.00000
LATT -1
SFAC C  
C      1  0.4882810000000  0.4905650000000  0.3889380000000 1.0
C      1  0.4891560000000  0.4962250000000  0.5941440000000 1.0
C      1  0.5482590000000  0.4897920000000  0.4294890000000 1.0
C      1  0.4916430000000  0.4155660000000  0.4717440000000 1.0
C      1  0.5684700000000  0.4678310000000  0.5413410000000 1.0
C      1  0.5601560000000  0.5330340000000  0.5729020000000 1.0
C      1  0.5284000000000  0.5696620000000  0.5727490000000 1.0
C      1  0.4159690000000  0.4441840000000  0.4996430000000 1.0
C      1  0.4523870000000  0.4358290000000  0.5577490000000 1.0
C      1  0.5300610000000  0.4567460000000  0.5782020000000 1.0
C      1  0.5761010000000  0.5557110000000  0.4534130000000 1.0
C      1  0.4530210000000  0.4296550000000  0.4387610000000 1.0
C      1  0.4299280000000  0.5800260000000  0.5424900000000 1.0
C      1  0.4300720000000  0.5704880000000  0.5709710000000 1.0
C      1  0.5157840000000  0.4506750000000  0.4941820000000 1.0
C      1  0.4558900000000  0.5577550000000  0.4493230000000 1.0
C      1  0.4817570000000  0.5930270000000  0.5278990000000 1.0
C      1  0.4240080000000  0.4591780000000  0.5471980000000 1.0
C      1  0.4225940000000  0.5348680000000  0.5350890000000 1.0
C      1  0.5573900000000  0.4445420000000  0.4442420000000 1.0
C      1  0.4624260000000  0.4594060000000  0.4713330000000 1.0
C      1  0.4299750000000  0.4967440000000  0.5799100000000 1.0
C      1  0.4320570000000  0.4876020000000  0.5522110000000 1.0
C      1  0.5165780000000  0.4329860000000  0.4252400000000 1.0
C      1  0.4185610000000  0.5367050000000  0.4827620000000 1.0
C      1  0.5187850000000  0.4782770000000  0.4771320000000 1.0
C      1  0.4814740000000  0.4639460000000  0.4050720000000 1.0
C      1  0.5464880000000  0.5571620000000  0.4472880000000 1.0
C      1  0.6114280000000  0.5015280000000  0.4942350000000 1.0
C      1  0.4591450000000  0.5139110000000  0.4704740000000 1.0
C      1  0.5466080000000  0.5764380000000  0.5510280000000 1.0
C      1  0.5484420000000  0.4430010000000  0.5598050000000 1.0
C      1  0.5020510000000  0.5845560000000  0.5721650000000 1.0
C      1  0.5809320000000  0.5326740000000  0.4348670000000 1.0
C      1  0.5230800000000  0.5258170000000  0.4082340000000 1.0
C      1  0.4260500000000  0.5417090000000  0.5645050000000 1.0
C      1  0.6032600000000  0.4904970000000  0.5186590000000 1.0
C      1  0.5346360000000  0.4031220000000  0.4885130000000 1.0
C      1  0.4840970000000  0.3843500000000  0.5378110000000 1.0
C      1  0.5131460000000  0.4909220000000  0.4470270000000 1.0
C      1  0.5305110000000  0.5949690000000  0.5326250000000 1.0
C      1  0.4389090000000  0.4772180000000  0.4349460000000 1.0
C      1  0.4348700000000  0.4257750000000  0.4622100000000 1.0
C      1  0.5635420000000  0.5761570000000  0.5102150000000 1.0
C      1  0.4422880000000  0.5223610000000  0.5778630000000 1.0
C      1  0.5820590000000  0.5076430000000  0.4521140000000 1.0
C      1  0.5895930000000  0.5484590000000  0.4884420000000 1.0
C      1  0.5795820000000  0.4903310000000  0.5564020000000 1.0
C      1  0.5516620000000  0.4856550000000  0.4830290000000 1.0
C      1  0.4155920000000  0.4705240000000  0.4530260000000 1.0
C      1  0.5460300000000  0.5299170000000  0.5311980000000 1.0
C      1  0.5646410000000  0.4362010000000  0.4869730000000 1.0
C      1  0.5084550000000  0.5214560000000  0.4495400000000 1.0
C      1  0.5911300000000  0.4704470000000  0.4629040000000 1.0
C      1  0.5303900000000  0.4023450000000  0.5362960000000 1.0
C      1  0.4804990000000  0.4323570000000  0.4504360000000 1.0
C      1  0.5657340000000  0.5516760000000  0.5460880000000 1.0
C      1  0.4036110000000  0.5099980000000  0.4862080000000 1.0
C      1  0.4905270000000  0.3836520000000  0.5095560000000 1.0
C      1  0.4519840000000  0.4541860000000  0.4197470000000 1.0
C      1  0.5091230000000  0.4590900000000  0.4171410000000 1.0
C      1  0.4298700000000  0.4525200000000  0.4734740000000 1.0
C      1  0.4865940000000  0.5264800000000  0.4705470000000 1.0
C      1  0.4809280000000  0.4275640000000  0.5657490000000 1.0
C      1  0.4645440000000  0.5726540000000  0.5433230000000 1.0
C      1  0.4359570000000  0.5030360000000  0.4201560000000 1.0
C      1  0.5041900000000  0.5991380000000  0.5462330000000 1.0
C      1  0.4441190000000  0.5707870000000  0.4967630000000 1.0
C      1  0.5175850000000  0.5233660000000  0.5415680000000 1.0
C      1  0.5330700000000  0.4318140000000  0.4487390000000 1.0
C      1  0.4945250000000  0.5919880000000  0.5012940000000 1.0
C      1  0.5229950000000  0.5935190000000  0.5036110000000 1.0
C      1  0.4657120000000  0.5207390000000  0.5588410000000 1.0
C      1  0.4743300000000  0.5728590000000  0.5714930000000 1.0
C      1  0.4520650000000  0.5129380000000  0.4994030000000 1.0
C      1  0.4707830000000  0.5128920000000  0.3900160000000 1.0
C      1  0.4696810000000  0.5424120000000  0.5358680000000 1.0
C      1  0.4141970000000  0.5057510000000  0.5352650000000 1.0
C      1  0.4851450000000  0.5571680000000  0.4385890000000 1.0
C      1  0.4567170000000  0.5771110000000  0.4718360000000 1.0
C      1  0.4834120000000  0.5878320000000  0.4748020000000 1.0
C      1  0.6002130000000  0.5042740000000  0.5431100000000 1.0
C      1  0.5191040000000  0.4248150000000  0.4756090000000 1.0
C      1  0.5129040000000  0.4989590000000  0.4998180000000 1.0
C      1  0.5594610000000  0.5126010000000  0.4709080000000 1.0
C      1  0.4613300000000  0.4850260000000  0.4545090000000 1.0
C      1  0.4827340000000  0.4905330000000  0.4329730000000 1.0
C      1  0.5596260000000  0.5030960000000  0.5727640000000 1.0
C      1  0.4167600000000  0.5628310000000  0.4973490000000 1.0
C      1  0.5408140000000  0.4764320000000  0.5297470000000 1.0
C      1  0.4476590000000  0.5380020000000  0.5159820000000 1.0
C      1  0.4939550000000  0.4177870000000  0.4275570000000 1.0
C      1  0.4200430000000  0.5182720000000  0.4394500000000 1.0
C      1  0.4866720000000  0.5212970000000  0.5790180000000 1.0
C      1  0.5348380000000  0.4501960000000  0.5166260000000 1.0
C      1  0.5209450000000  0.3897380000000  0.5113780000000 1.0
C      1  0.4525240000000  0.4309560000000  0.5290260000000 1.0
C      1  0.5251800000000  0.5426900000000  0.4875240000000 1.0
C      1  0.4638450000000  0.5128530000000  0.4174690000000 1.0
C      1  0.4107350000000  0.5617770000000  0.5263140000000 1.0
C      1  0.4713740000000  0.4682470000000  0.4986150000000 1.0
C      1  0.4381540000000  0.5334020000000  0.4585610000000 1.0
C      1  0.4640670000000  0.4920000000000  0.5134300000000 1.0
C      1  0.4081360000000  0.4922650000000  0.5107560000000 1.0
C      1  0.5331350000000  0.4308900000000  0.5383240000000 1.0
C      1  0.5741650000000  0.4635210000000  0.4883840000000 1.0
C      1  0.4908470000000  0.4535280000000  0.5137320000000 1.0
C      1  0.5417890000000  0.4977250000000  0.5097740000000 1.0
C      1  0.5300060000000  0.4776350000000  0.4089140000000 1.0
C      1  0.5003120000000  0.5776810000000  0.4534950000000 1.0
C      1  0.5666820000000  0.5928940000000  0.4869090000000 1.0
C      1  0.5700100000000  0.4689110000000  0.4393620000000 1.0
C      1  0.5615590000000  0.4097980000000  0.4924010000000 1.0
C      1  0.5183810000000  0.4912470000000  0.5482060000000 1.0
C      1  0.4967320000000  0.5361870000000  0.5242310000000 1.0
C      1  0.4792560000000  0.4261200000000  0.5190590000000 1.0
C      1  0.5882080000000  0.5611230000000  0.5165310000000 1.0
C      1  0.5482890000000  0.5452580000000  0.5053600000000 1.0
C      1  0.5860560000000  0.4676340000000  0.5161630000000 1.0
C      1  0.4759210000000  0.4069960000000  0.4946360000000 1.0
C      1  0.4984510000000  0.5406360000000  0.4175100000000 1.0
C      1  0.5693850000000  0.5285110000000  0.4933220000000 1.0
C      1  0.6070790000000  0.4969060000000  0.4669470000000 1.0
C      1  0.5325990000000  0.4876130000000  0.5767220000000 1.0
C      1  0.4115010000000  0.4640210000000  0.5201680000000 1.0
C      1  0.5396380000000  0.5965710000000  0.4795970000000 1.0
C      1  0.4521190000000  0.5771980000000  0.5880480000000 1.0
C      1  0.4635880000000  0.4923200000000  0.5435940000000 1.0
C      1  0.4316830000000  0.4214940000000  0.5102140000000 1.0
C      1  0.5300830000000  0.5817820000000  0.4551310000000 1.0
C      1  0.5345470000000  0.5330220000000  0.4615720000000 1.0
C      1  0.4450750000000  0.4086620000000  0.4865220000000 1.0
C      1  0.4821810000000  0.4720380000000  0.5804450000000 1.0
C      1  0.4991870000000  0.4490430000000  0.5776950000000 1.0
C      1  0.5520530000000  0.5204930000000  0.4227590000000 1.0
C      1  0.4915660000000  0.4743470000000  0.5432490000000 1.0
C      1  0.4934860000000  0.4121390000000  0.5426010000000 1.0
C      1  0.5181210000000  0.4996000000000  0.6003780000000 1.0
C      1  0.5027540000000  0.5262960000000  0.4961850000000 1.0
C      1  0.4054090000000  0.4985260000000  0.4581510000000 1.0
C      1  0.5371160000000  0.5454030000000  0.5866400000000 1.0
C      1  0.5179110000000  0.5291830000000  0.6002470000000 1.0
C      1  0.5163540000000  0.4992950000000  0.3950560000000 1.0
END
