TITL C-950523-3027-577 -8.92483341990015e-08 125000 -119.020986239689 0 0 21 (C1) n - 1
REM
REM in /home/bkarasulu/work/CARBON/AIRSS/Generating-Clusters/EDIP-Nigel-Params/with-SteepDescent/Only-C1/SD-CG/HFTN-CG
REM
REM
REM
REM
REM
REM ./C.cell (11c1c37f851c82e70ff6c80c92926a4b)
REM
REM compiler GCC version 9.2.1 20190827 (Red Hat 9.2.1-1)
REM options -cpp -mtune=generic -march=x86-64 -g -O0 -fpre-include=/usr/include/finclude/math-vector-fortran.h
REM seed -21751530 1456423569 -1575139363 -1649403176 1754368205 1121572987 -1865303040 1829753669 727124446 -2105321540 -2118174081 494819600 -1252721660 296064427 -1873872863 1822538571 -977283323 -1595046378 -1603763879 -49576063 -1038438399 -805191659 2127213607 1946556625 423592328 -1246220723 276814041 150525231 1098079760 -1561322096 -264925956 -264289607 -1612513893
REM
CELL 1.54180   50.00000   50.00000   50.00000   90.00000   90.00000   90.00000
LATT -1
SFAC C  
C      1  0.4626290000000  0.5318540000000  0.4951010000000 1.0
C      1  0.5273190000000  0.5168240000000  0.4723130000000 1.0
C      1  0.5366440000000  0.5259780000000  0.5010090000000 1.0
C      1  0.4905910000000  0.4968720000000  0.5268040000000 1.0
C      1  0.4864790000000  0.5364130000000  0.5095200000000 1.0
C      1  0.4714260000000  0.5175910000000  0.4723610000000 1.0
C      1  0.5358260000000  0.5071740000000  0.5214160000000 1.0
C      1  0.4841150000000  0.5325360000000  0.4522850000000 1.0
C      1  0.5238140000000  0.4617330000000  0.5280720000000 1.0
C      1  0.5128840000000  0.4900210000000  0.4740060000000 1.0
C      1  0.4742380000000  0.4806040000000  0.5055240000000 1.0
C      1  0.5117670000000  0.5445160000000  0.4947260000000 1.0
C      1  0.4852780000000  0.5334680000000  0.5379780000000 1.0
C      1  0.5085860000000  0.5402370000000  0.4632200000000 1.0
C      1  0.5120880000000  0.4386330000000  0.5190750000000 1.0
C      1  0.4764460000000  0.5096560000000  0.5492650000000 1.0
C      1  0.4830130000000  0.4903750000000  0.4778750000000 1.0
C      1  0.5185730000000  0.4885340000000  0.5320320000000 1.0
C      1  0.4774060000000  0.4517850000000  0.5087300000000 1.0
C      1  0.5240190000000  0.4685500000000  0.4627260000000 1.0
C      1  0.4968610000000  0.4366470000000  0.4959620000000 1.0
END
