TITL C-951333-8791-664 1.00746959341507e-06 125000 -869.853647814769 0 0 139 (C1) n - 1
REM
REM in /home/bkarasulu/work/CARBON/AIRSS/Generating-Clusters/EDIP-Nigel-Params/with-SteepDescent/Only-C1/SD-CG/HFTN-CG
REM
REM
REM
REM
REM
REM ./C.cell (11c1c37f851c82e70ff6c80c92926a4b)
REM
REM compiler GCC version 9.2.1 20190827 (Red Hat 9.2.1-1)
REM options -cpp -mtune=generic -march=x86-64 -g -O0 -fpre-include=/usr/include/finclude/math-vector-fortran.h
REM seed 1417897340 -1676237387 1976636300 1618143154 1355088596 -1260186313 1296610234 -206740601 479166447 1781790051 851152907 -1764080803 -1657738778 760437927 -1933998126 1230003154 1971164066 -1009188683 -1021777731 1146026560 -160729322 1590949176 -1767255612 1697102145 1810047286 -1209240864 -1457826818 -545356508 -1958141601 -727243972 948226572 528133890 -197870473
REM
CELL 1.54180   50.00000   50.00000   50.00000   90.00000   90.00000   90.00000
LATT -1
SFAC C  
C      1  0.5627210000000  0.5713110000000  0.5163900000000 1.0
C      1  0.4230370000000  0.5575710000000  0.5129280000000 1.0
C      1  0.5437510000000  0.5147040000000  0.4564090000000 1.0
C      1  0.5400950000000  0.4703970000000  0.5787320000000 1.0
C      1  0.5507700000000  0.4749710000000  0.4825500000000 1.0
C      1  0.4660790000000  0.4446800000000  0.4921880000000 1.0
C      1  0.5623320000000  0.5430130000000  0.5252800000000 1.0
C      1  0.4961670000000  0.4688420000000  0.5966920000000 1.0
C      1  0.4998420000000  0.5845890000000  0.4458450000000 1.0
C      1  0.4721660000000  0.5724550000000  0.5167010000000 1.0
C      1  0.4155450000000  0.4638030000000  0.4863530000000 1.0
C      1  0.4383960000000  0.5318140000000  0.5033790000000 1.0
C      1  0.5187120000000  0.5305730000000  0.4582250000000 1.0
C      1  0.4072460000000  0.5553530000000  0.4835730000000 1.0
C      1  0.4645980000000  0.5290840000000  0.5152250000000 1.0
C      1  0.4704270000000  0.4254900000000  0.5449230000000 1.0
C      1  0.4468880000000  0.4124130000000  0.5304490000000 1.0
C      1  0.4721530000000  0.5013630000000  0.4509750000000 1.0
C      1  0.5139450000000  0.5147480000000  0.4007860000000 1.0
C      1  0.5666320000000  0.4943930000000  0.4223620000000 1.0
C      1  0.4129700000000  0.5315070000000  0.5473670000000 1.0
C      1  0.4271820000000  0.5197100000000  0.4333620000000 1.0
C      1  0.4861200000000  0.4115810000000  0.4528050000000 1.0
C      1  0.5001620000000  0.4677450000000  0.4754190000000 1.0
C      1  0.3950760000000  0.4780980000000  0.4985480000000 1.0
C      1  0.5181230000000  0.5013350000000  0.5110020000000 1.0
C      1  0.5167150000000  0.5515470000000  0.5236300000000 1.0
C      1  0.4838830000000  0.5278940000000  0.4926970000000 1.0
C      1  0.4697150000000  0.5318730000000  0.4130870000000 1.0
C      1  0.4506110000000  0.5616210000000  0.5592150000000 1.0
C      1  0.5172800000000  0.4860600000000  0.4063020000000 1.0
C      1  0.5592840000000  0.5704050000000  0.4439730000000 1.0
C      1  0.4304450000000  0.4859920000000  0.5447250000000 1.0
C      1  0.5434020000000  0.4767920000000  0.4156790000000 1.0
C      1  0.4402180000000  0.4874160000000  0.5728850000000 1.0
C      1  0.4916320000000  0.5429050000000  0.5861180000000 1.0
C      1  0.5830340000000  0.5347030000000  0.5455530000000 1.0
C      1  0.4738300000000  0.4588110000000  0.4686050000000 1.0
C      1  0.4905620000000  0.5558740000000  0.5361950000000 1.0
C      1  0.5309250000000  0.5342080000000  0.4156180000000 1.0
C      1  0.4976490000000  0.4633690000000  0.4097610000000 1.0
C      1  0.4471760000000  0.4236770000000  0.4836700000000 1.0
C      1  0.4545430000000  0.4863760000000  0.4070350000000 1.0
C      1  0.4526050000000  0.5136920000000  0.5749680000000 1.0
C      1  0.4722560000000  0.5747540000000  0.4407810000000 1.0
C      1  0.5673720000000  0.4341540000000  0.5072060000000 1.0
C      1  0.5014750000000  0.4185850000000  0.4304170000000 1.0
C      1  0.5746490000000  0.5703860000000  0.4890960000000 1.0
C      1  0.5070890000000  0.4878680000000  0.4573280000000 1.0
C      1  0.5784270000000  0.4247700000000  0.4576710000000 1.0
C      1  0.4805910000000  0.5456630000000  0.4373780000000 1.0
C      1  0.5014490000000  0.4755100000000  0.5043470000000 1.0
C      1  0.4959950000000  0.4215430000000  0.5290410000000 1.0
C      1  0.4886130000000  0.5243760000000  0.3944490000000 1.0
C      1  0.5995630000000  0.4571340000000  0.4860070000000 1.0
C      1  0.4856390000000  0.5223410000000  0.5481450000000 1.0
C      1  0.4208850000000  0.4355090000000  0.4946630000000 1.0
C      1  0.4310550000000  0.5561300000000  0.4628230000000 1.0
C      1  0.5402210000000  0.4444560000000  0.4971860000000 1.0
C      1  0.5131950000000  0.4058380000000  0.5471990000000 1.0
C      1  0.5114160000000  0.5301200000000  0.5021430000000 1.0
C      1  0.4979840000000  0.4982530000000  0.5967600000000 1.0
C      1  0.4515380000000  0.4454040000000  0.4327860000000 1.0
C      1  0.5377160000000  0.5401670000000  0.5421870000000 1.0
C      1  0.5550240000000  0.4374040000000  0.4460290000000 1.0
C      1  0.4240300000000  0.5478000000000  0.4357630000000 1.0
C      1  0.5420910000000  0.5721440000000  0.5639210000000 1.0
C      1  0.5146990000000  0.4574630000000  0.5754850000000 1.0
C      1  0.4251020000000  0.4332300000000  0.5249560000000 1.0
C      1  0.5282160000000  0.5840230000000  0.4854270000000 1.0
C      1  0.4369240000000  0.5360760000000  0.5640080000000 1.0
C      1  0.3974000000000  0.5046390000000  0.5069460000000 1.0
C      1  0.5578250000000  0.5274120000000  0.4963320000000 1.0
C      1  0.4869650000000  0.4070920000000  0.5041210000000 1.0
C      1  0.3998480000000  0.5243660000000  0.4830680000000 1.0
C      1  0.5827630000000  0.5041020000000  0.5443380000000 1.0
C      1  0.4459230000000  0.5725130000000  0.5299240000000 1.0
C      1  0.5212390000000  0.5897850000000  0.5558810000000 1.0
C      1  0.5795930000000  0.4490560000000  0.5282380000000 1.0
C      1  0.4547870000000  0.5091410000000  0.4249730000000 1.0
C      1  0.5438280000000  0.4986680000000  0.5792590000000 1.0
C      1  0.5467180000000  0.5514560000000  0.5829880000000 1.0
C      1  0.5327860000000  0.5787800000000  0.5142560000000 1.0
C      1  0.4421580000000  0.5302490000000  0.4733180000000 1.0
C      1  0.5246090000000  0.5106220000000  0.5985120000000 1.0
C      1  0.5975550000000  0.4957150000000  0.5185990000000 1.0
C      1  0.5953920000000  0.5015630000000  0.4704380000000 1.0
C      1  0.5530460000000  0.5774030000000  0.4706410000000 1.0
C      1  0.5134080000000  0.4410650000000  0.4191180000000 1.0
C      1  0.5361020000000  0.5091280000000  0.5512470000000 1.0
C      1  0.5360870000000  0.4869450000000  0.4583480000000 1.0
C      1  0.4568460000000  0.4822530000000  0.4668740000000 1.0
C      1  0.4549880000000  0.5764570000000  0.4652580000000 1.0
C      1  0.5565760000000  0.5232700000000  0.4309100000000 1.0
C      1  0.4771080000000  0.5182830000000  0.5905080000000 1.0
C      1  0.5813710000000  0.4753870000000  0.4705810000000 1.0
C      1  0.4937370000000  0.5850420000000  0.5619920000000 1.0
C      1  0.4568110000000  0.4631190000000  0.5765670000000 1.0
C      1  0.5013990000000  0.4668340000000  0.5483440000000 1.0
C      1  0.4766540000000  0.5665060000000  0.5758610000000 1.0
C      1  0.5408620000000  0.4150610000000  0.4560990000000 1.0
C      1  0.5416520000000  0.4483740000000  0.4225610000000 1.0
C      1  0.5086380000000  0.4998760000000  0.5423650000000 1.0
C      1  0.5971980000000  0.4662680000000  0.5139500000000 1.0
C      1  0.4543310000000  0.4660560000000  0.5079590000000 1.0
C      1  0.4104940000000  0.5060700000000  0.5341240000000 1.0
C      1  0.4667380000000  0.4545190000000  0.5495130000000 1.0
C      1  0.5015820000000  0.5837750000000  0.4740530000000 1.0
C      1  0.5277440000000  0.4211320000000  0.4804600000000 1.0
C      1  0.4715070000000  0.5279080000000  0.4651120000000 1.0
C      1  0.5137080000000  0.4503040000000  0.5216810000000 1.0
C      1  0.5198280000000  0.4278110000000  0.5769130000000 1.0
C      1  0.4279180000000  0.4767440000000  0.4616810000000 1.0
C      1  0.4706370000000  0.4585840000000  0.6002570000000 1.0
C      1  0.5730780000000  0.5348180000000  0.5748510000000 1.0
C      1  0.5483320000000  0.4979170000000  0.5054880000000 1.0
C      1  0.5729360000000  0.5456720000000  0.4465710000000 1.0
C      1  0.5855380000000  0.4805810000000  0.4403280000000 1.0
C      1  0.5723890000000  0.5063520000000  0.5812890000000 1.0
C      1  0.4632160000000  0.5039100000000  0.5335480000000 1.0
C      1  0.4577200000000  0.4212960000000  0.4516660000000 1.0
C      1  0.5880900000000  0.4298910000000  0.4848880000000 1.0
C      1  0.5054000000000  0.4042330000000  0.5738970000000 1.0
C      1  0.4021580000000  0.5528770000000  0.5329240000000 1.0
C      1  0.5316000000000  0.5407390000000  0.4831410000000 1.0
C      1  0.4759260000000  0.5771960000000  0.4869380000000 1.0
C      1  0.5210220000000  0.5387470000000  0.5927370000000 1.0
C      1  0.5999850000000  0.5137330000000  0.4955120000000 1.0
C      1  0.4404800000000  0.4591470000000  0.5320560000000 1.0
C      1  0.4986390000000  0.4171340000000  0.4793690000000 1.0
C      1  0.4681760000000  0.4628620000000  0.4139730000000 1.0
C      1  0.4749850000000  0.4827160000000  0.5163810000000 1.0
C      1  0.5125160000000  0.5491840000000  0.4364270000000 1.0
C      1  0.4267940000000  0.4583140000000  0.4389340000000 1.0
C      1  0.4161180000000  0.5057890000000  0.4575280000000 1.0
C      1  0.4573630000000  0.4028310000000  0.5034870000000 1.0
C      1  0.5811960000000  0.5421020000000  0.4771470000000 1.0
C      1  0.5559830000000  0.4950130000000  0.5342560000000 1.0
C      1  0.5261460000000  0.6017550000000  0.5311150000000 1.0
END
