TITL C-951346-9544-328 -1.10798149589116e-06 125000 -891.559045246528 0 0 142 (C1) n - 1
REM
REM in /home/bkarasulu/work/CARBON/AIRSS/Generating-Clusters/EDIP-Nigel-Params/with-SteepDescent/Only-C1/SD-CG/HFTN-CG
REM
REM
REM
REM
REM
REM ./C.cell (11c1c37f851c82e70ff6c80c92926a4b)
REM
REM compiler GCC version 9.2.1 20190827 (Red Hat 9.2.1-1)
REM options -cpp -mtune=generic -march=x86-64 -g -O0 -fpre-include=/usr/include/finclude/math-vector-fortran.h
REM seed -715035427 2015949653 -1421412136 -460374236 1930128919 1903251695 550172832 1872339609 1951162113 -283082425 -1743758290 679359944 -834788109 1295702906 1901850493 -1500248726 1079822058 1008502832 -1874837300 2110766346 830921250 -1147141235 -1074193088 -638590291 1662633290 833817831 1353782490 -1664080738 -1983726541 -396904716 365430099 -883527854 -50928944
REM
CELL 1.54180   50.00000   50.00000   50.00000   90.00000   90.00000   90.00000
LATT -1
SFAC C  
C      1  0.5679680000000  0.4463730000000  0.4665750000000 1.0
C      1  0.5042940000000  0.5215110000000  0.5640570000000 1.0
C      1  0.5923990000000  0.5145050000000  0.4561420000000 1.0
C      1  0.4099070000000  0.5602620000000  0.4890840000000 1.0
C      1  0.4623470000000  0.5135660000000  0.4639440000000 1.0
C      1  0.5720260000000  0.5352310000000  0.4665320000000 1.0
C      1  0.4726830000000  0.5735040000000  0.5295010000000 1.0
C      1  0.4653710000000  0.5675030000000  0.4560660000000 1.0
C      1  0.4324810000000  0.4473700000000  0.5419850000000 1.0
C      1  0.5946640000000  0.5089980000000  0.5193370000000 1.0
C      1  0.4621530000000  0.4311160000000  0.4523360000000 1.0
C      1  0.5880720000000  0.5378980000000  0.5143480000000 1.0
C      1  0.4584150000000  0.5385460000000  0.5748640000000 1.0
C      1  0.3830290000000  0.4921930000000  0.4967250000000 1.0
C      1  0.5374590000000  0.4927150000000  0.3971280000000 1.0
C      1  0.5269710000000  0.5872160000000  0.4599500000000 1.0
C      1  0.4983770000000  0.4891780000000  0.6013220000000 1.0
C      1  0.5169720000000  0.4408230000000  0.4532710000000 1.0
C      1  0.4313930000000  0.5268720000000  0.5084980000000 1.0
C      1  0.4158430000000  0.4986170000000  0.4425790000000 1.0
C      1  0.5739900000000  0.5065680000000  0.5428140000000 1.0
C      1  0.5946420000000  0.4598780000000  0.5067760000000 1.0
C      1  0.5479410000000  0.5063570000000  0.5280110000000 1.0
C      1  0.5448630000000  0.4888450000000  0.4479890000000 1.0
C      1  0.5253440000000  0.5034230000000  0.6001290000000 1.0
C      1  0.5048290000000  0.4098080000000  0.5498000000000 1.0
C      1  0.5577660000000  0.5164190000000  0.4287600000000 1.0
C      1  0.4899490000000  0.5676960000000  0.5535190000000 1.0
C      1  0.4136330000000  0.4461660000000  0.4380380000000 1.0
C      1  0.5463880000000  0.4063990000000  0.4740910000000 1.0
C      1  0.5204870000000  0.5378800000000  0.4762620000000 1.0
C      1  0.4416230000000  0.4818530000000  0.4054290000000 1.0
C      1  0.5482380000000  0.5197620000000  0.4004060000000 1.0
C      1  0.4825140000000  0.4584250000000  0.4217400000000 1.0
C      1  0.5080000000000  0.4959990000000  0.4824030000000 1.0
C      1  0.5993750000000  0.4550180000000  0.5335600000000 1.0
C      1  0.4366970000000  0.4664660000000  0.5684690000000 1.0
C      1  0.3878850000000  0.5172410000000  0.4831020000000 1.0
C      1  0.5592400000000  0.4275850000000  0.5401050000000 1.0
C      1  0.5074880000000  0.5561250000000  0.4967390000000 1.0
C      1  0.5531570000000  0.4736130000000  0.4132320000000 1.0
C      1  0.4347580000000  0.5039830000000  0.4206490000000 1.0
C      1  0.4886630000000  0.4357900000000  0.4393080000000 1.0
C      1  0.4582410000000  0.5102950000000  0.5817080000000 1.0
C      1  0.5826870000000  0.4682370000000  0.4531930000000 1.0
C      1  0.5860490000000  0.5512670000000  0.4876790000000 1.0
C      1  0.4890630000000  0.5061830000000  0.4509690000000 1.0
C      1  0.4077310000000  0.5197230000000  0.4614290000000 1.0
C      1  0.5556810000000  0.5811620000000  0.5120550000000 1.0
C      1  0.4793770000000  0.5362170000000  0.4200750000000 1.0
C      1  0.5267730000000  0.4586270000000  0.5860630000000 1.0
C      1  0.5399890000000  0.4634530000000  0.5133900000000 1.0
C      1  0.5394340000000  0.4842640000000  0.5843640000000 1.0
C      1  0.5918510000000  0.5392840000000  0.5622670000000 1.0
C      1  0.4345350000000  0.4777610000000  0.4879430000000 1.0
C      1  0.4511210000000  0.5432270000000  0.4669980000000 1.0
C      1  0.5034020000000  0.4993570000000  0.5137850000000 1.0
C      1  0.4921400000000  0.4348580000000  0.5416920000000 1.0
C      1  0.5833670000000  0.4405120000000  0.5509770000000 1.0
C      1  0.5466730000000  0.5252650000000  0.4805420000000 1.0
C      1  0.5658960000000  0.5736500000000  0.5393420000000 1.0
C      1  0.5080630000000  0.4961940000000  0.4030020000000 1.0
C      1  0.5475810000000  0.5412990000000  0.5755350000000 1.0
C      1  0.4279210000000  0.5747330000000  0.5085240000000 1.0
C      1  0.5137490000000  0.5979510000000  0.5309660000000 1.0
C      1  0.5337240000000  0.4182240000000  0.4965610000000 1.0
C      1  0.5321600000000  0.5978620000000  0.5083050000000 1.0
C      1  0.5560960000000  0.5786650000000  0.4603120000000 1.0
C      1  0.5469630000000  0.4280390000000  0.4555650000000 1.0
C      1  0.4861460000000  0.4085970000000  0.5703060000000 1.0
C      1  0.5722450000000  0.5250700000000  0.5770700000000 1.0
C      1  0.4357100000000  0.4969650000000  0.5681890000000 1.0
C      1  0.4442640000000  0.4131890000000  0.4971730000000 1.0
C      1  0.4211850000000  0.5459920000000  0.4636780000000 1.0
C      1  0.5138600000000  0.5862300000000  0.4874990000000 1.0
C      1  0.4787600000000  0.5527430000000  0.5082030000000 1.0
C      1  0.5004960000000  0.5253520000000  0.4013380000000 1.0
C      1  0.5924390000000  0.4893920000000  0.4706960000000 1.0
C      1  0.4853170000000  0.4733190000000  0.4796580000000 1.0
C      1  0.5229870000000  0.5294630000000  0.5859650000000 1.0
C      1  0.5604330000000  0.5535290000000  0.4424410000000 1.0
C      1  0.4350950000000  0.5460370000000  0.5577970000000 1.0
C      1  0.4686800000000  0.5895770000000  0.4729120000000 1.0
C      1  0.4435450000000  0.4202430000000  0.5481460000000 1.0
C      1  0.4989810000000  0.4598050000000  0.5964320000000 1.0
C      1  0.4848540000000  0.6002130000000  0.5194830000000 1.0
C      1  0.5677590000000  0.4861520000000  0.5751330000000 1.0
C      1  0.4295310000000  0.4525640000000  0.4725380000000 1.0
C      1  0.5211910000000  0.4702750000000  0.4433060000000 1.0
C      1  0.5267120000000  0.5398980000000  0.4021110000000 1.0
C      1  0.4161090000000  0.5196010000000  0.5602730000000 1.0
C      1  0.4526100000000  0.4590880000000  0.5235760000000 1.0
C      1  0.5451050000000  0.4400510000000  0.5732520000000 1.0
C      1  0.4619400000000  0.4921110000000  0.4863500000000 1.0
C      1  0.4734160000000  0.4384490000000  0.5174340000000 1.0
C      1  0.5849100000000  0.4870760000000  0.4998420000000 1.0
C      1  0.4414300000000  0.4396400000000  0.4325290000000 1.0
C      1  0.5799900000000  0.4781200000000  0.4249680000000 1.0
C      1  0.5089620000000  0.4301640000000  0.4838190000000 1.0
C      1  0.5179730000000  0.5702110000000  0.5432810000000 1.0
C      1  0.4140630000000  0.4742820000000  0.5113080000000 1.0
C      1  0.5207600000000  0.5486280000000  0.5222180000000 1.0
C      1  0.5443550000000  0.5667340000000  0.5595030000000 1.0
C      1  0.4648790000000  0.4550030000000  0.5787150000000 1.0
C      1  0.4880490000000  0.6011720000000  0.4893330000000 1.0
C      1  0.5306880000000  0.5502930000000  0.4300690000000 1.0
C      1  0.4471480000000  0.5193110000000  0.5323950000000 1.0
C      1  0.4543740000000  0.4590390000000  0.4151690000000 1.0
C      1  0.5051310000000  0.4607820000000  0.5473820000000 1.0
C      1  0.4108760000000  0.4451360000000  0.5186580000000 1.0
C      1  0.5863330000000  0.5077400000000  0.4276710000000 1.0
C      1  0.5522000000000  0.4364570000000  0.5119620000000 1.0
C      1  0.4210930000000  0.4315880000000  0.4931760000000 1.0
C      1  0.4985910000000  0.4828490000000  0.4285700000000 1.0
C      1  0.5129020000000  0.5732700000000  0.4367240000000 1.0
C      1  0.5117650000000  0.4688310000000  0.5194520000000 1.0
C      1  0.4618660000000  0.4244920000000  0.5716120000000 1.0
C      1  0.4031270000000  0.5174630000000  0.5334310000000 1.0
C      1  0.5884320000000  0.5543220000000  0.5385600000000 1.0
C      1  0.5534450000000  0.4877900000000  0.5041550000000 1.0
C      1  0.4945570000000  0.4524710000000  0.4992950000000 1.0
C      1  0.5705650000000  0.5763420000000  0.4871210000000 1.0
C      1  0.4900280000000  0.4084290000000  0.4815640000000 1.0
C      1  0.4420910000000  0.5695030000000  0.5346120000000 1.0
C      1  0.5200860000000  0.5193790000000  0.5323710000000 1.0
C      1  0.4515070000000  0.5470070000000  0.4964460000000 1.0
C      1  0.5085170000000  0.5280270000000  0.4523050000000 1.0
C      1  0.5392420000000  0.4973780000000  0.4779660000000 1.0
C      1  0.4811530000000  0.4751940000000  0.5584080000000 1.0
C      1  0.3945560000000  0.5385490000000  0.5022980000000 1.0
C      1  0.4621160000000  0.4834090000000  0.5360920000000 1.0
C      1  0.5764450000000  0.4401840000000  0.4944090000000 1.0
C      1  0.4847660000000  0.5614750000000  0.4355120000000 1.0
C      1  0.4858380000000  0.4993080000000  0.5762800000000 1.0
C      1  0.4531320000000  0.5253330000000  0.4199080000000 1.0
C      1  0.4063140000000  0.4716690000000  0.4484380000000 1.0
C      1  0.4835190000000  0.5419680000000  0.5620440000000 1.0
C      1  0.4725550000000  0.5025630000000  0.5142290000000 1.0
C      1  0.5707290000000  0.4550950000000  0.5728350000000 1.0
C      1  0.4634430000000  0.4125280000000  0.4746730000000 1.0
C      1  0.3921580000000  0.4919230000000  0.5246810000000 1.0
C      1  0.4534060000000  0.4063640000000  0.5242340000000 1.0
END
