TITL C-950532-2784-46 7.0217691299222e-07 125000 -763.204124096526 0 0 120 (C1) n - 1
REM
REM in /home/bkarasulu/work/CARBON/AIRSS/Generating-Clusters/EDIP-Nigel-Params/with-SteepDescent/Only-C1/SD-CG/HFTN-CG
REM
REM
REM
REM
REM
REM ./C.cell (11c1c37f851c82e70ff6c80c92926a4b)
REM
REM compiler GCC version 9.2.1 20190827 (Red Hat 9.2.1-1)
REM options -cpp -mtune=generic -march=x86-64 -g -O0 -fpre-include=/usr/include/finclude/math-vector-fortran.h
REM seed -884656449 -1109175812 1170851864 -956689237 1673541473 -1188626816 1035876260 1452569230 555377288 228155876 -423163172 195076581 1502719803 496303757 -1344879665 -1335401809 1336201995 1595116620 -910635253 -1412912904 2093953496 -1931747646 2127462858 -1192894748 1287123615 -1206581927 1579303644 -1193906872 -270102654 -113540538 661389678 1293782866 -158236745
REM
CELL 1.54180   50.00000   50.00000   50.00000   90.00000   90.00000   90.00000
LATT -1
SFAC C  
C      1  0.4520910000000  0.5776710000000  0.4902420000000 1.0
C      1  0.5162530000000  0.4358740000000  0.5612360000000 1.0
C      1  0.5633750000000  0.5319800000000  0.5023010000000 1.0
C      1  0.4761810000000  0.4508740000000  0.4259160000000 1.0
C      1  0.4928770000000  0.5719570000000  0.4618400000000 1.0
C      1  0.4111390000000  0.4881550000000  0.4663860000000 1.0
C      1  0.5081780000000  0.4887740000000  0.5572900000000 1.0
C      1  0.5524960000000  0.5717530000000  0.4652670000000 1.0
C      1  0.4235670000000  0.5346490000000  0.4570720000000 1.0
C      1  0.4396940000000  0.4645150000000  0.5289970000000 1.0
C      1  0.4606420000000  0.5276200000000  0.5161960000000 1.0
C      1  0.4627800000000  0.4288720000000  0.5518410000000 1.0
C      1  0.5855960000000  0.5475030000000  0.5148620000000 1.0
C      1  0.5395850000000  0.4533860000000  0.5678860000000 1.0
C      1  0.6002690000000  0.5312590000000  0.5329030000000 1.0
C      1  0.5082810000000  0.5851250000000  0.4834500000000 1.0
C      1  0.4975940000000  0.5296710000000  0.4866560000000 1.0
C      1  0.5284440000000  0.4736830000000  0.4127880000000 1.0
C      1  0.4508680000000  0.4332800000000  0.4597610000000 1.0
C      1  0.5960750000000  0.4725020000000  0.4878030000000 1.0
C      1  0.4337440000000  0.5096950000000  0.5508010000000 1.0
C      1  0.5025150000000  0.5601120000000  0.5571630000000 1.0
C      1  0.4963900000000  0.5915120000000  0.5095550000000 1.0
C      1  0.4755880000000  0.4591630000000  0.5933190000000 1.0
C      1  0.5135920000000  0.5867760000000  0.5550940000000 1.0
C      1  0.5343090000000  0.4153610000000  0.4908180000000 1.0
C      1  0.5033860000000  0.4754040000000  0.4646110000000 1.0
C      1  0.5707070000000  0.5021740000000  0.5017210000000 1.0
C      1  0.5446580000000  0.4251020000000  0.5179890000000 1.0
C      1  0.5207800000000  0.5182660000000  0.5880990000000 1.0
C      1  0.4776550000000  0.4235110000000  0.4617820000000 1.0
C      1  0.4946970000000  0.5072740000000  0.5969430000000 1.0
C      1  0.4735200000000  0.5612880000000  0.5638500000000 1.0
C      1  0.4929710000000  0.5154870000000  0.5519430000000 1.0
C      1  0.5363440000000  0.4372770000000  0.4696400000000 1.0
C      1  0.5398610000000  0.5127680000000  0.4643380000000 1.0
C      1  0.4213690000000  0.4873350000000  0.5362980000000 1.0
C      1  0.4257530000000  0.5719960000000  0.4973430000000 1.0
C      1  0.5256530000000  0.4800020000000  0.5327070000000 1.0
C      1  0.4999570000000  0.4083790000000  0.5250140000000 1.0
C      1  0.4024050000000  0.5048700000000  0.4899150000000 1.0
C      1  0.5221630000000  0.5422240000000  0.5718530000000 1.0
C      1  0.4637410000000  0.5665100000000  0.4655230000000 1.0
C      1  0.4833050000000  0.5475240000000  0.5081130000000 1.0
C      1  0.4556260000000  0.5655480000000  0.5408600000000 1.0
C      1  0.5104740000000  0.5251560000000  0.4599540000000 1.0
C      1  0.5429380000000  0.4993110000000  0.5823040000000 1.0
C      1  0.5337270000000  0.5322880000000  0.5230870000000 1.0
C      1  0.4995190000000  0.5520180000000  0.4175130000000 1.0
C      1  0.5789760000000  0.5112090000000  0.4579910000000 1.0
C      1  0.5937070000000  0.5001220000000  0.4823540000000 1.0
C      1  0.5367510000000  0.5797510000000  0.4875760000000 1.0
C      1  0.4535360000000  0.4759340000000  0.5861610000000 1.0
C      1  0.4934310000000  0.4309720000000  0.4394520000000 1.0
C      1  0.5048550000000  0.5445110000000  0.5302430000000 1.0
C      1  0.5719380000000  0.4586610000000  0.4928560000000 1.0
C      1  0.4384910000000  0.4425660000000  0.5480520000000 1.0
C      1  0.4704820000000  0.5753410000000  0.5136090000000 1.0
C      1  0.4872810000000  0.4683840000000  0.5519770000000 1.0
C      1  0.4495670000000  0.4573190000000  0.4405290000000 1.0
C      1  0.5857350000000  0.5262010000000  0.5566920000000 1.0
C      1  0.4364180000000  0.4720520000000  0.4734760000000 1.0
C      1  0.4585050000000  0.4095110000000  0.5018980000000 1.0
C      1  0.5525410000000  0.5446020000000  0.4252050000000 1.0
C      1  0.4808680000000  0.4033940000000  0.4821550000000 1.0
C      1  0.5009070000000  0.4775600000000  0.5936080000000 1.0
C      1  0.5433360000000  0.4924010000000  0.4884010000000 1.0
C      1  0.4403480000000  0.4297760000000  0.4875060000000 1.0
C      1  0.4384790000000  0.5403400000000  0.5332570000000 1.0
C      1  0.4856380000000  0.4821630000000  0.4879390000000 1.0
C      1  0.4776510000000  0.5057660000000  0.5274160000000 1.0
C      1  0.4615120000000  0.5125680000000  0.4114140000000 1.0
C      1  0.5431730000000  0.5324530000000  0.5526410000000 1.0
C      1  0.5674830000000  0.4893350000000  0.4397240000000 1.0
C      1  0.5339030000000  0.4473130000000  0.4202550000000 1.0
C      1  0.4191500000000  0.5479680000000  0.5097100000000 1.0
C      1  0.5101260000000  0.5535130000000  0.4448870000000 1.0
C      1  0.4745110000000  0.5187470000000  0.5774130000000 1.0
C      1  0.4659060000000  0.5039640000000  0.4543590000000 1.0
C      1  0.5071720000000  0.4017050000000  0.4972220000000 1.0
C      1  0.4829600000000  0.4593000000000  0.4002250000000 1.0
C      1  0.4843590000000  0.4614070000000  0.5082800000000 1.0
C      1  0.4472980000000  0.5497640000000  0.4464540000000 1.0
C      1  0.4469340000000  0.4956370000000  0.4335360000000 1.0
C      1  0.5426440000000  0.5753340000000  0.5159060000000 1.0
C      1  0.5014500000000  0.4798550000000  0.4036090000000 1.0
C      1  0.5096530000000  0.5273370000000  0.4089750000000 1.0
C      1  0.4326100000000  0.4555660000000  0.4996060000000 1.0
C      1  0.5670620000000  0.5507810000000  0.5551320000000 1.0
C      1  0.4945580000000  0.5015560000000  0.4471880000000 1.0
C      1  0.4219780000000  0.5273830000000  0.4873350000000 1.0
C      1  0.5132040000000  0.4567820000000  0.5149910000000 1.0
C      1  0.4038020000000  0.4933100000000  0.5154060000000 1.0
C      1  0.5525000000000  0.4687860000000  0.5433930000000 1.0
C      1  0.4725420000000  0.4172530000000  0.5267930000000 1.0
C      1  0.4655250000000  0.5451950000000  0.5847270000000 1.0
C      1  0.4916120000000  0.5050390000000  0.4157410000000 1.0
C      1  0.5622030000000  0.4492760000000  0.5196040000000 1.0
C      1  0.5713420000000  0.4623620000000  0.4466750000000 1.0
C      1  0.5647760000000  0.5013630000000  0.5601220000000 1.0
C      1  0.4508210000000  0.5014320000000  0.5737300000000 1.0
C      1  0.5642360000000  0.4459270000000  0.4681600000000 1.0
C      1  0.4480680000000  0.5159150000000  0.4933140000000 1.0
C      1  0.4201010000000  0.5070120000000  0.4441060000000 1.0
C      1  0.5685560000000  0.5669920000000  0.5293450000000 1.0
C      1  0.5258940000000  0.4635960000000  0.4828310000000 1.0
C      1  0.5370420000000  0.5225130000000  0.4172540000000 1.0
C      1  0.4981980000000  0.5050110000000  0.5031370000000 1.0
C      1  0.5195110000000  0.5887710000000  0.5279530000000 1.0
C      1  0.5600590000000  0.5351230000000  0.4713740000000 1.0
C      1  0.5266870000000  0.5026490000000  0.5126150000000 1.0
C      1  0.4696910000000  0.4748080000000  0.5296210000000 1.0
C      1  0.5388780000000  0.5615720000000  0.4425690000000 1.0
C      1  0.4565000000000  0.5388410000000  0.4216320000000 1.0
C      1  0.5438130000000  0.4953690000000  0.4243410000000 1.0
C      1  0.4849880000000  0.4435970000000  0.5677330000000 1.0
C      1  0.5230760000000  0.4327660000000  0.4416660000000 1.0
C      1  0.5185160000000  0.4300450000000  0.5318140000000 1.0
C      1  0.4583820000000  0.4926290000000  0.4789830000000 1.0
C      1  0.5322650000000  0.4726120000000  0.5893030000000 1.0
END
