TITL C-950525-1983-583 -9.77957786237567e-08 125000 -919.946329230155 0 0 146 (C1) n - 1
REM
REM in /home/bkarasulu/work/CARBON/AIRSS/Generating-Clusters/EDIP-Nigel-Params/with-SteepDescent/Only-C1/SD-CG/HFTN-CG
REM
REM
REM
REM
REM
REM ./C.cell (11c1c37f851c82e70ff6c80c92926a4b)
REM
REM compiler GCC version 9.2.1 20190827 (Red Hat 9.2.1-1)
REM options -cpp -mtune=generic -march=x86-64 -g -O0 -fpre-include=/usr/include/finclude/math-vector-fortran.h
REM seed 268961677 1772631048 -1443161668 66936653 -183653449 71719386 -1007044464 -2072937979 -1919314275 -707137684 1302043149 1914446466 -214434193 -995716889 305506624 529017288 -820384347 710743689 -888328842 -41034835 -1399230037 1633069081 1173286763 -332304551 -694047134 472941130 -1253162401 -1310107140 -1415464569 295542851 1832377578 -1913432186 750934455
REM
CELL 1.54180   50.00000   50.00000   50.00000   90.00000   90.00000   90.00000
LATT -1
SFAC C  
C      1  0.4309730000000  0.5809240000000  0.5168300000000 1.0
C      1  0.4740880000000  0.5178760000000  0.5077410000000 1.0
C      1  0.5377920000000  0.5344550000000  0.4601420000000 1.0
C      1  0.5106150000000  0.5882920000000  0.5402390000000 1.0
C      1  0.4757690000000  0.4380520000000  0.5035110000000 1.0
C      1  0.4431510000000  0.5280960000000  0.4322060000000 1.0
C      1  0.4541290000000  0.5235810000000  0.5803160000000 1.0
C      1  0.4938350000000  0.4523160000000  0.5517850000000 1.0
C      1  0.5457640000000  0.5503650000000  0.5781440000000 1.0
C      1  0.5458590000000  0.5214110000000  0.5876720000000 1.0
C      1  0.4868150000000  0.4983730000000  0.4479020000000 1.0
C      1  0.5184900000000  0.4660850000000  0.5847570000000 1.0
C      1  0.4706890000000  0.5388720000000  0.4854620000000 1.0
C      1  0.3947580000000  0.4609940000000  0.5092630000000 1.0
C      1  0.5353310000000  0.4947770000000  0.5483010000000 1.0
C      1  0.4150870000000  0.4390450000000  0.4765070000000 1.0
C      1  0.4962560000000  0.5493050000000  0.4394380000000 1.0
C      1  0.5558630000000  0.4046490000000  0.4961350000000 1.0
C      1  0.4586870000000  0.5535830000000  0.4265220000000 1.0
C      1  0.4370860000000  0.4351780000000  0.4589390000000 1.0
C      1  0.5010700000000  0.5402620000000  0.5854590000000 1.0
C      1  0.4453560000000  0.5008480000000  0.5434710000000 1.0
C      1  0.5784310000000  0.5220550000000  0.5218670000000 1.0
C      1  0.4525100000000  0.3998590000000  0.4909450000000 1.0
C      1  0.4867140000000  0.4281810000000  0.4334090000000 1.0
C      1  0.4951430000000  0.5959750000000  0.4850420000000 1.0
C      1  0.4322040000000  0.5486470000000  0.5130650000000 1.0
C      1  0.5197710000000  0.5622350000000  0.5841940000000 1.0
C      1  0.4883660000000  0.5881270000000  0.4575090000000 1.0
C      1  0.4135170000000  0.5339250000000  0.4723200000000 1.0
C      1  0.4248970000000  0.4482200000000  0.5441780000000 1.0
C      1  0.4692870000000  0.5513340000000  0.5368310000000 1.0
C      1  0.5154520000000  0.4327080000000  0.4338470000000 1.0
C      1  0.5970460000000  0.5162110000000  0.4664860000000 1.0
C      1  0.5264770000000  0.5467890000000  0.4344010000000 1.0
C      1  0.5081090000000  0.5645400000000  0.5191250000000 1.0
C      1  0.4439110000000  0.5931720000000  0.4927600000000 1.0
C      1  0.4518040000000  0.4108330000000  0.4648580000000 1.0
C      1  0.5077580000000  0.4650340000000  0.4768610000000 1.0
C      1  0.5464610000000  0.4805850000000  0.5000810000000 1.0
C      1  0.4849690000000  0.5471110000000  0.4111410000000 1.0
C      1  0.4066290000000  0.5216430000000  0.5465950000000 1.0
C      1  0.4832620000000  0.4708040000000  0.4064470000000 1.0
C      1  0.5782290000000  0.4733620000000  0.4518150000000 1.0
C      1  0.4906090000000  0.5283710000000  0.4622140000000 1.0
C      1  0.5286520000000  0.4106310000000  0.5014730000000 1.0
C      1  0.4605680000000  0.5728600000000  0.5540400000000 1.0
C      1  0.5942420000000  0.4980500000000  0.5182980000000 1.0
C      1  0.4058880000000  0.5344140000000  0.5188680000000 1.0
C      1  0.4885960000000  0.5255040000000  0.5364220000000 1.0
C      1  0.4957380000000  0.4659070000000  0.6040430000000 1.0
C      1  0.4915590000000  0.5199830000000  0.4009560000000 1.0
C      1  0.4623280000000  0.5748800000000  0.4499250000000 1.0
C      1  0.5704170000000  0.5288900000000  0.5480500000000 1.0
C      1  0.5344880000000  0.5932310000000  0.5223800000000 1.0
C      1  0.4470000000000  0.4369400000000  0.5566430000000 1.0
C      1  0.4722280000000  0.5455760000000  0.5871060000000 1.0
C      1  0.5141060000000  0.4815550000000  0.4518230000000 1.0
C      1  0.5902940000000  0.4678260000000  0.4780760000000 1.0
C      1  0.5514420000000  0.4407660000000  0.4646300000000 1.0
C      1  0.4017800000000  0.4930460000000  0.5435230000000 1.0
C      1  0.5562560000000  0.4837210000000  0.4106500000000 1.0
C      1  0.4716250000000  0.4416200000000  0.5686980000000 1.0
C      1  0.5906770000000  0.5622870000000  0.4907720000000 1.0
C      1  0.4234630000000  0.4470220000000  0.5137170000000 1.0
C      1  0.5242710000000  0.4602280000000  0.4302460000000 1.0
C      1  0.5266820000000  0.4383910000000  0.5120260000000 1.0
C      1  0.4396910000000  0.4821660000000  0.4390660000000 1.0
C      1  0.5822810000000  0.4467090000000  0.4964690000000 1.0
C      1  0.5271970000000  0.4933100000000  0.5187710000000 1.0
C      1  0.4539070000000  0.4595950000000  0.5091170000000 1.0
C      1  0.5593480000000  0.5084700000000  0.4272240000000 1.0
C      1  0.5624950000000  0.5605800000000  0.4994670000000 1.0
C      1  0.5903760000000  0.4759060000000  0.5378840000000 1.0
C      1  0.4209160000000  0.4744850000000  0.5546800000000 1.0
C      1  0.5701310000000  0.4603810000000  0.5820570000000 1.0
C      1  0.4137500000000  0.4937220000000  0.4492710000000 1.0
C      1  0.4851110000000  0.3999030000000  0.5300010000000 1.0
C      1  0.5691450000000  0.4323420000000  0.5438850000000 1.0
C      1  0.4483070000000  0.5923150000000  0.5372170000000 1.0
C      1  0.5181010000000  0.4322740000000  0.5562350000000 1.0
C      1  0.5449460000000  0.4630620000000  0.5940990000000 1.0
C      1  0.5332980000000  0.5759740000000  0.4329960000000 1.0
C      1  0.5401290000000  0.5301050000000  0.4133620000000 1.0
C      1  0.5704520000000  0.5526070000000  0.4491380000000 1.0
C      1  0.4767140000000  0.4095590000000  0.4521680000000 1.0
C      1  0.4621470000000  0.4837450000000  0.4591660000000 1.0
C      1  0.4852310000000  0.4919410000000  0.4957460000000 1.0
C      1  0.5154150000000  0.5379040000000  0.5293750000000 1.0
C      1  0.4862140000000  0.4935550000000  0.6037450000000 1.0
C      1  0.4911160000000  0.4369020000000  0.4758740000000 1.0
C      1  0.4748730000000  0.4484050000000  0.5958140000000 1.0
C      1  0.4785620000000  0.4984810000000  0.4172840000000 1.0
C      1  0.5156260000000  0.5143370000000  0.5909510000000 1.0
C      1  0.5541290000000  0.5756000000000  0.4536160000000 1.0
C      1  0.5210260000000  0.5149590000000  0.3968920000000 1.0
C      1  0.4696790000000  0.4489080000000  0.4222160000000 1.0
C      1  0.5592730000000  0.4600340000000  0.4314110000000 1.0
C      1  0.5786960000000  0.4830130000000  0.5650350000000 1.0
C      1  0.4382460000000  0.5475060000000  0.4827010000000 1.0
C      1  0.4999970000000  0.4792200000000  0.5171720000000 1.0
C      1  0.4672270000000  0.4113830000000  0.5119480000000 1.0
C      1  0.4468050000000  0.5177520000000  0.5187190000000 1.0
C      1  0.5156760000000  0.5289320000000  0.4795110000000 1.0
C      1  0.5308100000000  0.4866000000000  0.3949010000000 1.0
C      1  0.5765600000000  0.4352910000000  0.5710180000000 1.0
C      1  0.5146880000000  0.5835640000000  0.5672270000000 1.0
C      1  0.5431940000000  0.5735500000000  0.4801900000000 1.0
C      1  0.5347530000000  0.4567020000000  0.4881530000000 1.0
C      1  0.4688010000000  0.4981800000000  0.5805670000000 1.0
C      1  0.5855250000000  0.5009560000000  0.4434920000000 1.0
C      1  0.5252920000000  0.5936930000000  0.4925670000000 1.0
C      1  0.5899320000000  0.5451510000000  0.4680210000000 1.0
C      1  0.5529240000000  0.5518450000000  0.5487430000000 1.0
C      1  0.5409610000000  0.4404290000000  0.5386210000000 1.0
C      1  0.4286640000000  0.5279180000000  0.5657860000000 1.0
C      1  0.3977890000000  0.4615420000000  0.4810720000000 1.0
C      1  0.4618690000000  0.4716550000000  0.5381140000000 1.0
C      1  0.5100360000000  0.5900750000000  0.4399570000000 1.0
C      1  0.3909200000000  0.4875960000000  0.5180350000000 1.0
C      1  0.4617860000000  0.5712740000000  0.5821270000000 1.0
C      1  0.5605020000000  0.4999600000000  0.4820160000000 1.0
C      1  0.4407620000000  0.5744560000000  0.4702750000000 1.0
C      1  0.4984980000000  0.4495120000000  0.5202100000000 1.0
C      1  0.4862220000000  0.4956110000000  0.5555680000000 1.0
C      1  0.4496030000000  0.5027790000000  0.4188430000000 1.0
C      1  0.5581390000000  0.5288070000000  0.5008150000000 1.0
C      1  0.3985620000000  0.5155730000000  0.4925540000000 1.0
C      1  0.5429530000000  0.5039590000000  0.4551050000000 1.0
C      1  0.5588710000000  0.5064610000000  0.5633930000000 1.0
C      1  0.4717890000000  0.5924050000000  0.5060670000000 1.0
C      1  0.4426400000000  0.4521990000000  0.4346400000000 1.0
C      1  0.5313100000000  0.4203880000000  0.4546970000000 1.0
C      1  0.5564280000000  0.5723100000000  0.5270150000000 1.0
C      1  0.5141210000000  0.4916180000000  0.5685460000000 1.0
C      1  0.4177740000000  0.5226460000000  0.4461350000000 1.0
C      1  0.4593630000000  0.4804140000000  0.4881910000000 1.0
C      1  0.4792580000000  0.5629470000000  0.5105230000000 1.0
C      1  0.5051090000000  0.4090510000000  0.5459200000000 1.0
C      1  0.5986130000000  0.4939180000000  0.4886980000000 1.0
C      1  0.5129880000000  0.4134520000000  0.4766620000000 1.0
C      1  0.4067460000000  0.4888360000000  0.4766380000000 1.0
C      1  0.5701160000000  0.4246100000000  0.4821180000000 1.0
C      1  0.5876030000000  0.4480070000000  0.5261930000000 1.0
C      1  0.5276120000000  0.5224030000000  0.5076390000000 1.0
C      1  0.5123590000000  0.4652310000000  0.4035730000000 1.0
END
