TITL C-951345-2650-380 3.10382738099554e-06 125000 -1180.39694671776 0 0 189 (C1) n - 1
REM
REM in /home/bkarasulu/work/CARBON/AIRSS/Generating-Clusters/EDIP-Nigel-Params/with-SteepDescent/Only-C1/SD-CG/HFTN-CG
REM
REM
REM
REM
REM
REM ./C.cell (11c1c37f851c82e70ff6c80c92926a4b)
REM
REM compiler GCC version 9.2.1 20190827 (Red Hat 9.2.1-1)
REM options -cpp -mtune=generic -march=x86-64 -g -O0 -fpre-include=/usr/include/finclude/math-vector-fortran.h
REM seed -386820385 369006117 1207425007 164410769 -984268641 -1979087783 1945803603 -1613396265 -403711002 240676746 1328107705 -76529354 578706162 453091996 -1290973068 1292924783 553904026 -258003374 -656965436 -1194930594 1720451616 1141717859 -917523163 -2099878742 1408156202 -1794620256 1793425056 -1768881894 -1541469654 1672826727 -462377788 1849269575 962794422
REM
CELL 1.54180   50.00000   50.00000   50.00000   90.00000   90.00000   90.00000
LATT -1
SFAC C  
C      1  0.5049920000000  0.5326480000000  0.5665830000000 1.0
C      1  0.4789560000000  0.4686290000000  0.4089000000000 1.0
C      1  0.5311470000000  0.4966290000000  0.5674640000000 1.0
C      1  0.5500680000000  0.4022870000000  0.4910120000000 1.0
C      1  0.5113990000000  0.4445970000000  0.5330740000000 1.0
C      1  0.4275710000000  0.5082140000000  0.5723980000000 1.0
C      1  0.4830420000000  0.4372820000000  0.4720270000000 1.0
C      1  0.5460920000000  0.4597110000000  0.5978850000000 1.0
C      1  0.5965480000000  0.5161910000000  0.5461340000000 1.0
C      1  0.4962110000000  0.5711770000000  0.4642090000000 1.0
C      1  0.4416040000000  0.5174250000000  0.4418180000000 1.0
C      1  0.4650260000000  0.6011250000000  0.4753460000000 1.0
C      1  0.3890590000000  0.5230200000000  0.5162930000000 1.0
C      1  0.5369670000000  0.4412320000000  0.6176330000000 1.0
C      1  0.5346070000000  0.5999280000000  0.4703710000000 1.0
C      1  0.5319790000000  0.4130290000000  0.5773740000000 1.0
C      1  0.4068960000000  0.4661810000000  0.4246340000000 1.0
C      1  0.5473650000000  0.5518570000000  0.4872780000000 1.0
C      1  0.4562000000000  0.5961360000000  0.5290440000000 1.0
C      1  0.4781370000000  0.4578890000000  0.5997500000000 1.0
C      1  0.4771070000000  0.5529280000000  0.4758220000000 1.0
C      1  0.4402030000000  0.5859800000000  0.4682440000000 1.0
C      1  0.5915890000000  0.5625010000000  0.5449930000000 1.0
C      1  0.6085100000000  0.4750800000000  0.4965180000000 1.0
C      1  0.5644270000000  0.4820070000000  0.6064960000000 1.0
C      1  0.4991850000000  0.4768530000000  0.4806290000000 1.0
C      1  0.5253880000000  0.5808890000000  0.4255850000000 1.0
C      1  0.6100940000000  0.5228220000000  0.5200540000000 1.0
C      1  0.4463600000000  0.4711930000000  0.4729840000000 1.0
C      1  0.4470990000000  0.4357590000000  0.4293680000000 1.0
C      1  0.5488650000000  0.6094250000000  0.5159020000000 1.0
C      1  0.4418850000000  0.5359330000000  0.4018340000000 1.0
C      1  0.4636390000000  0.4535810000000  0.4523980000000 1.0
C      1  0.4813390000000  0.4418600000000  0.5360990000000 1.0
C      1  0.4298800000000  0.4300680000000  0.4693240000000 1.0
C      1  0.4746850000000  0.5942830000000  0.5050030000000 1.0
C      1  0.4455900000000  0.5653910000000  0.4478960000000 1.0
C      1  0.4580050000000  0.5352910000000  0.5375960000000 1.0
C      1  0.5199680000000  0.4291510000000  0.5073440000000 1.0
C      1  0.5266400000000  0.4764670000000  0.4937280000000 1.0
C      1  0.4332980000000  0.4587590000000  0.4142240000000 1.0
C      1  0.4874710000000  0.4738480000000  0.6205120000000 1.0
C      1  0.4870710000000  0.5959170000000  0.4524220000000 1.0
C      1  0.4937270000000  0.5174020000000  0.4522340000000 1.0
C      1  0.5189480000000  0.5141400000000  0.5225180000000 1.0
C      1  0.4093570000000  0.5391940000000  0.5300750000000 1.0
C      1  0.5339430000000  0.5626870000000  0.5357540000000 1.0
C      1  0.4821150000000  0.4380300000000  0.4031680000000 1.0
C      1  0.5194130000000  0.6116990000000  0.5390420000000 1.0
C      1  0.5129750000000  0.4927480000000  0.5420820000000 1.0
C      1  0.4574870000000  0.4017180000000  0.4435290000000 1.0
C      1  0.4976380000000  0.4199990000000  0.4216280000000 1.0
C      1  0.4349560000000  0.5600370000000  0.5648840000000 1.0
C      1  0.5114100000000  0.4455900000000  0.4606210000000 1.0
C      1  0.4390790000000  0.4073870000000  0.4835260000000 1.0
C      1  0.5668380000000  0.4204670000000  0.4418150000000 1.0
C      1  0.4927190000000  0.4330320000000  0.5936460000000 1.0
C      1  0.3948790000000  0.4690690000000  0.5211150000000 1.0
C      1  0.4601560000000  0.4033940000000  0.5297470000000 1.0
C      1  0.4903660000000  0.5853190000000  0.5620450000000 1.0
C      1  0.4148260000000  0.4810210000000  0.5710230000000 1.0
C      1  0.5198920000000  0.4244530000000  0.6023410000000 1.0
C      1  0.5641830000000  0.4401200000000  0.4630650000000 1.0
C      1  0.5119820000000  0.3940080000000  0.5332690000000 1.0
C      1  0.5490360000000  0.5071000000000  0.6130510000000 1.0
C      1  0.4812030000000  0.5825500000000  0.4208960000000 1.0
C      1  0.5028750000000  0.3978230000000  0.4682470000000 1.0
C      1  0.4683380000000  0.4662430000000  0.5495560000000 1.0
C      1  0.5381310000000  0.5255040000000  0.4017680000000 1.0
C      1  0.4203010000000  0.5486830000000  0.4155790000000 1.0
C      1  0.4717340000000  0.5631370000000  0.5038680000000 1.0
C      1  0.4553100000000  0.5674020000000  0.4199740000000 1.0
C      1  0.5198610000000  0.5627070000000  0.4495040000000 1.0
C      1  0.4208460000000  0.4486780000000  0.5422930000000 1.0
C      1  0.5862100000000  0.5224490000000  0.5004190000000 1.0
C      1  0.5906790000000  0.5405170000000  0.5624050000000 1.0
C      1  0.5094760000000  0.4871580000000  0.6100940000000 1.0
C      1  0.4562000000000  0.5035780000000  0.5800130000000 1.0
C      1  0.5294940000000  0.5657060000000  0.5065460000000 1.0
C      1  0.4343110000000  0.4999330000000  0.4672110000000 1.0
C      1  0.5671610000000  0.4450330000000  0.5111550000000 1.0
C      1  0.4602740000000  0.4718260000000  0.5794430000000 1.0
C      1  0.4588170000000  0.5517540000000  0.5808830000000 1.0
C      1  0.4207410000000  0.4264190000000  0.4425750000000 1.0
C      1  0.5591150000000  0.5702630000000  0.5798850000000 1.0
C      1  0.5622120000000  0.5299900000000  0.4209540000000 1.0
C      1  0.4355930000000  0.5178310000000  0.4925700000000 1.0
C      1  0.5750440000000  0.4348470000000  0.5371290000000 1.0
C      1  0.4186690000000  0.5355780000000  0.5583600000000 1.0
C      1  0.5370650000000  0.4963120000000  0.3975920000000 1.0
C      1  0.5529140000000  0.5775270000000  0.4204280000000 1.0
C      1  0.4864830000000  0.3947900000000  0.5174250000000 1.0
C      1  0.4406030000000  0.5066250000000  0.4047230000000 1.0
C      1  0.4960250000000  0.4123030000000  0.4943380000000 1.0
C      1  0.5324890000000  0.3981570000000  0.4656000000000 1.0
C      1  0.5750680000000  0.5520160000000  0.4988670000000 1.0
C      1  0.5802260000000  0.4642330000000  0.4563000000000 1.0
C      1  0.4162960000000  0.5653840000000  0.5181750000000 1.0
C      1  0.5346340000000  0.5836920000000  0.5808730000000 1.0
C      1  0.4844770000000  0.5245560000000  0.4055730000000 1.0
C      1  0.4497630000000  0.3878780000000  0.4666860000000 1.0
C      1  0.5125780000000  0.6110710000000  0.4551280000000 1.0
C      1  0.5121510000000  0.4859360000000  0.3857730000000 1.0
C      1  0.5744130000000  0.5956190000000  0.5155570000000 1.0
C      1  0.6153770000000  0.5144260000000  0.4711740000000 1.0
C      1  0.4725450000000  0.6031000000000  0.5503040000000 1.0
C      1  0.5708910000000  0.5678980000000  0.5256340000000 1.0
C      1  0.5188650000000  0.5670700000000  0.5975400000000 1.0
C      1  0.5013580000000  0.4882690000000  0.4528040000000 1.0
C      1  0.4724060000000  0.4973410000000  0.5155640000000 1.0
C      1  0.5655260000000  0.5428580000000  0.5786450000000 1.0
C      1  0.5682420000000  0.5000480000000  0.5127600000000 1.0
C      1  0.4254370000000  0.5444040000000  0.4443610000000 1.0
C      1  0.4329600000000  0.4601360000000  0.5825690000000 1.0
C      1  0.5959400000000  0.5726940000000  0.4739130000000 1.0
C      1  0.5119590000000  0.4561240000000  0.3923650000000 1.0
C      1  0.5327460000000  0.4514300000000  0.4134580000000 1.0
C      1  0.3820700000000  0.5314610000000  0.4858390000000 1.0
C      1  0.5168250000000  0.5390310000000  0.5926850000000 1.0
C      1  0.3988260000000  0.4923650000000  0.4304980000000 1.0
C      1  0.4127600000000  0.4522370000000  0.4776020000000 1.0
C      1  0.4692030000000  0.5280320000000  0.5663600000000 1.0
C      1  0.4459320000000  0.5110290000000  0.5205170000000 1.0
C      1  0.5586010000000  0.4899890000000  0.5588960000000 1.0
C      1  0.5689710000000  0.5087510000000  0.5401750000000 1.0
C      1  0.4902540000000  0.5037830000000  0.3873730000000 1.0
C      1  0.4408130000000  0.5702620000000  0.5350490000000 1.0
C      1  0.4858860000000  0.4041240000000  0.4432930000000 1.0
C      1  0.3945350000000  0.4946590000000  0.5071380000000 1.0
C      1  0.5222790000000  0.4736050000000  0.5853020000000 1.0
C      1  0.5408860000000  0.5234070000000  0.4794990000000 1.0
C      1  0.4268610000000  0.4921340000000  0.5366910000000 1.0
C      1  0.4057620000000  0.4958790000000  0.4578180000000 1.0
C      1  0.4791750000000  0.5710290000000  0.5832050000000 1.0
C      1  0.4504640000000  0.4787790000000  0.4024000000000 1.0
C      1  0.4412480000000  0.5459570000000  0.4870990000000 1.0
C      1  0.5863520000000  0.5932540000000  0.4901510000000 1.0
C      1  0.4680870000000  0.4433490000000  0.5076610000000 1.0
C      1  0.5847970000000  0.5529500000000  0.4554770000000 1.0
C      1  0.5578770000000  0.4374830000000  0.5619070000000 1.0
C      1  0.4003780000000  0.4460740000000  0.5036680000000 1.0
C      1  0.6208550000000  0.5025250000000  0.4971280000000 1.0
C      1  0.4196950000000  0.5664920000000  0.4876690000000 1.0
C      1  0.3851570000000  0.5001850000000  0.4785860000000 1.0
C      1  0.5723590000000  0.4813150000000  0.4335730000000 1.0
C      1  0.5440480000000  0.4782780000000  0.4215440000000 1.0
C      1  0.4424000000000  0.4674850000000  0.5343870000000 1.0
C      1  0.4839960000000  0.4889780000000  0.5411040000000 1.0
C      1  0.5783050000000  0.4848120000000  0.5803620000000 1.0
C      1  0.5946030000000  0.4552050000000  0.5444930000000 1.0
C      1  0.5843910000000  0.4714980000000  0.5139270000000 1.0
C      1  0.5092500000000  0.4016170000000  0.5618180000000 1.0
C      1  0.4700200000000  0.4730240000000  0.4948530000000 1.0
C      1  0.5109370000000  0.5384620000000  0.4107710000000 1.0
C      1  0.5381290000000  0.3969600000000  0.5183460000000 1.0
C      1  0.5425830000000  0.5228680000000  0.5879780000000 1.0
C      1  0.4450890000000  0.4201000000000  0.5099150000000 1.0
C      1  0.5287820000000  0.5946760000000  0.4993490000000 1.0
C      1  0.5409730000000  0.4105340000000  0.4403030000000 1.0
C      1  0.5166100000000  0.5337890000000  0.4405370000000 1.0
C      1  0.4815720000000  0.5438410000000  0.5228920000000 1.0
C      1  0.6037090000000  0.4678410000000  0.4703510000000 1.0
C      1  0.5275080000000  0.4473650000000  0.5598920000000 1.0
C      1  0.5394100000000  0.5030380000000  0.5014310000000 1.0
C      1  0.4596820000000  0.4171320000000  0.5570830000000 1.0
C      1  0.4917600000000  0.5202160000000  0.5084010000000 1.0
C      1  0.5696490000000  0.5570420000000  0.4298750000000 1.0
C      1  0.4335580000000  0.4338720000000  0.5663430000000 1.0
C      1  0.5933310000000  0.5245180000000  0.4567690000000 1.0
C      1  0.5881190000000  0.4592520000000  0.5721890000000 1.0
C      1  0.5037020000000  0.6065860000000  0.5118840000000 1.0
C      1  0.5450830000000  0.5707230000000  0.4638740000000 1.0
C      1  0.4854990000000  0.4159110000000  0.5715590000000 1.0
C      1  0.5056680000000  0.5696580000000  0.4076900000000 1.0
C      1  0.4180880000000  0.4288790000000  0.5205160000000 1.0
C      1  0.5216850000000  0.4321710000000  0.4334920000000 1.0
C      1  0.5301860000000  0.4891420000000  0.4453540000000 1.0
C      1  0.5260680000000  0.5008820000000  0.6280390000000 1.0
C      1  0.5246170000000  0.5354270000000  0.5436760000000 1.0
C      1  0.5320780000000  0.4478600000000  0.4840020000000 1.0
C      1  0.5690870000000  0.4262170000000  0.4890810000000 1.0
C      1  0.4893570000000  0.5273540000000  0.4791940000000 1.0
C      1  0.4825530000000  0.4709260000000  0.4377570000000 1.0
C      1  0.4717940000000  0.5200350000000  0.4330480000000 1.0
C      1  0.4004780000000  0.5501090000000  0.4710470000000 1.0
C      1  0.3985330000000  0.4457720000000  0.4424490000000 1.0
C      1  0.5400370000000  0.5167760000000  0.4501300000000 1.0
C      1  0.5802470000000  0.5098570000000  0.4346220000000 1.0
C      1  0.5198070000000  0.5858830000000  0.5545760000000 1.0
END
