TITL C-951341-1326-352 -2.62161781893534e-06 125000 -641.90678903376 0 0 104 (C1) n - 1
REM
REM in /home/bkarasulu/work/CARBON/AIRSS/Generating-Clusters/EDIP-Nigel-Params/with-SteepDescent/Only-C1/SD-CG/HFTN-CG
REM
REM
REM
REM
REM
REM ./C.cell (11c1c37f851c82e70ff6c80c92926a4b)
REM
REM compiler GCC version 9.2.1 20190827 (Red Hat 9.2.1-1)
REM options -cpp -mtune=generic -march=x86-64 -g -O0 -fpre-include=/usr/include/finclude/math-vector-fortran.h
REM seed 1743447298 -1790346947 1329089194 -2077084112 -1262196952 -475746076 -178196649 -919680236 1628398207 1496998488 -951680568 -1783888019 -1496896239 -767724216 1528217445 -1913687006 1096397068 1841309352 -360718690 -1852496850 -786093943 -1052377908 -613049618 2141270321 -439658187 1991887504 -1731348023 -242362735 1602835657 915744087 1899094108 2065912822 237704313
REM
CELL 1.54180   50.00000   50.00000   50.00000   90.00000   90.00000   90.00000
LATT -1
SFAC C  
C      1  0.4369670000000  0.4419210000000  0.4463630000000 1.0
C      1  0.5337810000000  0.4924100000000  0.5299340000000 1.0
C      1  0.5637590000000  0.5096640000000  0.4629020000000 1.0
C      1  0.4714590000000  0.5875580000000  0.4992070000000 1.0
C      1  0.5807940000000  0.4608580000000  0.5474770000000 1.0
C      1  0.4793390000000  0.4950570000000  0.4730850000000 1.0
C      1  0.4916600000000  0.4523520000000  0.4959980000000 1.0
C      1  0.5573930000000  0.5294990000000  0.5617910000000 1.0
C      1  0.5568340000000  0.4470190000000  0.5586100000000 1.0
C      1  0.5087430000000  0.4542440000000  0.5626850000000 1.0
C      1  0.4283810000000  0.5206050000000  0.5101790000000 1.0
C      1  0.5448600000000  0.4813520000000  0.5024380000000 1.0
C      1  0.4838160000000  0.4615880000000  0.5793270000000 1.0
C      1  0.5278970000000  0.4528850000000  0.4216220000000 1.0
C      1  0.5713170000000  0.4617830000000  0.4693920000000 1.0
C      1  0.4995650000000  0.5800770000000  0.5060000000000 1.0
C      1  0.4475700000000  0.4280860000000  0.4733870000000 1.0
C      1  0.5374860000000  0.4899770000000  0.5784080000000 1.0
C      1  0.3938670000000  0.4942080000000  0.5054150000000 1.0
C      1  0.5162030000000  0.4117430000000  0.4876900000000 1.0
C      1  0.5290130000000  0.4100160000000  0.5453220000000 1.0
C      1  0.4310160000000  0.4967840000000  0.4514020000000 1.0
C      1  0.5113590000000  0.4740800000000  0.5388050000000 1.0
C      1  0.5237050000000  0.5225760000000  0.4922860000000 1.0
C      1  0.5422470000000  0.5038070000000  0.4820820000000 1.0
C      1  0.4574390000000  0.5452140000000  0.5615820000000 1.0
C      1  0.4992640000000  0.4259260000000  0.5056330000000 1.0
C      1  0.5689520000000  0.5448000000000  0.5373930000000 1.0
C      1  0.4543130000000  0.5184620000000  0.5491690000000 1.0
C      1  0.4873360000000  0.4885450000000  0.5305220000000 1.0
C      1  0.5788760000000  0.5440150000000  0.4723670000000 1.0
C      1  0.4642140000000  0.4451860000000  0.5339000000000 1.0
C      1  0.5235780000000  0.5814520000000  0.4841870000000 1.0
C      1  0.4679940000000  0.5835620000000  0.4495300000000 1.0
C      1  0.4623730000000  0.4473070000000  0.4299250000000 1.0
C      1  0.4752510000000  0.5573610000000  0.4451520000000 1.0
C      1  0.4847660000000  0.5794840000000  0.5547060000000 1.0
C      1  0.4414310000000  0.4323950000000  0.5220390000000 1.0
C      1  0.4513200000000  0.5142780000000  0.4351530000000 1.0
C      1  0.5534740000000  0.4419390000000  0.4835280000000 1.0
C      1  0.5107800000000  0.5052420000000  0.5794970000000 1.0
C      1  0.4217850000000  0.4657820000000  0.4600410000000 1.0
C      1  0.4879440000000  0.4895080000000  0.5881330000000 1.0
C      1  0.4574980000000  0.5360000000000  0.4562270000000 1.0
C      1  0.4291560000000  0.5096560000000  0.5382250000000 1.0
C      1  0.4580050000000  0.4759550000000  0.4703830000000 1.0
C      1  0.5071320000000  0.4694030000000  0.4068450000000 1.0
C      1  0.4862900000000  0.4233300000000  0.5326340000000 1.0
C      1  0.5669720000000  0.4829260000000  0.4485150000000 1.0
C      1  0.4743350000000  0.4664230000000  0.5156550000000 1.0
C      1  0.5228720000000  0.5693920000000  0.4569260000000 1.0
C      1  0.5503470000000  0.5822250000000  0.4970970000000 1.0
C      1  0.5439260000000  0.4792300000000  0.4285160000000 1.0
C      1  0.5871690000000  0.5004000000000  0.5207490000000 1.0
C      1  0.4109100000000  0.4741090000000  0.5142270000000 1.0
C      1  0.4222790000000  0.4603860000000  0.4906710000000 1.0
C      1  0.4602930000000  0.5282100000000  0.5068820000000 1.0
C      1  0.4993170000000  0.5372700000000  0.4826010000000 1.0
C      1  0.4296430000000  0.5523120000000  0.4992920000000 1.0
C      1  0.3967910000000  0.5149360000000  0.4879180000000 1.0
C      1  0.4946140000000  0.5510230000000  0.5093730000000 1.0
C      1  0.5529270000000  0.5005950000000  0.5548840000000 1.0
C      1  0.5198340000000  0.5160800000000  0.5197220000000 1.0
C      1  0.5155360000000  0.4448270000000  0.4485790000000 1.0
C      1  0.5773500000000  0.4768290000000  0.5027780000000 1.0
C      1  0.5000600000000  0.5164490000000  0.4128280000000 1.0
C      1  0.4703760000000  0.4942960000000  0.5547130000000 1.0
C      1  0.5803320000000  0.4903500000000  0.5481240000000 1.0
C      1  0.4716830000000  0.4482320000000  0.4733540000000 1.0
C      1  0.4853920000000  0.4393010000000  0.4482690000000 1.0
C      1  0.4167270000000  0.5184890000000  0.4676250000000 1.0
C      1  0.4546230000000  0.5669070000000  0.5135060000000 1.0
C      1  0.4564700000000  0.5703200000000  0.5438630000000 1.0
C      1  0.5060630000000  0.5861330000000  0.5342620000000 1.0
C      1  0.5314290000000  0.4275560000000  0.4695630000000 1.0
C      1  0.4653780000000  0.5948860000000  0.4734100000000 1.0
C      1  0.4839670000000  0.4767590000000  0.4253650000000 1.0
C      1  0.4731120000000  0.5226490000000  0.4795670000000 1.0
C      1  0.5320540000000  0.5477400000000  0.5612300000000 1.0
C      1  0.4304550000000  0.4338360000000  0.4964790000000 1.0
C      1  0.4310730000000  0.5444670000000  0.4693620000000 1.0
C      1  0.5779360000000  0.5277660000000  0.5158970000000 1.0
C      1  0.5093650000000  0.5210990000000  0.4403530000000 1.0
C      1  0.5682370000000  0.5580890000000  0.4950280000000 1.0
C      1  0.5621900000000  0.4330670000000  0.5113820000000 1.0
C      1  0.5023950000000  0.5480150000000  0.4540550000000 1.0
C      1  0.4565240000000  0.4641640000000  0.5584280000000 1.0
C      1  0.5469080000000  0.4299090000000  0.5371140000000 1.0
C      1  0.5468590000000  0.5635210000000  0.4444490000000 1.0
C      1  0.4717960000000  0.5028470000000  0.4154430000000 1.0
C      1  0.4950290000000  0.5260060000000  0.5328820000000 1.0
C      1  0.5192920000000  0.4958870000000  0.4036210000000 1.0
C      1  0.5199710000000  0.4737450000000  0.4590520000000 1.0
C      1  0.5426060000000  0.5609700000000  0.5352190000000 1.0
C      1  0.5662010000000  0.5442880000000  0.4471830000000 1.0
C      1  0.4851340000000  0.5521990000000  0.5722800000000 1.0
C      1  0.4279050000000  0.4805500000000  0.5379370000000 1.0
C      1  0.4978610000000  0.4922920000000  0.4503510000000 1.0
C      1  0.5354070000000  0.4600510000000  0.5765260000000 1.0
C      1  0.5061880000000  0.4246590000000  0.5537490000000 1.0
C      1  0.5179350000000  0.4675080000000  0.4883090000000 1.0
C      1  0.5428060000000  0.5878260000000  0.5250360000000 1.0
C      1  0.5830390000000  0.4524830000000  0.5188640000000 1.0
C      1  0.5059050000000  0.5325610000000  0.5623630000000 1.0
END
