TITL C-951336-9012-503 1.33490514375657e-06 125000 -1105.16864461246 0 0 177 (C1) n - 1
REM
REM in /home/bkarasulu/work/CARBON/AIRSS/Generating-Clusters/EDIP-Nigel-Params/with-SteepDescent/Only-C1/SD-CG/HFTN-CG
REM
REM
REM
REM
REM
REM ./C.cell (11c1c37f851c82e70ff6c80c92926a4b)
REM
REM compiler GCC version 9.2.1 20190827 (Red Hat 9.2.1-1)
REM options -cpp -mtune=generic -march=x86-64 -g -O0 -fpre-include=/usr/include/finclude/math-vector-fortran.h
REM seed -1926899335 -972467119 -204130571 -1624054186 430426624 302502896 2061802997 603557017 1071777020 1181469799 -158549170 -423106763 2096127376 -713001551 -1259220500 -1935245712 700316219 1398526590 -1984608086 2135336735 1985972992 409968647 -1755253027 -1504286556 -224540639 1697172560 -89149616 -405127894 -932755808 424618305 1177191602 799501315 2017503663
REM
CELL 1.54180   50.00000   50.00000   50.00000   90.00000   90.00000   90.00000
LATT -1
SFAC C  
C      1  0.5168160000000  0.4011460000000  0.4454130000000 1.0
C      1  0.5770410000000  0.5382710000000  0.5819300000000 1.0
C      1  0.4610490000000  0.4626400000000  0.4568000000000 1.0
C      1  0.4814840000000  0.5726330000000  0.4528400000000 1.0
C      1  0.4130430000000  0.5219890000000  0.4597070000000 1.0
C      1  0.3907860000000  0.4655080000000  0.5071840000000 1.0
C      1  0.4590250000000  0.4247050000000  0.5644010000000 1.0
C      1  0.4950080000000  0.5976470000000  0.4541970000000 1.0
C      1  0.5774010000000  0.5120880000000  0.4206810000000 1.0
C      1  0.6085110000000  0.5613760000000  0.5044120000000 1.0
C      1  0.5881910000000  0.4933950000000  0.4411340000000 1.0
C      1  0.5800210000000  0.5393940000000  0.4265980000000 1.0
C      1  0.4012220000000  0.5526600000000  0.4765510000000 1.0
C      1  0.4411650000000  0.4950980000000  0.5922240000000 1.0
C      1  0.5683790000000  0.4863180000000  0.5948120000000 1.0
C      1  0.4885300000000  0.5665280000000  0.5438510000000 1.0
C      1  0.4935110000000  0.4767090000000  0.5571950000000 1.0
C      1  0.5148780000000  0.4658600000000  0.5331960000000 1.0
C      1  0.4409510000000  0.5346470000000  0.4944380000000 1.0
C      1  0.5787350000000  0.4309460000000  0.4603870000000 1.0
C      1  0.4876090000000  0.3922570000000  0.4860640000000 1.0
C      1  0.5496940000000  0.5320290000000  0.5932660000000 1.0
C      1  0.5111330000000  0.5105870000000  0.3857740000000 1.0
C      1  0.4168740000000  0.5291810000000  0.5714410000000 1.0
C      1  0.4805830000000  0.4706050000000  0.6057430000000 1.0
C      1  0.4917350000000  0.5678040000000  0.4949840000000 1.0
C      1  0.4817800000000  0.3926940000000  0.5153630000000 1.0
C      1  0.5489590000000  0.5014060000000  0.4151600000000 1.0
C      1  0.4837060000000  0.5922410000000  0.5578770000000 1.0
C      1  0.5416240000000  0.5623620000000  0.4881230000000 1.0
C      1  0.4217400000000  0.5454800000000  0.4206980000000 1.0
C      1  0.4401760000000  0.5129350000000  0.4725530000000 1.0
C      1  0.5743180000000  0.5636160000000  0.5657950000000 1.0
C      1  0.5649110000000  0.5425940000000  0.4977820000000 1.0
C      1  0.5327570000000  0.3974460000000  0.5249840000000 1.0
C      1  0.5188440000000  0.5752940000000  0.5041320000000 1.0
C      1  0.5649580000000  0.4787540000000  0.4518740000000 1.0
C      1  0.4571230000000  0.5725130000000  0.4379380000000 1.0
C      1  0.4835620000000  0.6149290000000  0.4738500000000 1.0
C      1  0.4790130000000  0.4404150000000  0.4115610000000 1.0
C      1  0.5069580000000  0.5066060000000  0.5589990000000 1.0
C      1  0.5445730000000  0.4659350000000  0.4891490000000 1.0
C      1  0.5106980000000  0.4902640000000  0.4485180000000 1.0
C      1  0.5236680000000  0.4945000000000  0.6074100000000 1.0
C      1  0.5282620000000  0.5491410000000  0.5806360000000 1.0
C      1  0.4907490000000  0.4400260000000  0.4930990000000 1.0
C      1  0.3900240000000  0.5080310000000  0.4754350000000 1.0
C      1  0.3971390000000  0.4795330000000  0.4804450000000 1.0
C      1  0.4534060000000  0.5628580000000  0.5723630000000 1.0
C      1  0.4933920000000  0.5350950000000  0.4923170000000 1.0
C      1  0.5698680000000  0.4530640000000  0.4136940000000 1.0
C      1  0.4812180000000  0.4948410000000  0.5191950000000 1.0
C      1  0.4959260000000  0.4952550000000  0.6095370000000 1.0
C      1  0.4888800000000  0.4226390000000  0.5609160000000 1.0
C      1  0.4759200000000  0.4941910000000  0.4908080000000 1.0
C      1  0.4757720000000  0.6110100000000  0.5384650000000 1.0
C      1  0.5367630000000  0.5050920000000  0.5092280000000 1.0
C      1  0.4370500000000  0.4774900000000  0.5304010000000 1.0
C      1  0.5313520000000  0.4446220000000  0.5722670000000 1.0
C      1  0.4904560000000  0.4562420000000  0.4684780000000 1.0
C      1  0.5902230000000  0.5528580000000  0.4838320000000 1.0
C      1  0.5772630000000  0.5159070000000  0.5365570000000 1.0
C      1  0.4081060000000  0.4787150000000  0.5563210000000 1.0
C      1  0.5003150000000  0.5489600000000  0.4494710000000 1.0
C      1  0.5393150000000  0.3949390000000  0.4901600000000 1.0
C      1  0.5438710000000  0.4377110000000  0.4941570000000 1.0
C      1  0.5224600000000  0.4797120000000  0.5011470000000 1.0
C      1  0.4612920000000  0.5170060000000  0.4509590000000 1.0
C      1  0.5966150000000  0.4475450000000  0.4773080000000 1.0
C      1  0.5239670000000  0.5914680000000  0.4516070000000 1.0
C      1  0.5393490000000  0.5901580000000  0.5458000000000 1.0
C      1  0.4420910000000  0.4138390000000  0.5426550000000 1.0
C      1  0.5163820000000  0.5262900000000  0.5117720000000 1.0
C      1  0.4726900000000  0.5649500000000  0.5187770000000 1.0
C      1  0.5881250000000  0.5610750000000  0.5374990000000 1.0
C      1  0.4520710000000  0.4778410000000  0.4824090000000 1.0
C      1  0.5571300000000  0.5135980000000  0.4878950000000 1.0
C      1  0.4092610000000  0.4656080000000  0.4572800000000 1.0
C      1  0.4577800000000  0.4117020000000  0.5171390000000 1.0
C      1  0.4572780000000  0.6060690000000  0.5179680000000 1.0
C      1  0.5313860000000  0.5220730000000  0.4011570000000 1.0
C      1  0.4955160000000  0.4473630000000  0.6031080000000 1.0
C      1  0.4583910000000  0.4127130000000  0.4470950000000 1.0
C      1  0.5255520000000  0.4518050000000  0.4142310000000 1.0
C      1  0.4147230000000  0.5765230000000  0.4866400000000 1.0
C      1  0.4395010000000  0.5840880000000  0.5251410000000 1.0
C      1  0.4164380000000  0.4381110000000  0.4628850000000 1.0
C      1  0.5156470000000  0.4271050000000  0.5041230000000 1.0
C      1  0.5463440000000  0.6048690000000  0.5224100000000 1.0
C      1  0.4316830000000  0.4995920000000  0.4187860000000 1.0
C      1  0.4664870000000  0.5973180000000  0.4901150000000 1.0
C      1  0.5518210000000  0.4977800000000  0.5358800000000 1.0
C      1  0.4668420000000  0.5417470000000  0.4053980000000 1.0
C      1  0.5310100000000  0.5489780000000  0.4616480000000 1.0
C      1  0.4841530000000  0.5209220000000  0.6019570000000 1.0
C      1  0.5448340000000  0.5027390000000  0.5899290000000 1.0
C      1  0.4496270000000  0.5463120000000  0.4285060000000 1.0
C      1  0.4944300000000  0.5515100000000  0.4112320000000 1.0
C      1  0.4449640000000  0.4587820000000  0.5053950000000 1.0
C      1  0.4918180000000  0.4850190000000  0.4251580000000 1.0
C      1  0.5699800000000  0.5967680000000  0.5082440000000 1.0
C      1  0.4650550000000  0.5356210000000  0.5124590000000 1.0
C      1  0.4202930000000  0.4519390000000  0.5608040000000 1.0
C      1  0.4636910000000  0.4874460000000  0.4373560000000 1.0
C      1  0.5269070000000  0.4226700000000  0.4148940000000 1.0
C      1  0.5633380000000  0.4383770000000  0.5405580000000 1.0
C      1  0.5356380000000  0.5026670000000  0.5611410000000 1.0
C      1  0.5429340000000  0.5211550000000  0.4628700000000 1.0
C      1  0.5021410000000  0.4476650000000  0.5746240000000 1.0
C      1  0.4369550000000  0.4501640000000  0.4221050000000 1.0
C      1  0.4760550000000  0.5454670000000  0.5601190000000 1.0
C      1  0.5395980000000  0.5702060000000  0.4302710000000 1.0
C      1  0.4631190000000  0.5133250000000  0.4009810000000 1.0
C      1  0.4398330000000  0.4053410000000  0.4938000000000 1.0
C      1  0.5375580000000  0.4171990000000  0.5718860000000 1.0
C      1  0.5673300000000  0.5608610000000  0.4394690000000 1.0
C      1  0.5393430000000  0.4980550000000  0.4446330000000 1.0
C      1  0.4274180000000  0.5380810000000  0.5440240000000 1.0
C      1  0.3936370000000  0.4861950000000  0.5291120000000 1.0
C      1  0.5892370000000  0.4494760000000  0.5049150000000 1.0
C      1  0.5804290000000  0.5726210000000  0.4635500000000 1.0
C      1  0.5389640000000  0.6052910000000  0.4727270000000 1.0
C      1  0.6118470000000  0.4813470000000  0.4839340000000 1.0
C      1  0.4177590000000  0.4999600000000  0.5760270000000 1.0
C      1  0.5671250000000  0.4339110000000  0.5123480000000 1.0
C      1  0.4139270000000  0.5204980000000  0.4297840000000 1.0
C      1  0.4607550000000  0.3986800000000  0.4732400000000 1.0
C      1  0.5128650000000  0.4352620000000  0.5330120000000 1.0
C      1  0.4553670000000  0.4705060000000  0.5919440000000 1.0
C      1  0.4409720000000  0.5868620000000  0.4765540000000 1.0
C      1  0.6159510000000  0.5395890000000  0.5208270000000 1.0
C      1  0.5247070000000  0.6046200000000  0.5014310000000 1.0
C      1  0.5864570000000  0.4873630000000  0.5736330000000 1.0
C      1  0.4543000000000  0.4477630000000  0.4003500000000 1.0
C      1  0.4615140000000  0.4923830000000  0.5414080000000 1.0
C      1  0.5235430000000  0.5485690000000  0.4127500000000 1.0
C      1  0.4454350000000  0.4487310000000  0.5751250000000 1.0
C      1  0.5967530000000  0.4682090000000  0.5254750000000 1.0
C      1  0.5646570000000  0.4501470000000  0.4418440000000 1.0
C      1  0.4540500000000  0.5199890000000  0.6000090000000 1.0
C      1  0.5429840000000  0.4613130000000  0.5492370000000 1.0
C      1  0.4906040000000  0.5045250000000  0.4040940000000 1.0
C      1  0.5882740000000  0.5154840000000  0.5643550000000 1.0
C      1  0.4180570000000  0.4320740000000  0.5398650000000 1.0
C      1  0.4339510000000  0.5676040000000  0.5483060000000 1.0
C      1  0.5625800000000  0.4095690000000  0.4755330000000 1.0
C      1  0.5671920000000  0.5426060000000  0.5276050000000 1.0
C      1  0.4442520000000  0.5571290000000  0.4708860000000 1.0
C      1  0.6120280000000  0.4891250000000  0.5125480000000 1.0
C      1  0.4990750000000  0.5140540000000  0.5311890000000 1.0
C      1  0.5028510000000  0.3977320000000  0.5352960000000 1.0
C      1  0.5702160000000  0.4824740000000  0.4818820000000 1.0
C      1  0.4180680000000  0.4985770000000  0.5181590000000 1.0
C      1  0.5486720000000  0.4128400000000  0.5467410000000 1.0
C      1  0.4065840000000  0.4398110000000  0.5129330000000 1.0
C      1  0.4677090000000  0.4399710000000  0.5111590000000 1.0
C      1  0.3915220000000  0.5322970000000  0.4963000000000 1.0
C      1  0.5864660000000  0.4664470000000  0.5527950000000 1.0
C      1  0.5008590000000  0.4834990000000  0.4771930000000 1.0
C      1  0.5403910000000  0.4046730000000  0.4312920000000 1.0
C      1  0.4574990000000  0.5258220000000  0.5416710000000 1.0
C      1  0.4377910000000  0.5428110000000  0.5897230000000 1.0
C      1  0.5449390000000  0.5686250000000  0.5635330000000 1.0
C      1  0.4881810000000  0.5254710000000  0.4626080000000 1.0
C      1  0.4789800000000  0.4328460000000  0.4401170000000 1.0
C      1  0.4988850000000  0.5318970000000  0.5773850000000 1.0
C      1  0.4232170000000  0.4300740000000  0.4901230000000 1.0
C      1  0.4664080000000  0.5879650000000  0.5804090000000 1.0
C      1  0.4348860000000  0.4298500000000  0.4423500000000 1.0
C      1  0.5479370000000  0.4700580000000  0.4062110000000 1.0
C      1  0.6005770000000  0.5151770000000  0.5175620000000 1.0
C      1  0.5145730000000  0.3949870000000  0.4736670000000 1.0
C      1  0.6022240000000  0.5004520000000  0.4649780000000 1.0
C      1  0.4224600000000  0.4733590000000  0.4308390000000 1.0
C      1  0.5603960000000  0.5862330000000  0.4823260000000 1.0
C      1  0.4989850000000  0.4610700000000  0.4093760000000 1.0
C      1  0.4166140000000  0.5280850000000  0.5137380000000 1.0
END
