TITL C-951342-2639-611 5.52827126736448e-07 125000 -959.562012569987 0 0 152 (C1) n - 1
REM
REM in /home/bkarasulu/work/CARBON/AIRSS/Generating-Clusters/EDIP-Nigel-Params/with-SteepDescent/Only-C1/SD-CG/HFTN-CG
REM
REM
REM
REM
REM
REM ./C.cell (11c1c37f851c82e70ff6c80c92926a4b)
REM
REM compiler GCC version 9.2.1 20190827 (Red Hat 9.2.1-1)
REM options -cpp -mtune=generic -march=x86-64 -g -O0 -fpre-include=/usr/include/finclude/math-vector-fortran.h
REM seed 61103777 -63360418 232316527 1909931791 -1954426425 2052910862 -1483435524 -1299884863 -1037000671 -628978344 -866622016 -1766042143 -2123643634 -407537806 -1600477670 1635584786 1485807980 -1958417188 2106222377 266491858 1713466922 -1464743347 1936766575 1168481269 -1905230138 -562668234 -1317558913 -1640149408 2045510834 1064202752 -1165475964 -1044430462 -1841590605
REM
CELL 1.54180   50.00000   50.00000   50.00000   90.00000   90.00000   90.00000
LATT -1
SFAC C  
C      1  0.4825090000000  0.4729740000000  0.5405570000000 1.0
C      1  0.5600730000000  0.5428150000000  0.5582270000000 1.0
C      1  0.5009200000000  0.5246580000000  0.5986910000000 1.0
C      1  0.4250140000000  0.5150130000000  0.5282310000000 1.0
C      1  0.4971310000000  0.3937730000000  0.5451770000000 1.0
C      1  0.5923350000000  0.5500450000000  0.5010550000000 1.0
C      1  0.5067190000000  0.5314570000000  0.4837710000000 1.0
C      1  0.5158860000000  0.4985130000000  0.6022650000000 1.0
C      1  0.4949100000000  0.5735490000000  0.4328790000000 1.0
C      1  0.4617370000000  0.4584210000000  0.4814860000000 1.0
C      1  0.4844140000000  0.5165110000000  0.4418130000000 1.0
C      1  0.5270690000000  0.4064940000000  0.4979530000000 1.0
C      1  0.4503780000000  0.5899320000000  0.5406540000000 1.0
C      1  0.4268180000000  0.5285880000000  0.4480590000000 1.0
C      1  0.4929300000000  0.4175490000000  0.4512170000000 1.0
C      1  0.4614900000000  0.4282590000000  0.4920690000000 1.0
C      1  0.4432920000000  0.5990690000000  0.5131350000000 1.0
C      1  0.5853670000000  0.5722280000000  0.5161730000000 1.0
C      1  0.5296690000000  0.5393690000000  0.5063360000000 1.0
C      1  0.5491910000000  0.5685550000000  0.5499020000000 1.0
C      1  0.4190090000000  0.4641500000000  0.5006650000000 1.0
C      1  0.5045860000000  0.5150790000000  0.5558910000000 1.0
C      1  0.4285010000000  0.4270210000000  0.5295300000000 1.0
C      1  0.4490840000000  0.5142180000000  0.4843340000000 1.0
C      1  0.4334380000000  0.4500010000000  0.4542340000000 1.0
C      1  0.5457340000000  0.4086060000000  0.5232970000000 1.0
C      1  0.5759730000000  0.4220230000000  0.4408700000000 1.0
C      1  0.4564970000000  0.5454700000000  0.4863330000000 1.0
C      1  0.5777230000000  0.4482650000000  0.5294720000000 1.0
C      1  0.4994010000000  0.3958660000000  0.4960280000000 1.0
C      1  0.4329860000000  0.4214940000000  0.4990930000000 1.0
C      1  0.4066610000000  0.4717350000000  0.5429700000000 1.0
C      1  0.5046580000000  0.5945630000000  0.5451730000000 1.0
C      1  0.5066670000000  0.6064670000000  0.4715860000000 1.0
C      1  0.5830380000000  0.5331240000000  0.4806620000000 1.0
C      1  0.4870570000000  0.3902460000000  0.5203390000000 1.0
C      1  0.5049510000000  0.4625210000000  0.5250320000000 1.0
C      1  0.5335320000000  0.4639730000000  0.5690970000000 1.0
C      1  0.5054080000000  0.4193210000000  0.5525770000000 1.0
C      1  0.4502570000000  0.5021890000000  0.5117260000000 1.0
C      1  0.4301430000000  0.4741390000000  0.5600140000000 1.0
C      1  0.5764020000000  0.4992670000000  0.4323940000000 1.0
C      1  0.4284270000000  0.4333690000000  0.4312610000000 1.0
C      1  0.5802660000000  0.4993150000000  0.5376440000000 1.0
C      1  0.5093160000000  0.5501090000000  0.5257760000000 1.0
C      1  0.4945420000000  0.5686880000000  0.5103730000000 1.0
C      1  0.5266900000000  0.5017340000000  0.5382060000000 1.0
C      1  0.5442190000000  0.5160250000000  0.5186590000000 1.0
C      1  0.5343940000000  0.4397940000000  0.4325930000000 1.0
C      1  0.5301080000000  0.4721900000000  0.5392790000000 1.0
C      1  0.4173220000000  0.5151850000000  0.4825550000000 1.0
C      1  0.4714240000000  0.5231980000000  0.5970950000000 1.0
C      1  0.4350940000000  0.5482670000000  0.5691750000000 1.0
C      1  0.5351790000000  0.4798250000000  0.4102490000000 1.0
C      1  0.5302160000000  0.4786090000000  0.4536910000000 1.0
C      1  0.5577950000000  0.5231660000000  0.4381210000000 1.0
C      1  0.5361430000000  0.4182800000000  0.5510390000000 1.0
C      1  0.5917480000000  0.4519320000000  0.4833360000000 1.0
C      1  0.4609010000000  0.5387410000000  0.4110750000000 1.0
C      1  0.4725070000000  0.5531560000000  0.4346010000000 1.0
C      1  0.5216450000000  0.4216270000000  0.4510340000000 1.0
C      1  0.5665650000000  0.4131900000000  0.4663090000000 1.0
C      1  0.5066990000000  0.4741440000000  0.5839850000000 1.0
C      1  0.5355810000000  0.5100930000000  0.4552750000000 1.0
C      1  0.4874080000000  0.5564280000000  0.4840140000000 1.0
C      1  0.5784730000000  0.4503680000000  0.5589580000000 1.0
C      1  0.4975860000000  0.4767240000000  0.4505280000000 1.0
C      1  0.4592880000000  0.4570700000000  0.5316470000000 1.0
C      1  0.4943160000000  0.5064150000000  0.4955830000000 1.0
C      1  0.5796950000000  0.4813530000000  0.5629370000000 1.0
C      1  0.5326380000000  0.4770690000000  0.4849060000000 1.0
C      1  0.4734020000000  0.4805750000000  0.4099460000000 1.0
C      1  0.5196130000000  0.5729880000000  0.4204130000000 1.0
C      1  0.4195950000000  0.4421050000000  0.4801110000000 1.0
C      1  0.5930570000000  0.4917800000000  0.5116180000000 1.0
C      1  0.4352460000000  0.5516490000000  0.4644840000000 1.0
C      1  0.4481510000000  0.4716230000000  0.5067470000000 1.0
C      1  0.4504720000000  0.5697940000000  0.4486100000000 1.0
C      1  0.5459900000000  0.5378600000000  0.4138200000000 1.0
C      1  0.4016430000000  0.4963370000000  0.5259590000000 1.0
C      1  0.4528950000000  0.4258510000000  0.4230760000000 1.0
C      1  0.4316500000000  0.5217530000000  0.5561220000000 1.0
C      1  0.4898630000000  0.4641040000000  0.4761500000000 1.0
C      1  0.4609240000000  0.4655650000000  0.5952970000000 1.0
C      1  0.4802410000000  0.4078740000000  0.4764710000000 1.0
C      1  0.4091700000000  0.4489530000000  0.5245440000000 1.0
C      1  0.5640300000000  0.4766270000000  0.4161870000000 1.0
C      1  0.5450400000000  0.5657850000000  0.4148980000000 1.0
C      1  0.5846700000000  0.4879700000000  0.4587650000000 1.0
C      1  0.5695790000000  0.4325140000000  0.4885880000000 1.0
C      1  0.4195240000000  0.5836140000000  0.5087110000000 1.0
C      1  0.5494750000000  0.5026470000000  0.4909230000000 1.0
C      1  0.5106960000000  0.5252220000000  0.4555010000000 1.0
C      1  0.4410280000000  0.4792360000000  0.4489690000000 1.0
C      1  0.4404690000000  0.4527670000000  0.5766490000000 1.0
C      1  0.5709670000000  0.5436710000000  0.4564270000000 1.0
C      1  0.5506600000000  0.4386420000000  0.5681260000000 1.0
C      1  0.4818910000000  0.4301910000000  0.5707910000000 1.0
C      1  0.4709760000000  0.4313850000000  0.5199200000000 1.0
C      1  0.5158910000000  0.5437340000000  0.5795560000000 1.0
C      1  0.5036600000000  0.5424120000000  0.3858380000000 1.0
C      1  0.5410820000000  0.5294970000000  0.5753970000000 1.0
C      1  0.5048610000000  0.4780030000000  0.4965490000000 1.0
C      1  0.4809410000000  0.5267160000000  0.3931730000000 1.0
C      1  0.5631160000000  0.4474080000000  0.4339170000000 1.0
C      1  0.4182810000000  0.5396270000000  0.5123350000000 1.0
C      1  0.5661400000000  0.4649150000000  0.4587040000000 1.0
C      1  0.5520700000000  0.5591380000000  0.4981180000000 1.0
C      1  0.4912240000000  0.5816130000000  0.4620870000000 1.0
C      1  0.5639800000000  0.5711740000000  0.4551110000000 1.0
C      1  0.4644060000000  0.4961680000000  0.4617670000000 1.0
C      1  0.4522180000000  0.4313640000000  0.5595480000000 1.0
C      1  0.4599010000000  0.5490310000000  0.5861480000000 1.0
C      1  0.5552700000000  0.4811790000000  0.5810580000000 1.0
C      1  0.5727990000000  0.4195920000000  0.5168980000000 1.0
C      1  0.5004080000000  0.4295210000000  0.5243800000000 1.0
C      1  0.5251100000000  0.5270580000000  0.3967480000000 1.0
C      1  0.5223890000000  0.5749720000000  0.5596170000000 1.0
C      1  0.4777630000000  0.4339500000000  0.4324250000000 1.0
C      1  0.5436070000000  0.5057890000000  0.5926380000000 1.0
C      1  0.4897890000000  0.5053620000000  0.4120410000000 1.0
C      1  0.4466600000000  0.4892020000000  0.4216700000000 1.0
C      1  0.4769450000000  0.5881950000000  0.5548800000000 1.0
C      1  0.4558990000000  0.5953240000000  0.4630690000000 1.0
C      1  0.4881080000000  0.5315170000000  0.5362270000000 1.0
C      1  0.5978410000000  0.4627490000000  0.5103530000000 1.0
C      1  0.4628680000000  0.5489860000000  0.5426390000000 1.0
C      1  0.5457470000000  0.4524080000000  0.4954280000000 1.0
C      1  0.4881000000000  0.4901550000000  0.5650030000000 1.0
C      1  0.4629680000000  0.5990710000000  0.4913790000000 1.0
C      1  0.5610770000000  0.5814920000000  0.5273270000000 1.0
C      1  0.4887200000000  0.6125210000000  0.4956240000000 1.0
C      1  0.4032790000000  0.4906150000000  0.4959780000000 1.0
C      1  0.5749880000000  0.5275980000000  0.5390250000000 1.0
C      1  0.4786290000000  0.5666450000000  0.5737200000000 1.0
C      1  0.4453250000000  0.5554180000000  0.5136740000000 1.0
C      1  0.4432910000000  0.5190730000000  0.4252530000000 1.0
C      1  0.5315380000000  0.5982450000000  0.4841750000000 1.0
C      1  0.4280430000000  0.5737310000000  0.5526270000000 1.0
C      1  0.4082940000000  0.5701440000000  0.5316190000000 1.0
C      1  0.5076440000000  0.5949580000000  0.5134870000000 1.0
C      1  0.4371930000000  0.4989100000000  0.5714680000000 1.0
C      1  0.5525260000000  0.4623660000000  0.5218890000000 1.0
C      1  0.5228560000000  0.4990880000000  0.3940050000000 1.0
C      1  0.5447180000000  0.5745200000000  0.4750940000000 1.0
C      1  0.5187890000000  0.4570390000000  0.4164480000000 1.0
C      1  0.4904840000000  0.4604600000000  0.4256120000000 1.0
C      1  0.4779430000000  0.5107390000000  0.5180780000000 1.0
C      1  0.5379920000000  0.4071540000000  0.4699930000000 1.0
C      1  0.4631990000000  0.4957860000000  0.5848390000000 1.0
C      1  0.4869710000000  0.4514250000000  0.5915430000000 1.0
C      1  0.5798010000000  0.5035820000000  0.4851220000000 1.0
END
