TITL C-951335-1172-669 1.60872968538351e-06 125000 -814.670044480928 0 0 129 (C1) n - 1
REM
REM in /home/bkarasulu/work/CARBON/AIRSS/Generating-Clusters/EDIP-Nigel-Params/with-SteepDescent/Only-C1/SD-CG/HFTN-CG
REM
REM
REM
REM
REM
REM ./C.cell (11c1c37f851c82e70ff6c80c92926a4b)
REM
REM compiler GCC version 9.2.1 20190827 (Red Hat 9.2.1-1)
REM options -cpp -mtune=generic -march=x86-64 -g -O0 -fpre-include=/usr/include/finclude/math-vector-fortran.h
REM seed 834499374 -737482352 442537455 1243690356 -2070169592 1457915019 1486654333 -1672440812 1238771390 -1054797519 1509806372 440084153 -1373962873 -99428001 1341852653 1603570861 1962644543 350127152 601839528 -1748810938 -195168377 875847204 -1470838871 -13845832 203928470 -1611800112 -644762912 532240280 -128296799 668429542 932430689 -761929256 -2007765927
REM
CELL 1.54180   50.00000   50.00000   50.00000   90.00000   90.00000   90.00000
LATT -1
SFAC C  
C      1  0.5745020000000  0.4908080000000  0.4913690000000 1.0
C      1  0.4500500000000  0.5060600000000  0.5816570000000 1.0
C      1  0.5105370000000  0.4077940000000  0.5100100000000 1.0
C      1  0.4540180000000  0.5510360000000  0.5585920000000 1.0
C      1  0.4749020000000  0.4688090000000  0.5642540000000 1.0
C      1  0.4745210000000  0.4476520000000  0.4487880000000 1.0
C      1  0.5885620000000  0.5194070000000  0.4941430000000 1.0
C      1  0.4817130000000  0.4027290000000  0.5090310000000 1.0
C      1  0.4427260000000  0.5731250000000  0.4542640000000 1.0
C      1  0.5627210000000  0.5501550000000  0.4292430000000 1.0
C      1  0.4330300000000  0.5512730000000  0.5119350000000 1.0
C      1  0.4729510000000  0.5677510000000  0.5442540000000 1.0
C      1  0.5031530000000  0.5043180000000  0.5110310000000 1.0
C      1  0.5494580000000  0.4304180000000  0.5335370000000 1.0
C      1  0.5599870000000  0.4971770000000  0.4126420000000 1.0
C      1  0.4460480000000  0.5120910000000  0.4098660000000 1.0
C      1  0.6000830000000  0.5132770000000  0.5420720000000 1.0
C      1  0.5218070000000  0.4123210000000  0.4839020000000 1.0
C      1  0.5452110000000  0.5834930000000  0.4843990000000 1.0
C      1  0.5238750000000  0.4161680000000  0.5345520000000 1.0
C      1  0.5504010000000  0.4475450000000  0.5573630000000 1.0
C      1  0.5309990000000  0.5189790000000  0.5039830000000 1.0
C      1  0.4980550000000  0.5564560000000  0.5031050000000 1.0
C      1  0.5041160000000  0.5448040000000  0.6073280000000 1.0
C      1  0.5719140000000  0.4576020000000  0.4554930000000 1.0
C      1  0.4791320000000  0.5496640000000  0.4800160000000 1.0
C      1  0.4192570000000  0.5572660000000  0.4611180000000 1.0
C      1  0.4110430000000  0.4878360000000  0.5009790000000 1.0
C      1  0.5054140000000  0.4591870000000  0.4432350000000 1.0
C      1  0.5352320000000  0.5549050000000  0.4270950000000 1.0
C      1  0.5338370000000  0.5918700000000  0.5105240000000 1.0
C      1  0.4567680000000  0.4778290000000  0.5409880000000 1.0
C      1  0.4796520000000  0.4209340000000  0.5562950000000 1.0
C      1  0.5483660000000  0.4949000000000  0.5046460000000 1.0
C      1  0.5354210000000  0.5070240000000  0.4570870000000 1.0
C      1  0.4786020000000  0.4736710000000  0.4833530000000 1.0
C      1  0.5330660000000  0.5735980000000  0.5832410000000 1.0
C      1  0.4598930000000  0.5123850000000  0.4519660000000 1.0
C      1  0.4548570000000  0.5078510000000  0.5304630000000 1.0
C      1  0.4169720000000  0.5030310000000  0.4525300000000 1.0
C      1  0.4911720000000  0.5475490000000  0.5303010000000 1.0
C      1  0.5084460000000  0.4754780000000  0.5222620000000 1.0
C      1  0.5221810000000  0.5544600000000  0.4543600000000 1.0
C      1  0.5161650000000  0.5263250000000  0.5653370000000 1.0
C      1  0.5464100000000  0.5803140000000  0.5352730000000 1.0
C      1  0.5222810000000  0.5824800000000  0.4650730000000 1.0
C      1  0.5883120000000  0.5312040000000  0.5219510000000 1.0
C      1  0.4744080000000  0.5104080000000  0.4016070000000 1.0
C      1  0.4625180000000  0.5756640000000  0.4778890000000 1.0
C      1  0.4834220000000  0.4818660000000  0.4034340000000 1.0
C      1  0.4603340000000  0.5858610000000  0.5265640000000 1.0
C      1  0.4649430000000  0.4378340000000  0.4228620000000 1.0
C      1  0.5353060000000  0.4704970000000  0.5104840000000 1.0
C      1  0.5645250000000  0.5472770000000  0.5360080000000 1.0
C      1  0.5412140000000  0.5282410000000  0.5812490000000 1.0
C      1  0.5341750000000  0.5108470000000  0.4259860000000 1.0
C      1  0.4887370000000  0.4591730000000  0.5075250000000 1.0
C      1  0.4995850000000  0.4064390000000  0.4638200000000 1.0
C      1  0.5791370000000  0.5396250000000  0.4745120000000 1.0
C      1  0.5070560000000  0.4958850000000  0.4578170000000 1.0
C      1  0.4956380000000  0.4976680000000  0.5968910000000 1.0
C      1  0.4358240000000  0.4402190000000  0.5585560000000 1.0
C      1  0.4901740000000  0.5000300000000  0.4840850000000 1.0
C      1  0.4924010000000  0.5358710000000  0.4088360000000 1.0
C      1  0.5225330000000  0.5344050000000  0.4105000000000 1.0
C      1  0.4398110000000  0.5340340000000  0.4273030000000 1.0
C      1  0.5658140000000  0.5376640000000  0.5653240000000 1.0
C      1  0.4624200000000  0.4330520000000  0.4744180000000 1.0
C      1  0.5452590000000  0.4301410000000  0.4834430000000 1.0
C      1  0.4494240000000  0.4755340000000  0.4930200000000 1.0
C      1  0.5185790000000  0.4348390000000  0.4288230000000 1.0
C      1  0.5618950000000  0.5595740000000  0.4862940000000 1.0
C      1  0.4137240000000  0.4662270000000  0.5210040000000 1.0
C      1  0.4935720000000  0.5459250000000  0.4522060000000 1.0
C      1  0.4240580000000  0.4572180000000  0.4641010000000 1.0
C      1  0.5701340000000  0.4904540000000  0.5755420000000 1.0
C      1  0.5361610000000  0.5331020000000  0.4739610000000 1.0
C      1  0.4499700000000  0.4827930000000  0.4508430000000 1.0
C      1  0.5373770000000  0.4768860000000  0.4079300000000 1.0
C      1  0.4946690000000  0.5262020000000  0.5866760000000 1.0
C      1  0.4257840000000  0.4982220000000  0.5651950000000 1.0
C      1  0.5808260000000  0.4617370000000  0.5067660000000 1.0
C      1  0.4658830000000  0.5198920000000  0.4814810000000 1.0
C      1  0.5091050000000  0.4768920000000  0.4184940000000 1.0
C      1  0.5172230000000  0.5468960000000  0.5447910000000 1.0
C      1  0.4658170000000  0.5301890000000  0.5761000000000 1.0
C      1  0.4591810000000  0.4652560000000  0.4113270000000 1.0
C      1  0.4450150000000  0.5063380000000  0.5014530000000 1.0
C      1  0.5436250000000  0.4257160000000  0.4365920000000 1.0
C      1  0.5534670000000  0.4464800000000  0.5081770000000 1.0
C      1  0.4153160000000  0.5373090000000  0.4941850000000 1.0
C      1  0.4744300000000  0.4066920000000  0.4799900000000 1.0
C      1  0.5379660000000  0.5377690000000  0.5260380000000 1.0
C      1  0.5040750000000  0.5856440000000  0.5052600000000 1.0
C      1  0.4263040000000  0.4406030000000  0.5105450000000 1.0
C      1  0.5675000000000  0.4846880000000  0.4617520000000 1.0
C      1  0.5090350000000  0.4239720000000  0.5583810000000 1.0
C      1  0.5225930000000  0.4493000000000  0.5693630000000 1.0
C      1  0.4338100000000  0.4363770000000  0.4810700000000 1.0
C      1  0.4111600000000  0.4814080000000  0.4720480000000 1.0
C      1  0.4380360000000  0.4234810000000  0.5330950000000 1.0
C      1  0.4602580000000  0.4584010000000  0.5188410000000 1.0
C      1  0.4815840000000  0.5590060000000  0.4275320000000 1.0
C      1  0.5265400000000  0.5736280000000  0.5557440000000 1.0
C      1  0.4958700000000  0.5923150000000  0.4773270000000 1.0
C      1  0.4277900000000  0.4693540000000  0.5489530000000 1.0
C      1  0.5756150000000  0.5031160000000  0.4391240000000 1.0
C      1  0.5582150000000  0.4340930000000  0.4583750000000 1.0
C      1  0.4219430000000  0.5289940000000  0.4674630000000 1.0
C      1  0.4665680000000  0.4163940000000  0.5306140000000 1.0
C      1  0.4832440000000  0.5188030000000  0.5284370000000 1.0
C      1  0.4204910000000  0.5181120000000  0.5453180000000 1.0
C      1  0.4469180000000  0.5758050000000  0.5041440000000 1.0
C      1  0.5308410000000  0.5505500000000  0.5995230000000 1.0
C      1  0.4892020000000  0.5161250000000  0.4422820000000 1.0
C      1  0.5683050000000  0.4700400000000  0.5543150000000 1.0
C      1  0.4371180000000  0.4860020000000  0.4225050000000 1.0
C      1  0.4700450000000  0.4853210000000  0.5884960000000 1.0
C      1  0.4955100000000  0.4176630000000  0.4353300000000 1.0
C      1  0.6092260000000  0.4877190000000  0.5351610000000 1.0
C      1  0.4523390000000  0.5600540000000  0.4293020000000 1.0
C      1  0.5206760000000  0.4822490000000  0.5893500000000 1.0
C      1  0.4638010000000  0.4410060000000  0.5705010000000 1.0
C      1  0.5454780000000  0.4992820000000  0.5901280000000 1.0
C      1  0.5049730000000  0.4715920000000  0.5551290000000 1.0
C      1  0.5848850000000  0.5153080000000  0.5672670000000 1.0
C      1  0.5901030000000  0.4672670000000  0.5344500000000 1.0
C      1  0.4320330000000  0.5435070000000  0.5402200000000 1.0
C      1  0.5716670000000  0.5309650000000  0.4476460000000 1.0
END
