TITL C-950536-5891-233 -7.4379375730032e-07 125000 -1063.17526273695 0 0 171 (C1) n - 1
REM
REM in /home/bkarasulu/work/CARBON/AIRSS/Generating-Clusters/EDIP-Nigel-Params/with-SteepDescent/Only-C1/SD-CG/HFTN-CG
REM
REM
REM
REM
REM
REM ./C.cell (11c1c37f851c82e70ff6c80c92926a4b)
REM
REM compiler GCC version 9.2.1 20190827 (Red Hat 9.2.1-1)
REM options -cpp -mtune=generic -march=x86-64 -g -O0 -fpre-include=/usr/include/finclude/math-vector-fortran.h
REM seed -666873082 1383837807 272075053 -38034711 1666646914 652902429 1246262183 1242933740 841090991 -1468193823 1363291852 -686032682 -257502858 1038394231 450532330 1429174011 -1399331614 -1148509033 -1065723278 -198943919 752041124 1467908978 -972945020 -1959668231 2055671747 -150910259 1739685952 299020220 1893356739 2062507234 178918155 -696941307 -1990489164
REM
CELL 1.54180   50.00000   50.00000   50.00000   90.00000   90.00000   90.00000
LATT -1
SFAC C  
C      1  0.5605250000000  0.4498010000000  0.4325400000000 1.0
C      1  0.4203450000000  0.4874010000000  0.5823390000000 1.0
C      1  0.4742140000000  0.4807280000000  0.4350700000000 1.0
C      1  0.4973290000000  0.5540450000000  0.5143390000000 1.0
C      1  0.5384900000000  0.5653450000000  0.4887930000000 1.0
C      1  0.4373470000000  0.5445120000000  0.4526140000000 1.0
C      1  0.5740700000000  0.5365160000000  0.4654200000000 1.0
C      1  0.4198540000000  0.4433750000000  0.5214290000000 1.0
C      1  0.4615510000000  0.4730570000000  0.5374770000000 1.0
C      1  0.4992720000000  0.4685620000000  0.4430640000000 1.0
C      1  0.4977830000000  0.5272480000000  0.5002260000000 1.0
C      1  0.4078100000000  0.4611590000000  0.5413310000000 1.0
C      1  0.5619690000000  0.4705080000000  0.5807410000000 1.0
C      1  0.4236480000000  0.5708440000000  0.4770500000000 1.0
C      1  0.4419770000000  0.5937650000000  0.5270140000000 1.0
C      1  0.3998870000000  0.5179180000000  0.4815590000000 1.0
C      1  0.4778140000000  0.5383150000000  0.5896440000000 1.0
C      1  0.5091620000000  0.5736380000000  0.4935970000000 1.0
C      1  0.4605980000000  0.5428630000000  0.5442560000000 1.0
C      1  0.5645940000000  0.4778860000000  0.5084790000000 1.0
C      1  0.5966470000000  0.4819580000000  0.4570890000000 1.0
C      1  0.4158130000000  0.4707030000000  0.4463130000000 1.0
C      1  0.4376570000000  0.5125780000000  0.4588650000000 1.0
C      1  0.5210270000000  0.4925880000000  0.5458440000000 1.0
C      1  0.5271490000000  0.5185380000000  0.5963990000000 1.0
C      1  0.5592290000000  0.5515770000000  0.5744440000000 1.0
C      1  0.5097230000000  0.4435580000000  0.4293520000000 1.0
C      1  0.5080990000000  0.4003030000000  0.5341480000000 1.0
C      1  0.4237310000000  0.4975990000000  0.4366270000000 1.0
C      1  0.4586630000000  0.4596700000000  0.4191990000000 1.0
C      1  0.4879320000000  0.4923900000000  0.5789550000000 1.0
C      1  0.4514290000000  0.5284260000000  0.5798170000000 1.0
C      1  0.4473100000000  0.5502350000000  0.4242160000000 1.0
C      1  0.5712430000000  0.5951260000000  0.5141920000000 1.0
C      1  0.5099550000000  0.5525130000000  0.5419280000000 1.0
C      1  0.6064190000000  0.4483650000000  0.5078600000000 1.0
C      1  0.5187520000000  0.5086560000000  0.5041630000000 1.0
C      1  0.5944260000000  0.5083570000000  0.4734460000000 1.0
C      1  0.3796500000000  0.4862920000000  0.5109180000000 1.0
C      1  0.5346510000000  0.3879770000000  0.5216630000000 1.0
C      1  0.4365450000000  0.4221910000000  0.5314790000000 1.0
C      1  0.4548060000000  0.5981560000000  0.5008630000000 1.0
C      1  0.5011160000000  0.5286980000000  0.4137290000000 1.0
C      1  0.4923360000000  0.5690830000000  0.4656470000000 1.0
C      1  0.5352760000000  0.6002020000000  0.5497130000000 1.0
C      1  0.5800270000000  0.4611290000000  0.4709570000000 1.0
C      1  0.5144130000000  0.4829740000000  0.5184680000000 1.0
C      1  0.5494790000000  0.4934180000000  0.4511050000000 1.0
C      1  0.4759480000000  0.5882260000000  0.4470360000000 1.0
C      1  0.4798230000000  0.4348730000000  0.4215840000000 1.0
C      1  0.5336710000000  0.4596380000000  0.5847120000000 1.0
C      1  0.5433260000000  0.5215150000000  0.5055850000000 1.0
C      1  0.4294750000000  0.5456190000000  0.5522330000000 1.0
C      1  0.5221420000000  0.5325980000000  0.4636750000000 1.0
C      1  0.4666920000000  0.4817550000000  0.5971790000000 1.0
C      1  0.4886270000000  0.4229160000000  0.5730300000000 1.0
C      1  0.4655010000000  0.4818400000000  0.3740590000000 1.0
C      1  0.5383520000000  0.4021780000000  0.4570730000000 1.0
C      1  0.5515290000000  0.5239640000000  0.5801010000000 1.0
C      1  0.5594350000000  0.4028090000000  0.5304200000000 1.0
C      1  0.5891720000000  0.4339860000000  0.4695590000000 1.0
C      1  0.4808820000000  0.4364280000000  0.5097380000000 1.0
C      1  0.4515330000000  0.5498110000000  0.4937650000000 1.0
C      1  0.4370400000000  0.4838330000000  0.5185350000000 1.0
C      1  0.5556160000000  0.6139920000000  0.4976450000000 1.0
C      1  0.5097810000000  0.4721950000000  0.5670870000000 1.0
C      1  0.4529950000000  0.5247820000000  0.4080590000000 1.0
C      1  0.4714860000000  0.5444840000000  0.4697810000000 1.0
C      1  0.4842430000000  0.4871850000000  0.4860970000000 1.0
C      1  0.4384590000000  0.4846610000000  0.4861170000000 1.0
C      1  0.4630780000000  0.4705300000000  0.4759870000000 1.0
C      1  0.5415950000000  0.4778210000000  0.4039940000000 1.0
C      1  0.5666780000000  0.5422920000000  0.4351560000000 1.0
C      1  0.5004130000000  0.5205800000000  0.5813860000000 1.0
C      1  0.5687900000000  0.5611650000000  0.5485250000000 1.0
C      1  0.5855930000000  0.5489520000000  0.5278450000000 1.0
C      1  0.5293210000000  0.6140570000000  0.4843540000000 1.0
C      1  0.4688030000000  0.4959290000000  0.5551740000000 1.0
C      1  0.5230690000000  0.5042440000000  0.4542110000000 1.0
C      1  0.4679470000000  0.5598530000000  0.5192740000000 1.0
C      1  0.5016860000000  0.4265320000000  0.4722410000000 1.0
C      1  0.4343960000000  0.4512040000000  0.4350460000000 1.0
C      1  0.6040210000000  0.5039540000000  0.5020280000000 1.0
C      1  0.4154450000000  0.5203810000000  0.5433830000000 1.0
C      1  0.5163730000000  0.5599900000000  0.4474080000000 1.0
C      1  0.5187510000000  0.4923060000000  0.3949980000000 1.0
C      1  0.5011830000000  0.5743230000000  0.5619660000000 1.0
C      1  0.5296310000000  0.4421010000000  0.5280750000000 1.0
C      1  0.4797020000000  0.6113570000000  0.4975610000000 1.0
C      1  0.5139680000000  0.4124730000000  0.5612910000000 1.0
C      1  0.3960490000000  0.5382840000000  0.5012120000000 1.0
C      1  0.4744530000000  0.5112570000000  0.5034500000000 1.0
C      1  0.3923720000000  0.4905050000000  0.4866440000000 1.0
C      1  0.5265960000000  0.4677550000000  0.6115730000000 1.0
C      1  0.4102700000000  0.5632860000000  0.5027520000000 1.0
C      1  0.5281690000000  0.4947990000000  0.6110420000000 1.0
C      1  0.5098770000000  0.4239200000000  0.5151250000000 1.0
C      1  0.5457250000000  0.5377920000000  0.4812730000000 1.0
C      1  0.4844780000000  0.5639640000000  0.5827570000000 1.0
C      1  0.5201530000000  0.4243260000000  0.4505810000000 1.0
C      1  0.5094530000000  0.4803990000000  0.4678080000000 1.0
C      1  0.4479190000000  0.4766250000000  0.3962510000000 1.0
C      1  0.5503280000000  0.5880770000000  0.4468560000000 1.0
C      1  0.5943040000000  0.5047400000000  0.5544980000000 1.0
C      1  0.5510240000000  0.4958350000000  0.5466670000000 1.0
C      1  0.4001440000000  0.4872760000000  0.5303280000000 1.0
C      1  0.4342120000000  0.5011140000000  0.4083910000000 1.0
C      1  0.5602780000000  0.5221540000000  0.4149310000000 1.0
C      1  0.4644300000000  0.5886310000000  0.5441590000000 1.0
C      1  0.5272170000000  0.6005060000000  0.4580990000000 1.0
C      1  0.5363770000000  0.4641880000000  0.5082280000000 1.0
C      1  0.5619470000000  0.5052760000000  0.5205720000000 1.0
C      1  0.4959700000000  0.3990910000000  0.4810970000000 1.0
C      1  0.5054820000000  0.5236760000000  0.5503420000000 1.0
C      1  0.4523680000000  0.6008790000000  0.4546340000000 1.0
C      1  0.4689300000000  0.5142500000000  0.4549190000000 1.0
C      1  0.4130620000000  0.4706270000000  0.4771020000000 1.0
C      1  0.5528280000000  0.4643460000000  0.4590410000000 1.0
C      1  0.4763370000000  0.5132560000000  0.4226760000000 1.0
C      1  0.5649360000000  0.4228510000000  0.5093440000000 1.0
C      1  0.4854280000000  0.4520250000000  0.5603600000000 1.0
C      1  0.4727870000000  0.5684970000000  0.4246690000000 1.0
C      1  0.4670290000000  0.4180840000000  0.4459380000000 1.0
C      1  0.4381890000000  0.5959860000000  0.4777340000000 1.0
C      1  0.5498510000000  0.5652660000000  0.4301080000000 1.0
C      1  0.5595510000000  0.4936330000000  0.4231900000000 1.0
C      1  0.4864990000000  0.6064160000000  0.5469470000000 1.0
C      1  0.5287530000000  0.4574050000000  0.4785200000000 1.0
C      1  0.4602490000000  0.4125710000000  0.5166400000000 1.0
C      1  0.5253040000000  0.5877350000000  0.5745550000000 1.0
C      1  0.5913760000000  0.4273220000000  0.4968860000000 1.0
C      1  0.4865130000000  0.4650550000000  0.3675300000000 1.0
C      1  0.4679200000000  0.4042990000000  0.5618050000000 1.0
C      1  0.5838750000000  0.4760150000000  0.4291390000000 1.0
C      1  0.5002330000000  0.5560130000000  0.4222050000000 1.0
C      1  0.5354150000000  0.4323720000000  0.5573720000000 1.0
C      1  0.5729750000000  0.5026010000000  0.5785800000000 1.0
C      1  0.5372870000000  0.4504470000000  0.4137210000000 1.0
C      1  0.5434680000000  0.5706910000000  0.5868810000000 1.0
C      1  0.5668480000000  0.4688420000000  0.5518270000000 1.0
C      1  0.5955330000000  0.4745200000000  0.5150500000000 1.0
C      1  0.5881360000000  0.5697160000000  0.5060720000000 1.0
C      1  0.4701270000000  0.3965570000000  0.4694970000000 1.0
C      1  0.4326970000000  0.5255620000000  0.4993260000000 1.0
C      1  0.5406110000000  0.4194180000000  0.4916630000000 1.0
C      1  0.4708350000000  0.4403530000000  0.4773890000000 1.0
C      1  0.4774060000000  0.5178730000000  0.5382980000000 1.0
C      1  0.4843030000000  0.4660310000000  0.5189220000000 1.0
C      1  0.5390030000000  0.3895050000000  0.4841690000000 1.0
C      1  0.5605110000000  0.5879140000000  0.5401660000000 1.0
C      1  0.4495470000000  0.4035460000000  0.4897520000000 1.0
C      1  0.4770800000000  0.3940660000000  0.5348460000000 1.0
C      1  0.5072470000000  0.6030910000000  0.5023690000000 1.0
C      1  0.5585220000000  0.4149380000000  0.5562690000000 1.0
C      1  0.5036820000000  0.4864340000000  0.3714200000000 1.0
C      1  0.4227080000000  0.5706420000000  0.5289040000000 1.0
C      1  0.5256000000000  0.5191670000000  0.4015150000000 1.0
C      1  0.4208720000000  0.4636540000000  0.5674430000000 1.0
C      1  0.4660320000000  0.4517160000000  0.5870430000000 1.0
C      1  0.4436150000000  0.5007680000000  0.5911680000000 1.0
C      1  0.5948150000000  0.4764030000000  0.5451820000000 1.0
C      1  0.5854280000000  0.5632430000000  0.4759790000000 1.0
C      1  0.4421320000000  0.4191070000000  0.5595640000000 1.0
C      1  0.4150250000000  0.4438380000000  0.4921930000000 1.0
C      1  0.5891380000000  0.5185200000000  0.5263380000000 1.0
C      1  0.4310010000000  0.4234470000000  0.4774990000000 1.0
C      1  0.5114970000000  0.6058260000000  0.5322310000000 1.0
C      1  0.5595650000000  0.5806760000000  0.4742000000000 1.0
C      1  0.4357290000000  0.5121960000000  0.5246220000000 1.0
C      1  0.4392720000000  0.4272300000000  0.4497870000000 1.0
C      1  0.4391830000000  0.4430090000000  0.5768130000000 1.0
END
