TITL C-950524-1808-76 -2.98612291927912e-06 125000 -839.282706760141 0 0 135 (C1) n - 1
REM
REM in /home/bkarasulu/work/CARBON/AIRSS/Generating-Clusters/EDIP-Nigel-Params/with-SteepDescent/Only-C1/SD-CG/HFTN-CG
REM
REM
REM
REM
REM
REM ./C.cell (11c1c37f851c82e70ff6c80c92926a4b)
REM
REM compiler GCC version 9.2.1 20190827 (Red Hat 9.2.1-1)
REM options -cpp -mtune=generic -march=x86-64 -g -O0 -fpre-include=/usr/include/finclude/math-vector-fortran.h
REM seed 1126245748 111957654 -1761659693 -1251020005 127078748 1592788996 -118887498 120104768 625121090 -1193640163 -387060760 1189982838 -1706007419 -1604031888 -329809350 372827286 1190390707 1487403653 2019468138 -398785956 -860937873 -1729496749 -1589764739 1172072231 696963366 -36995262 143828160 -1926496845 -883162176 -1030502481 -1954239186 814742669 774402996
REM
CELL 1.54180   50.00000   50.00000   50.00000   90.00000   90.00000   90.00000
LATT -1
SFAC C  
C      1  0.4880990000000  0.4131910000000  0.5736600000000 1.0
C      1  0.4202230000000  0.5019790000000  0.4607660000000 1.0
C      1  0.5317960000000  0.4647480000000  0.5989990000000 1.0
C      1  0.4580360000000  0.5341280000000  0.5799720000000 1.0
C      1  0.4908970000000  0.4024770000000  0.4434390000000 1.0
C      1  0.4993290000000  0.4821540000000  0.5357770000000 1.0
C      1  0.5423550000000  0.5334750000000  0.4292590000000 1.0
C      1  0.5573420000000  0.4864530000000  0.4255340000000 1.0
C      1  0.5448170000000  0.4869600000000  0.5853870000000 1.0
C      1  0.4508300000000  0.5085480000000  0.5415370000000 1.0
C      1  0.4631360000000  0.5654780000000  0.4279140000000 1.0
C      1  0.4130250000000  0.5180120000000  0.5539990000000 1.0
C      1  0.4820290000000  0.5973410000000  0.5043740000000 1.0
C      1  0.4137730000000  0.5157470000000  0.5044160000000 1.0
C      1  0.4660100000000  0.4619660000000  0.5155870000000 1.0
C      1  0.4435950000000  0.5582120000000  0.5815560000000 1.0
C      1  0.4670360000000  0.5561670000000  0.4823150000000 1.0
C      1  0.5787510000000  0.5322960000000  0.5335130000000 1.0
C      1  0.5852830000000  0.5563250000000  0.4901820000000 1.0
C      1  0.4330350000000  0.5875040000000  0.4990780000000 1.0
C      1  0.5243010000000  0.4535410000000  0.5003500000000 1.0
C      1  0.4241770000000  0.4682480000000  0.5279480000000 1.0
C      1  0.5806410000000  0.5512530000000  0.4599320000000 1.0
C      1  0.5277360000000  0.5580970000000  0.5697350000000 1.0
C      1  0.5653470000000  0.4533120000000  0.5453930000000 1.0
C      1  0.4136390000000  0.5730450000000  0.4850130000000 1.0
C      1  0.4528040000000  0.4338880000000  0.4481730000000 1.0
C      1  0.5442280000000  0.4130630000000  0.5024900000000 1.0
C      1  0.4337550000000  0.5781380000000  0.5257830000000 1.0
C      1  0.5654660000000  0.4565980000000  0.5161950000000 1.0
C      1  0.5630500000000  0.4847330000000  0.5585070000000 1.0
C      1  0.5462210000000  0.4941550000000  0.5341740000000 1.0
C      1  0.5407080000000  0.5736190000000  0.5478960000000 1.0
C      1  0.4144910000000  0.4790000000000  0.4785020000000 1.0
C      1  0.4529930000000  0.5722730000000  0.5582270000000 1.0
C      1  0.5269940000000  0.4700590000000  0.5334840000000 1.0
C      1  0.5335210000000  0.4974820000000  0.4686660000000 1.0
C      1  0.5041590000000  0.4800930000000  0.5040930000000 1.0
C      1  0.5825400000000  0.5154050000000  0.4746550000000 1.0
C      1  0.4820480000000  0.5758100000000  0.5546520000000 1.0
C      1  0.4289370000000  0.4348150000000  0.4886940000000 1.0
C      1  0.4451180000000  0.4799170000000  0.4233810000000 1.0
C      1  0.4598520000000  0.5859210000000  0.4856750000000 1.0
C      1  0.4766810000000  0.5262040000000  0.5407980000000 1.0
C      1  0.4722710000000  0.4216780000000  0.4310840000000 1.0
C      1  0.4823680000000  0.5209950000000  0.4514380000000 1.0
C      1  0.4869750000000  0.3928580000000  0.4712120000000 1.0
C      1  0.4706610000000  0.4894660000000  0.4116910000000 1.0
C      1  0.5336600000000  0.4132820000000  0.5305920000000 1.0
C      1  0.4322550000000  0.4410850000000  0.5171180000000 1.0
C      1  0.4770940000000  0.4486030000000  0.4887840000000 1.0
C      1  0.4312200000000  0.4720720000000  0.5573120000000 1.0
C      1  0.5586770000000  0.5564190000000  0.5023470000000 1.0
C      1  0.4257030000000  0.4979290000000  0.5704360000000 1.0
C      1  0.5009550000000  0.5092130000000  0.5480340000000 1.0
C      1  0.6049670000000  0.5131070000000  0.4950890000000 1.0
C      1  0.4191690000000  0.5255070000000  0.4771640000000 1.0
C      1  0.5177690000000  0.4734230000000  0.4532630000000 1.0
C      1  0.5268270000000  0.4232700000000  0.4586470000000 1.0
C      1  0.4646170000000  0.4022040000000  0.4868560000000 1.0
C      1  0.6073180000000  0.4958090000000  0.5405720000000 1.0
C      1  0.4863230000000  0.5351970000000  0.5830360000000 1.0
C      1  0.5175850000000  0.5431540000000  0.4744130000000 1.0
C      1  0.5293920000000  0.5204870000000  0.5422570000000 1.0
C      1  0.5028130000000  0.4147080000000  0.5269660000000 1.0
C      1  0.5332590000000  0.4325810000000  0.5776760000000 1.0
C      1  0.5297010000000  0.5704140000000  0.4329330000000 1.0
C      1  0.5031500000000  0.4315240000000  0.5000130000000 1.0
C      1  0.5995680000000  0.4907800000000  0.5137660000000 1.0
C      1  0.5437760000000  0.4336410000000  0.5508460000000 1.0
C      1  0.5023800000000  0.5742050000000  0.4459550000000 1.0
C      1  0.5175240000000  0.4756890000000  0.4091800000000 1.0
C      1  0.4855960000000  0.4338360000000  0.5933900000000 1.0
C      1  0.4988000000000  0.5549050000000  0.5661650000000 1.0
C      1  0.5646470000000  0.5575160000000  0.5405600000000 1.0
C      1  0.4721500000000  0.5102930000000  0.4992770000000 1.0
C      1  0.5106870000000  0.4490170000000  0.5864610000000 1.0
C      1  0.4724020000000  0.4882600000000  0.5811080000000 1.0
C      1  0.4711610000000  0.5431380000000  0.4114920000000 1.0
C      1  0.5209060000000  0.5742520000000  0.5237850000000 1.0
C      1  0.4296830000000  0.5535110000000  0.4710920000000 1.0
C      1  0.5332980000000  0.4508110000000  0.4685030000000 1.0
C      1  0.5699340000000  0.4851710000000  0.5093340000000 1.0
C      1  0.4202790000000  0.5302810000000  0.5289820000000 1.0
C      1  0.5247390000000  0.5508880000000  0.4104480000000 1.0
C      1  0.5638190000000  0.4466540000000  0.4672600000000 1.0
C      1  0.5798940000000  0.4714700000000  0.4647900000000 1.0
C      1  0.4584550000000  0.4622220000000  0.5687260000000 1.0
C      1  0.5283210000000  0.5111230000000  0.5875010000000 1.0
C      1  0.5009930000000  0.5981260000000  0.4600970000000 1.0
C      1  0.5642910000000  0.4350440000000  0.4961870000000 1.0
C      1  0.4552530000000  0.5913360000000  0.4557520000000 1.0
C      1  0.5464980000000  0.5093130000000  0.4118870000000 1.0
C      1  0.5975600000000  0.5371730000000  0.5101880000000 1.0
C      1  0.5184890000000  0.4102340000000  0.4829710000000 1.0
C      1  0.4131630000000  0.4517990000000  0.4731620000000 1.0
C      1  0.5304410000000  0.5239840000000  0.4555670000000 1.0
C      1  0.4858770000000  0.4721090000000  0.4653110000000 1.0
C      1  0.4980290000000  0.5451120000000  0.4037830000000 1.0
C      1  0.4403380000000  0.5676730000000  0.4456250000000 1.0
C      1  0.5053100000000  0.6028620000000  0.4872430000000 1.0
C      1  0.5388200000000  0.5655170000000  0.4806480000000 1.0
C      1  0.4695550000000  0.4455270000000  0.5434710000000 1.0
C      1  0.4771380000000  0.5007220000000  0.4718910000000 1.0
C      1  0.4519250000000  0.4234610000000  0.5319550000000 1.0
C      1  0.4935180000000  0.4295450000000  0.5503370000000 1.0
C      1  0.5828160000000  0.4881810000000  0.4395150000000 1.0
C      1  0.4837880000000  0.4424440000000  0.4160090000000 1.0
C      1  0.5266770000000  0.5419760000000  0.5200040000000 1.0
C      1  0.4592290000000  0.4445540000000  0.5919600000000 1.0
C      1  0.4912440000000  0.4694710000000  0.4179340000000 1.0
C      1  0.5121210000000  0.5290310000000  0.4989530000000 1.0
C      1  0.5396040000000  0.4639430000000  0.4230390000000 1.0
C      1  0.4601200000000  0.4919940000000  0.5177170000000 1.0
C      1  0.4899320000000  0.5495800000000  0.4615880000000 1.0
C      1  0.4675060000000  0.4039610000000  0.5157540000000 1.0
C      1  0.4319280000000  0.5034860000000  0.4343470000000 1.0
C      1  0.4664170000000  0.5177420000000  0.4266270000000 1.0
C      1  0.5846080000000  0.5081780000000  0.5515070000000 1.0
C      1  0.4498580000000  0.5068900000000  0.5852510000000 1.0
C      1  0.5539050000000  0.5665660000000  0.4542710000000 1.0
C      1  0.4981210000000  0.5078880000000  0.5784170000000 1.0
C      1  0.5402520000000  0.5311340000000  0.5688440000000 1.0
C      1  0.4119090000000  0.4866130000000  0.5064750000000 1.0
C      1  0.5284590000000  0.5882850000000  0.4978330000000 1.0
C      1  0.4435400000000  0.5498810000000  0.5274770000000 1.0
C      1  0.5171270000000  0.4102490000000  0.4356050000000 1.0
C      1  0.5905370000000  0.5161780000000  0.4461160000000 1.0
C      1  0.4560410000000  0.4623280000000  0.4437970000000 1.0
C      1  0.5641490000000  0.4918240000000  0.4797560000000 1.0
C      1  0.5211460000000  0.5019760000000  0.4949320000000 1.0
C      1  0.4702810000000  0.5398280000000  0.5082880000000 1.0
C      1  0.5224080000000  0.5016940000000  0.3994150000000 1.0
C      1  0.4554170000000  0.4287540000000  0.4774380000000 1.0
C      1  0.4921110000000  0.5813540000000  0.5278200000000 1.0
END
