TITL C-950528-5794-625 -2.98605745731777e-06 125000 -666.146532097342 0 0 108 (C1) n - 1
REM
REM in /home/bkarasulu/work/CARBON/AIRSS/Generating-Clusters/EDIP-Nigel-Params/with-SteepDescent/Only-C1/SD-CG/HFTN-CG
REM
REM
REM
REM
REM
REM ./C.cell (11c1c37f851c82e70ff6c80c92926a4b)
REM
REM compiler GCC version 9.2.1 20190827 (Red Hat 9.2.1-1)
REM options -cpp -mtune=generic -march=x86-64 -g -O0 -fpre-include=/usr/include/finclude/math-vector-fortran.h
REM seed -2210041 965677824 -1209571229 -1983487316 -376016139 -1399383796 1321394009 417157105 -654340746 -795240016 1470059065 -1133548160 -1277516036 1818342115 1032315485 -1719617056 1669933764 -1621608261 1438482227 -790843259 973082795 1875308405 1651584927 1915680737 -1035108710 -1978501114 622685822 -1726998296 -1951396084 1450164888 -2015772305 -761581061 1173921864
REM
CELL 1.54180   50.00000   50.00000   50.00000   90.00000   90.00000   90.00000
LATT -1
SFAC C  
C      1  0.4393270000000  0.4739580000000  0.4631680000000 1.0
C      1  0.5051900000000  0.4817130000000  0.5187470000000 1.0
C      1  0.5194550000000  0.5736850000000  0.4895190000000 1.0
C      1  0.5296580000000  0.4692730000000  0.5607230000000 1.0
C      1  0.5779620000000  0.4790920000000  0.5102070000000 1.0
C      1  0.4245550000000  0.4942790000000  0.4434310000000 1.0
C      1  0.5116000000000  0.5254240000000  0.4037040000000 1.0
C      1  0.5721520000000  0.4510550000000  0.5038620000000 1.0
C      1  0.4452890000000  0.4947820000000  0.4224520000000 1.0
C      1  0.4570430000000  0.5695180000000  0.5449570000000 1.0
C      1  0.4574860000000  0.5045060000000  0.5554470000000 1.0
C      1  0.5578610000000  0.4771280000000  0.5542940000000 1.0
C      1  0.4101770000000  0.5177110000000  0.5615830000000 1.0
C      1  0.5229680000000  0.4085810000000  0.5196870000000 1.0
C      1  0.5649030000000  0.5321290000000  0.5278540000000 1.0
C      1  0.4328980000000  0.4482080000000  0.5041370000000 1.0
C      1  0.5417050000000  0.5128210000000  0.5230300000000 1.0
C      1  0.4693860000000  0.5055080000000  0.4779540000000 1.0
C      1  0.4901870000000  0.5479450000000  0.5822240000000 1.0
C      1  0.4844410000000  0.5782290000000  0.4524870000000 1.0
C      1  0.5362500000000  0.4241990000000  0.5654230000000 1.0
C      1  0.5142490000000  0.5083640000000  0.5391060000000 1.0
C      1  0.5641430000000  0.5624260000000  0.5030510000000 1.0
C      1  0.4921280000000  0.5041540000000  0.4044720000000 1.0
C      1  0.5219020000000  0.4725480000000  0.4939400000000 1.0
C      1  0.4155890000000  0.4847480000000  0.5250220000000 1.0
C      1  0.4354200000000  0.5134170000000  0.5729840000000 1.0
C      1  0.4237120000000  0.4655880000000  0.5456870000000 1.0
C      1  0.4190280000000  0.5211550000000  0.4548310000000 1.0
C      1  0.5846280000000  0.4400650000000  0.4811000000000 1.0
C      1  0.5092550000000  0.5346840000000  0.4542060000000 1.0
C      1  0.4768890000000  0.4748050000000  0.5146600000000 1.0
C      1  0.5351580000000  0.4541860000000  0.4058750000000 1.0
C      1  0.5016810000000  0.5859700000000  0.5374030000000 1.0
C      1  0.5476940000000  0.5719390000000  0.4796580000000 1.0
C      1  0.5377470000000  0.4065550000000  0.4955370000000 1.0
C      1  0.5175400000000  0.5502370000000  0.5870200000000 1.0
C      1  0.4740840000000  0.5871630000000  0.5265520000000 1.0
C      1  0.4494310000000  0.5214570000000  0.5961200000000 1.0
C      1  0.4576990000000  0.4930420000000  0.5031560000000 1.0
C      1  0.4306990000000  0.4782560000000  0.4978440000000 1.0
C      1  0.4467950000000  0.5721260000000  0.4497150000000 1.0
C      1  0.5406240000000  0.4222450000000  0.5379680000000 1.0
C      1  0.5531410000000  0.4980920000000  0.4196830000000 1.0
C      1  0.4771210000000  0.5204980000000  0.5851570000000 1.0
C      1  0.5526610000000  0.4633980000000  0.4501610000000 1.0
C      1  0.4807530000000  0.5469770000000  0.4951680000000 1.0
C      1  0.4921010000000  0.4405620000000  0.5432490000000 1.0
C      1  0.4782150000000  0.4253290000000  0.4950230000000 1.0
C      1  0.5708110000000  0.5125900000000  0.4389590000000 1.0
C      1  0.5163490000000  0.4588240000000  0.5352530000000 1.0
C      1  0.5416340000000  0.4464900000000  0.5088700000000 1.0
C      1  0.5429020000000  0.5110990000000  0.5790260000000 1.0
C      1  0.5228170000000  0.5808080000000  0.5185910000000 1.0
C      1  0.5590510000000  0.4894680000000  0.4662780000000 1.0
C      1  0.5683260000000  0.5325280000000  0.4610870000000 1.0
C      1  0.5339710000000  0.5578800000000  0.4340530000000 1.0
C      1  0.5491380000000  0.5725020000000  0.5279620000000 1.0
C      1  0.4948720000000  0.4438850000000  0.5746540000000 1.0
C      1  0.4892990000000  0.4350100000000  0.4221950000000 1.0
C      1  0.4103850000000  0.5132030000000  0.5334830000000 1.0
C      1  0.5404260000000  0.4219160000000  0.4722050000000 1.0
C      1  0.4676130000000  0.4576250000000  0.5360980000000 1.0
C      1  0.5542620000000  0.4851650000000  0.5258830000000 1.0
C      1  0.5637430000000  0.4375990000000  0.4625530000000 1.0
C      1  0.4732530000000  0.5767050000000  0.4980790000000 1.0
C      1  0.5188140000000  0.4968350000000  0.5679280000000 1.0
C      1  0.4862020000000  0.5557610000000  0.5538360000000 1.0
C      1  0.4935420000000  0.5877160000000  0.4786350000000 1.0
C      1  0.4348870000000  0.5563210000000  0.5332040000000 1.0
C      1  0.5317610000000  0.5203640000000  0.4955300000000 1.0
C      1  0.4628440000000  0.5342600000000  0.4743300000000 1.0
C      1  0.5242680000000  0.4456200000000  0.5790220000000 1.0
C      1  0.4324960000000  0.5356640000000  0.4764860000000 1.0
C      1  0.5149300000000  0.5048070000000  0.4536440000000 1.0
C      1  0.4500810000000  0.4328000000000  0.4859710000000 1.0
C      1  0.4966000000000  0.5325140000000  0.5380850000000 1.0
C      1  0.5227700000000  0.4972270000000  0.4256540000000 1.0
C      1  0.5552710000000  0.4683150000000  0.4202630000000 1.0
C      1  0.4663570000000  0.4888020000000  0.4547570000000 1.0
C      1  0.5801240000000  0.4967870000000  0.4867300000000 1.0
C      1  0.4299230000000  0.5315650000000  0.5203770000000 1.0
C      1  0.4686920000000  0.5522430000000  0.4491600000000 1.0
C      1  0.5404070000000  0.5400800000000  0.5743910000000 1.0
C      1  0.5666010000000  0.4990080000000  0.5699140000000 1.0
C      1  0.4945430000000  0.4950670000000  0.5859610000000 1.0
C      1  0.5110290000000  0.5436690000000  0.4855270000000 1.0
C      1  0.4480390000000  0.4442240000000  0.4582270000000 1.0
C      1  0.5494200000000  0.5494460000000  0.5470640000000 1.0
C      1  0.5200060000000  0.4605270000000  0.4500520000000 1.0
C      1  0.4402030000000  0.4453590000000  0.5321940000000 1.0
C      1  0.4585860000000  0.4745140000000  0.5599640000000 1.0
C      1  0.4774630000000  0.5301730000000  0.5184280000000 1.0
C      1  0.5179530000000  0.4398710000000  0.4725860000000 1.0
C      1  0.4677810000000  0.5117810000000  0.4176640000000 1.0
C      1  0.4541220000000  0.5141860000000  0.5249920000000 1.0
C      1  0.5487870000000  0.5533230000000  0.4579340000000 1.0
C      1  0.4924270000000  0.4257070000000  0.4700970000000 1.0
C      1  0.4777450000000  0.4416360000000  0.4490470000000 1.0
C      1  0.5752940000000  0.5267340000000  0.4907300000000 1.0
C      1  0.4662280000000  0.5385110000000  0.4242440000000 1.0
C      1  0.4246350000000  0.5592120000000  0.4619560000000 1.0
C      1  0.4793840000000  0.4693010000000  0.5816040000000 1.0
C      1  0.4885010000000  0.4692900000000  0.4529100000000 1.0
C      1  0.5158610000000  0.4458790000000  0.4244810000000 1.0
C      1  0.4943720000000  0.4187370000000  0.5206940000000 1.0
C      1  0.5318160000000  0.4968490000000  0.4772970000000 1.0
C      1  0.5098060000000  0.5462810000000  0.4239610000000 1.0
END
