TITL C-951346-9544-550 -5.65275362964903e-07 125000 -1014.45984712769 0 0 161 (C1) n - 1
REM
REM in /home/bkarasulu/work/CARBON/AIRSS/Generating-Clusters/EDIP-Nigel-Params/with-SteepDescent/Only-C1/SD-CG/HFTN-CG
REM
REM
REM
REM
REM
REM ./C.cell (11c1c37f851c82e70ff6c80c92926a4b)
REM
REM compiler GCC version 9.2.1 20190827 (Red Hat 9.2.1-1)
REM options -cpp -mtune=generic -march=x86-64 -g -O0 -fpre-include=/usr/include/finclude/math-vector-fortran.h
REM seed 1638473287 -303567377 1518849385 1541117166 441927619 -1139518185 2053122043 -1589675156 326901012 -360280107 -1598679060 -178281922 481818635 -1502033353 2035044190 -62440641 1372915631 2016545442 -81501905 1786478242 616706958 127488099 -351471895 538935254 -2140270060 -1697551535 -616377261 -1916996384 1792489550 1148689328 645883833 583817381 -769620833
REM
CELL 1.54180   50.00000   50.00000   50.00000   90.00000   90.00000   90.00000
LATT -1
SFAC C  
C      1  0.5569740000000  0.5773990000000  0.4671900000000 1.0
C      1  0.4089750000000  0.5427650000000  0.4343660000000 1.0
C      1  0.5637690000000  0.5269060000000  0.5087840000000 1.0
C      1  0.4705100000000  0.3983330000000  0.5221690000000 1.0
C      1  0.5739040000000  0.5071440000000  0.4255650000000 1.0
C      1  0.4913910000000  0.6270030000000  0.4719780000000 1.0
C      1  0.4135700000000  0.5547240000000  0.5354730000000 1.0
C      1  0.5943870000000  0.5499130000000  0.4566710000000 1.0
C      1  0.4730460000000  0.4843920000000  0.5888700000000 1.0
C      1  0.4727290000000  0.4754300000000  0.4555240000000 1.0
C      1  0.6055470000000  0.4578570000000  0.4961060000000 1.0
C      1  0.5615110000000  0.4632740000000  0.4768670000000 1.0
C      1  0.5368550000000  0.4684690000000  0.4032670000000 1.0
C      1  0.5395610000000  0.4009530000000  0.5286350000000 1.0
C      1  0.4550700000000  0.5404710000000  0.5109240000000 1.0
C      1  0.4356950000000  0.5737850000000  0.5426110000000 1.0
C      1  0.4124550000000  0.5719670000000  0.4596260000000 1.0
C      1  0.5193790000000  0.4248120000000  0.5817150000000 1.0
C      1  0.5695980000000  0.5678890000000  0.4915820000000 1.0
C      1  0.5998480000000  0.5096770000000  0.4390100000000 1.0
C      1  0.5594720000000  0.5727360000000  0.5189210000000 1.0
C      1  0.4246970000000  0.4469070000000  0.4454870000000 1.0
C      1  0.4448800000000  0.5127300000000  0.4738620000000 1.0
C      1  0.4990670000000  0.5628340000000  0.4979640000000 1.0
C      1  0.4791250000000  0.5758200000000  0.4225590000000 1.0
C      1  0.5205990000000  0.5729740000000  0.5429130000000 1.0
C      1  0.4467810000000  0.5442730000000  0.4023890000000 1.0
C      1  0.4239080000000  0.4635190000000  0.4689330000000 1.0
C      1  0.5562350000000  0.4151840000000  0.5487600000000 1.0
C      1  0.4461220000000  0.5146330000000  0.3986580000000 1.0
C      1  0.5844170000000  0.4483330000000  0.5590450000000 1.0
C      1  0.5142890000000  0.4753770000000  0.5428750000000 1.0
C      1  0.4362960000000  0.5769210000000  0.4425130000000 1.0
C      1  0.4532320000000  0.4224470000000  0.4875270000000 1.0
C      1  0.4947760000000  0.4114580000000  0.5703740000000 1.0
C      1  0.5008490000000  0.5419680000000  0.4497960000000 1.0
C      1  0.5251330000000  0.5233930000000  0.4567890000000 1.0
C      1  0.4743560000000  0.4012530000000  0.4923170000000 1.0
C      1  0.5213950000000  0.4947150000000  0.4825930000000 1.0
C      1  0.5671540000000  0.5440350000000  0.5597810000000 1.0
C      1  0.5266900000000  0.5507220000000  0.4218110000000 1.0
C      1  0.5214860000000  0.4481320000000  0.5373110000000 1.0
C      1  0.4681660000000  0.4477560000000  0.4972940000000 1.0
C      1  0.4068680000000  0.4529820000000  0.5387880000000 1.0
C      1  0.4935530000000  0.5465960000000  0.5867150000000 1.0
C      1  0.4725540000000  0.5080330000000  0.4122440000000 1.0
C      1  0.4459200000000  0.5866090000000  0.4911940000000 1.0
C      1  0.5081610000000  0.5760020000000  0.4244380000000 1.0
C      1  0.5685270000000  0.4233940000000  0.4991870000000 1.0
C      1  0.4522390000000  0.5687220000000  0.5172630000000 1.0
C      1  0.4750780000000  0.4945820000000  0.5600540000000 1.0
C      1  0.5378530000000  0.4362510000000  0.5595430000000 1.0
C      1  0.5235850000000  0.4416830000000  0.5091530000000 1.0
C      1  0.5405930000000  0.4171490000000  0.5032700000000 1.0
C      1  0.4325430000000  0.4830070000000  0.5648430000000 1.0
C      1  0.4319300000000  0.4200840000000  0.5080580000000 1.0
C      1  0.4151480000000  0.5170890000000  0.4697930000000 1.0
C      1  0.4744100000000  0.6062650000000  0.5089330000000 1.0
C      1  0.4879850000000  0.4620240000000  0.4082660000000 1.0
C      1  0.5571780000000  0.5557310000000  0.4207260000000 1.0
C      1  0.6111290000000  0.5028840000000  0.5088170000000 1.0
C      1  0.5277040000000  0.4684600000000  0.6011110000000 1.0
C      1  0.4924770000000  0.5798740000000  0.5464560000000 1.0
C      1  0.5122110000000  0.4019810000000  0.5370350000000 1.0
C      1  0.5844260000000  0.4965670000000  0.5663070000000 1.0
C      1  0.5820080000000  0.4255410000000  0.5420260000000 1.0
C      1  0.4666770000000  0.4294400000000  0.4387590000000 1.0
C      1  0.5275640000000  0.4059960000000  0.4777660000000 1.0
C      1  0.3909810000000  0.4819250000000  0.5012920000000 1.0
C      1  0.4921880000000  0.4899790000000  0.3999260000000 1.0
C      1  0.4838170000000  0.5316480000000  0.4261860000000 1.0
C      1  0.5783330000000  0.4488010000000  0.4953920000000 1.0
C      1  0.5791620000000  0.4707080000000  0.4539250000000 1.0
C      1  0.5412780000000  0.5340750000000  0.4877710000000 1.0
C      1  0.5159970000000  0.4262840000000  0.4329280000000 1.0
C      1  0.5601870000000  0.4971410000000  0.5160460000000 1.0
C      1  0.4980030000000  0.4156250000000  0.4768700000000 1.0
C      1  0.4143220000000  0.5007520000000  0.5499630000000 1.0
C      1  0.5468180000000  0.5467730000000  0.5791870000000 1.0
C      1  0.4845730000000  0.4810370000000  0.5357820000000 1.0
C      1  0.4978200000000  0.6134500000000  0.4954300000000 1.0
C      1  0.4756630000000  0.5273250000000  0.5260760000000 1.0
C      1  0.4799180000000  0.5792000000000  0.5193900000000 1.0
C      1  0.5486320000000  0.4859320000000  0.4910800000000 1.0
C      1  0.5166930000000  0.5895410000000  0.4946170000000 1.0
C      1  0.4071040000000  0.5613890000000  0.5084390000000 1.0
C      1  0.4030280000000  0.4571440000000  0.4892120000000 1.0
C      1  0.5964690000000  0.4746390000000  0.5493530000000 1.0
C      1  0.4475880000000  0.4906820000000  0.4948940000000 1.0
C      1  0.4525670000000  0.4384450000000  0.5480730000000 1.0
C      1  0.5123040000000  0.5176930000000  0.5591740000000 1.0
C      1  0.5202600000000  0.4975060000000  0.4080860000000 1.0
C      1  0.4281510000000  0.4536880000000  0.5593790000000 1.0
C      1  0.5258080000000  0.5431120000000  0.5369260000000 1.0
C      1  0.5894130000000  0.4828480000000  0.5206590000000 1.0
C      1  0.4734910000000  0.4335700000000  0.5691010000000 1.0
C      1  0.5366820000000  0.4731010000000  0.4410820000000 1.0
C      1  0.5973680000000  0.4913010000000  0.4615080000000 1.0
C      1  0.5567450000000  0.4868110000000  0.5645860000000 1.0
C      1  0.4464210000000  0.5220990000000  0.5933870000000 1.0
C      1  0.4898690000000  0.5038420000000  0.6065440000000 1.0
C      1  0.4440940000000  0.4257380000000  0.4566790000000 1.0
C      1  0.5860570000000  0.5239270000000  0.5610970000000 1.0
C      1  0.4764320000000  0.3746960000000  0.5372450000000 1.0
C      1  0.4465440000000  0.4127890000000  0.5322130000000 1.0
C      1  0.4998280000000  0.4452360000000  0.4892460000000 1.0
C      1  0.4239620000000  0.5284180000000  0.5466830000000 1.0
C      1  0.5707330000000  0.5629560000000  0.4459430000000 1.0
C      1  0.5299910000000  0.5872680000000  0.4681650000000 1.0
C      1  0.3999550000000  0.4817350000000  0.5307820000000 1.0
C      1  0.4823340000000  0.4547890000000  0.5873170000000 1.0
C      1  0.4795930000000  0.5657860000000  0.5685050000000 1.0
C      1  0.5544250000000  0.4575900000000  0.5997030000000 1.0
C      1  0.4627270000000  0.5851420000000  0.4565300000000 1.0
C      1  0.4867720000000  0.6067680000000  0.4530420000000 1.0
C      1  0.4372970000000  0.4651160000000  0.4242300000000 1.0
C      1  0.4096940000000  0.5142470000000  0.4412630000000 1.0
C      1  0.4749230000000  0.5235880000000  0.5549990000000 1.0
C      1  0.4436960000000  0.4916410000000  0.5911900000000 1.0
C      1  0.5133280000000  0.5952860000000  0.4452930000000 1.0
C      1  0.5179580000000  0.5115440000000  0.5981560000000 1.0
C      1  0.5033190000000  0.4708390000000  0.4698980000000 1.0
C      1  0.4593550000000  0.5374930000000  0.4824740000000 1.0
C      1  0.4750200000000  0.5289750000000  0.6031550000000 1.0
C      1  0.4747480000000  0.5520680000000  0.4077430000000 1.0
C      1  0.5559110000000  0.5458820000000  0.5326350000000 1.0
C      1  0.4376760000000  0.4784640000000  0.5217250000000 1.0
C      1  0.5580490000000  0.4571820000000  0.5708090000000 1.0
C      1  0.5144120000000  0.4491000000000  0.4123450000000 1.0
C      1  0.4843130000000  0.5517210000000  0.4740290000000 1.0
C      1  0.5099800000000  0.5086430000000  0.5053630000000 1.0
C      1  0.4919860000000  0.4186540000000  0.4477930000000 1.0
C      1  0.5145740000000  0.4818040000000  0.5741660000000 1.0
C      1  0.5340860000000  0.5879700000000  0.5204090000000 1.0
C      1  0.5081350000000  0.4464450000000  0.5990200000000 1.0
C      1  0.6019060000000  0.5301940000000  0.5034530000000 1.0
C      1  0.4625740000000  0.4593490000000  0.5268980000000 1.0
C      1  0.4351000000000  0.5517040000000  0.4278820000000 1.0
C      1  0.5363560000000  0.4506210000000  0.4641830000000 1.0
C      1  0.4185970000000  0.4460930000000  0.5118850000000 1.0
C      1  0.4338350000000  0.4968900000000  0.4284400000000 1.0
C      1  0.3965660000000  0.5046600000000  0.4864050000000 1.0
C      1  0.5374910000000  0.4224340000000  0.4539430000000 1.0
C      1  0.4535510000000  0.4672560000000  0.4784740000000 1.0
C      1  0.4979840000000  0.3832470000000  0.5531490000000 1.0
C      1  0.5651530000000  0.4783840000000  0.4285290000000 1.0
C      1  0.5620500000000  0.5280180000000  0.4078210000000 1.0
C      1  0.5398560000000  0.4961630000000  0.5415410000000 1.0
C      1  0.4590120000000  0.5023450000000  0.4481440000000 1.0
C      1  0.6123600000000  0.5344700000000  0.4418920000000 1.0
C      1  0.4668730000000  0.4577520000000  0.4300200000000 1.0
C      1  0.5322410000000  0.5248860000000  0.4005750000000 1.0
C      1  0.5199910000000  0.4982360000000  0.4392750000000 1.0
C      1  0.4500380000000  0.5635570000000  0.5669960000000 1.0
C      1  0.6141920000000  0.4841500000000  0.4849270000000 1.0
C      1  0.5927420000000  0.5509180000000  0.4856410000000 1.0
C      1  0.4469360000000  0.5341420000000  0.5657130000000 1.0
C      1  0.5229200000000  0.5410530000000  0.5937310000000 1.0
C      1  0.4847450000000  0.5023390000000  0.5152170000000 1.0
C      1  0.5175550000000  0.5378190000000  0.5075110000000 1.0
C      1  0.4175950000000  0.5775260000000  0.4874950000000 1.0
END
