TITL C-951346-9544-667 -4.21817412105319e-07 125000 -89.8637864234021 0 0 18 (C1) n - 1
REM
REM in /home/bkarasulu/work/CARBON/AIRSS/Generating-Clusters/EDIP-Nigel-Params/with-SteepDescent/Only-C1/SD-CG/HFTN-CG
REM
REM
REM
REM
REM
REM ./C.cell (11c1c37f851c82e70ff6c80c92926a4b)
REM
REM compiler GCC version 9.2.1 20190827 (Red Hat 9.2.1-1)
REM options -cpp -mtune=generic -march=x86-64 -g -O0 -fpre-include=/usr/include/finclude/math-vector-fortran.h
REM seed 939204512 1875806201 2123054987 1432578805 1848056035 734422760 2113437888 -1358780169 -1982377066 -924750970 -1746302548 1127011839 735447825 -569547356 756521951 554051618 -602409667 1333052721 -1933506964 587354095 -2042928373 -1724721866 -738141538 -71011804 -1638847573 1842370053 1571568214 -52089730 231359110 1231151127 1317624820 -2033454224 -309353395
REM
CELL 1.54180   50.00000   50.00000   50.00000   90.00000   90.00000   90.00000
LATT -1
SFAC C  
C      1  0.4870210000000  0.5318420000000  0.5492060000000 1.0
C      1  0.5095550000000  0.5177400000000  0.5390320000000 1.0
C      1  0.4475740000000  0.4372280000000  0.5116100000000 1.0
C      1  0.4777910000000  0.4422300000000  0.4729770000000 1.0
C      1  0.5116650000000  0.4792200000000  0.4770260000000 1.0
C      1  0.5198690000000  0.5772900000000  0.4519050000000 1.0
C      1  0.5536900000000  0.5415860000000  0.5056520000000 1.0
C      1  0.5110020000000  0.5442290000000  0.5492110000000 1.0
C      1  0.4919700000000  0.4332500000000  0.4535660000000 1.0
C      1  0.4650170000000  0.4547470000000  0.4952570000000 1.0
C      1  0.5517650000000  0.5445840000000  0.4781500000000 1.0
C      1  0.4772410000000  0.4782190000000  0.5091130000000 1.0
C      1  0.5148490000000  0.5111110000000  0.5114650000000 1.0
C      1  0.4354290000000  0.4544350000000  0.4943820000000 1.0
C      1  0.4671200000000  0.4859840000000  0.5322430000000 1.0
C      1  0.5412250000000  0.5170050000000  0.5021910000000 1.0
C      1  0.5342990000000  0.5619330000000  0.4664160000000 1.0
C      1  0.5029190000000  0.4873670000000  0.5005990000000 1.0
END
