TITL C-951346-9544-309 -7.51215098923827e-07 125000 -282.357998055277 0 0 47 (C1) n - 1
REM
REM in /home/bkarasulu/work/CARBON/AIRSS/Generating-Clusters/EDIP-Nigel-Params/with-SteepDescent/Only-C1/SD-CG/HFTN-CG
REM
REM
REM
REM
REM
REM ./C.cell (11c1c37f851c82e70ff6c80c92926a4b)
REM
REM compiler GCC version 9.2.1 20190827 (Red Hat 9.2.1-1)
REM options -cpp -mtune=generic -march=x86-64 -g -O0 -fpre-include=/usr/include/finclude/math-vector-fortran.h
REM seed 711780967 800681057 -266979090 -1566188274 -1328598472 723308807 64023829 -1651859616 2060120704 300318226 1039371427 -206394358 2026373654 1375871185 -821910058 -1864884052 -1578309325 -1239800417 -1693383429 1627299558 -653598866 -844435946 59460838 391304578 464307534 175204313 652260639 1986687658 -1736008610 1191206371 1770729111 187240799 -1522480146
REM
CELL 1.54180   50.00000   50.00000   50.00000   90.00000   90.00000   90.00000
LATT -1
SFAC C  
C      1  0.4326960000000  0.5036670000000  0.5277630000000 1.0
C      1  0.5577520000000  0.5035590000000  0.4781790000000 1.0
C      1  0.5025980000000  0.4781260000000  0.4579490000000 1.0
C      1  0.5224100000000  0.5136550000000  0.5332560000000 1.0
C      1  0.4523880000000  0.4745360000000  0.4697270000000 1.0
C      1  0.5787310000000  0.4777090000000  0.5521160000000 1.0
C      1  0.4527290000000  0.5099910000000  0.5479200000000 1.0
C      1  0.5104690000000  0.4965510000000  0.5063840000000 1.0
C      1  0.5493570000000  0.4764240000000  0.4710700000000 1.0
C      1  0.4507370000000  0.4638860000000  0.5279820000000 1.0
C      1  0.4926020000000  0.4768780000000  0.5253270000000 1.0
C      1  0.4437010000000  0.5057520000000  0.5000030000000 1.0
C      1  0.4934580000000  0.4492960000000  0.5136600000000 1.0
C      1  0.5762040000000  0.5048920000000  0.5495180000000 1.0
C      1  0.4788470000000  0.5025960000000  0.4992640000000 1.0
C      1  0.5342660000000  0.5213630000000  0.4783400000000 1.0
C      1  0.5512330000000  0.4749790000000  0.5504340000000 1.0
C      1  0.4558600000000  0.4810140000000  0.5493030000000 1.0
C      1  0.5207440000000  0.4751070000000  0.4822970000000 1.0
C      1  0.4306890000000  0.4862210000000  0.4829520000000 1.0
C      1  0.4823340000000  0.5461220000000  0.4966090000000 1.0
C      1  0.4733700000000  0.5267850000000  0.5353320000000 1.0
C      1  0.5457670000000  0.5326030000000  0.5257060000000 1.0
C      1  0.5275000000000  0.4909500000000  0.5521780000000 1.0
C      1  0.4635310000000  0.5501400000000  0.5196980000000 1.0
C      1  0.5343570000000  0.5097380000000  0.4323640000000 1.0
C      1  0.4802510000000  0.4337360000000  0.4680260000000 1.0
C      1  0.5084900000000  0.5584350000000  0.5352920000000 1.0
C      1  0.5243210000000  0.5283000000000  0.4515710000000 1.0
C      1  0.5010260000000  0.5322120000000  0.5442410000000 1.0
C      1  0.5470610000000  0.4742480000000  0.4421610000000 1.0
C      1  0.5094610000000  0.4465120000000  0.4884500000000 1.0
C      1  0.4628050000000  0.5407940000000  0.4738700000000 1.0
C      1  0.4970480000000  0.5313940000000  0.4468130000000 1.0
C      1  0.4764390000000  0.4937210000000  0.4689480000000 1.0
C      1  0.4361850000000  0.5500410000000  0.5107110000000 1.0
C      1  0.5208910000000  0.4841680000000  0.4338820000000 1.0
C      1  0.5718480000000  0.5189780000000  0.5247810000000 1.0
C      1  0.4577300000000  0.4466360000000  0.4810700000000 1.0
C      1  0.4642350000000  0.4462550000000  0.5106560000000 1.0
C      1  0.5353030000000  0.5421830000000  0.4990100000000 1.0
C      1  0.4377600000000  0.5328270000000  0.4882480000000 1.0
C      1  0.4956530000000  0.4503840000000  0.4520390000000 1.0
C      1  0.5093790000000  0.5548530000000  0.5068430000000 1.0
C      1  0.4727210000000  0.5205010000000  0.4546210000000 1.0
C      1  0.5734930000000  0.5045830000000  0.5010480000000 1.0
C      1  0.5035700000000  0.4766960000000  0.5523880000000 1.0
END
