TITL C-950531-5884-296 4.36961152482586e-07 125000 -162.191593339037 0 0 28 (C1) n - 1
REM
REM in /home/bkarasulu/work/CARBON/AIRSS/Generating-Clusters/EDIP-Nigel-Params/with-SteepDescent/Only-C1/SD-CG/HFTN-CG
REM
REM
REM
REM
REM
REM ./C.cell (11c1c37f851c82e70ff6c80c92926a4b)
REM
REM compiler GCC version 9.2.1 20190827 (Red Hat 9.2.1-1)
REM options -cpp -mtune=generic -march=x86-64 -g -O0 -fpre-include=/usr/include/finclude/math-vector-fortran.h
REM seed 1433970518 873666025 -1944599664 -1679489144 -371323869 143003866 271144916 1384444327 -1989242427 -944669148 672938086 974722256 -1723395724 1945275167 -2113804324 -216361921 1986539622 -55016684 -1349159602 -1038650326 -6826222 864019537 -1884086635 -282942415 -664426671 -370054224 -359880591 -38124973 -737750174 -567417426 1086401491 -822094562 -169672049
REM
CELL 1.54180   50.00000   50.00000   50.00000   90.00000   90.00000   90.00000
LATT -1
SFAC C  
C      1  0.5464880000000  0.4826400000000  0.5124770000000 1.0
C      1  0.4799110000000  0.4504010000000  0.4936880000000 1.0
C      1  0.5023540000000  0.5304290000000  0.4547910000000 1.0
C      1  0.5232970000000  0.5031160000000  0.4895380000000 1.0
C      1  0.4726170000000  0.4493360000000  0.4661730000000 1.0
C      1  0.4797660000000  0.4812400000000  0.5313040000000 1.0
C      1  0.4712590000000  0.4967670000000  0.4740760000000 1.0
C      1  0.5181730000000  0.4786920000000  0.5092390000000 1.0
C      1  0.4671330000000  0.4838260000000  0.5682690000000 1.0
C      1  0.5209080000000  0.5316310000000  0.5007680000000 1.0
C      1  0.4829300000000  0.5402650000000  0.4978920000000 1.0
C      1  0.4819120000000  0.4636240000000  0.5549670000000 1.0
C      1  0.5096700000000  0.5539300000000  0.5359480000000 1.0
C      1  0.5300980000000  0.4779620000000  0.4472050000000 1.0
C      1  0.5478010000000  0.5337300000000  0.5124620000000 1.0
C      1  0.5035600000000  0.4764060000000  0.4427030000000 1.0
C      1  0.5278220000000  0.5247610000000  0.4472150000000 1.0
C      1  0.4795460000000  0.4748670000000  0.4565850000000 1.0
C      1  0.4620090000000  0.5022820000000  0.5458320000000 1.0
C      1  0.5349850000000  0.5014850000000  0.4614290000000 1.0
C      1  0.5572620000000  0.5078430000000  0.5158110000000 1.0
C      1  0.4858200000000  0.5220850000000  0.4756670000000 1.0
C      1  0.4695980000000  0.5286600000000  0.5437310000000 1.0
C      1  0.4638050000000  0.4699370000000  0.5087960000000 1.0
C      1  0.5069520000000  0.4547190000000  0.5003750000000 1.0
C      1  0.4865310000000  0.5419230000000  0.5263530000000 1.0
C      1  0.4515150000000  0.4897010000000  0.4927510000000 1.0
C      1  0.5362770000000  0.5477420000000  0.5339550000000 1.0
END
