TITL C-950531-5884-16 -7.81484711054377e-06 125000 -1239.68071512313 0 0 198 (C1) n - 1
REM
REM in /home/bkarasulu/work/CARBON/AIRSS/Generating-Clusters/EDIP-Nigel-Params/with-SteepDescent/Only-C1/SD-CG/HFTN-CG
REM
REM
REM
REM
REM
REM ./C.cell (11c1c37f851c82e70ff6c80c92926a4b)
REM
REM compiler GCC version 9.2.1 20190827 (Red Hat 9.2.1-1)
REM options -cpp -mtune=generic -march=x86-64 -g -O0 -fpre-include=/usr/include/finclude/math-vector-fortran.h
REM seed 115808264 -1238595450 103273406 1067667154 314237070 -26187765 1074548890 -177880441 83973452 -30759657 -1244002268 2072040731 -138388761 -1258258265 -732578740 -431796530 445721545 50569116 -2015997143 1813810998 1602700 297546471 628966046 1142868088 44597533 1185333645 -61775194 -698094241 845902259 1434442707 -2121984193 525393849 -2047362250
REM
CELL 1.54180   50.00000   50.00000   50.00000   90.00000   90.00000   90.00000
LATT -1
SFAC C  
C      1  0.6167400000000  0.5180700000000  0.5127500000000 1.0
C      1  0.4786400000000  0.5170720000000  0.5932540000000 1.0
C      1  0.4715140000000  0.3891920000000  0.5157810000000 1.0
C      1  0.4909730000000  0.4642500000000  0.5966450000000 1.0
C      1  0.4748960000000  0.4915920000000  0.3715010000000 1.0
C      1  0.4836460000000  0.4586740000000  0.4435470000000 1.0
C      1  0.5577300000000  0.5708620000000  0.4181700000000 1.0
C      1  0.4736540000000  0.4380940000000  0.5401900000000 1.0
C      1  0.4996800000000  0.4854550000000  0.5600630000000 1.0
C      1  0.5651060000000  0.5624300000000  0.5586010000000 1.0
C      1  0.5116400000000  0.5015790000000  0.5178340000000 1.0
C      1  0.5897870000000  0.4849320000000  0.5732350000000 1.0
C      1  0.4756430000000  0.4273700000000  0.4884320000000 1.0
C      1  0.4378520000000  0.6014100000000  0.5205750000000 1.0
C      1  0.5414810000000  0.5291200000000  0.4474520000000 1.0
C      1  0.4864340000000  0.5788210000000  0.5554990000000 1.0
C      1  0.5658360000000  0.4485400000000  0.4985000000000 1.0
C      1  0.4426580000000  0.5661680000000  0.5649480000000 1.0
C      1  0.6122030000000  0.5467120000000  0.5039160000000 1.0
C      1  0.4096810000000  0.4863340000000  0.5429200000000 1.0
C      1  0.5639860000000  0.4424380000000  0.4259520000000 1.0
C      1  0.5655670000000  0.4088700000000  0.4755690000000 1.0
C      1  0.4279790000000  0.4465740000000  0.4478070000000 1.0
C      1  0.5209590000000  0.4138460000000  0.4204340000000 1.0
C      1  0.5813400000000  0.4792250000000  0.5998040000000 1.0
C      1  0.5520250000000  0.5325830000000  0.4191600000000 1.0
C      1  0.4646660000000  0.4370090000000  0.5904990000000 1.0
C      1  0.5466610000000  0.5324410000000  0.5314370000000 1.0
C      1  0.5128190000000  0.5385800000000  0.4484200000000 1.0
C      1  0.5690150000000  0.5282250000000  0.4938670000000 1.0
C      1  0.5545090000000  0.5757620000000  0.5302400000000 1.0
C      1  0.3848430000000  0.5251840000000  0.5540590000000 1.0
C      1  0.4453580000000  0.5350950000000  0.4670240000000 1.0
C      1  0.5968900000000  0.5130390000000  0.5690860000000 1.0
C      1  0.4978320000000  0.4777990000000  0.3830090000000 1.0
C      1  0.4540990000000  0.5201420000000  0.4210650000000 1.0
C      1  0.5239030000000  0.5168250000000  0.5397820000000 1.0
C      1  0.6004010000000  0.5136680000000  0.4209440000000 1.0
C      1  0.5309270000000  0.4585300000000  0.5368740000000 1.0
C      1  0.5230550000000  0.6108590000000  0.5208940000000 1.0
C      1  0.5319730000000  0.4005280000000  0.5054410000000 1.0
C      1  0.4183030000000  0.4771150000000  0.5005850000000 1.0
C      1  0.4755920000000  0.5554060000000  0.5991090000000 1.0
C      1  0.5941790000000  0.5566220000000  0.5500250000000 1.0
C      1  0.4823080000000  0.3803840000000  0.5412890000000 1.0
C      1  0.4926380000000  0.5763690000000  0.5841600000000 1.0
C      1  0.4182930000000  0.4781590000000  0.5706480000000 1.0
C      1  0.4772500000000  0.5007260000000  0.4732840000000 1.0
C      1  0.4683870000000  0.4287230000000  0.4275680000000 1.0
C      1  0.4594460000000  0.5766020000000  0.4348270000000 1.0
C      1  0.5452300000000  0.5022310000000  0.4548020000000 1.0
C      1  0.4175130000000  0.5636240000000  0.5506830000000 1.0
C      1  0.4879470000000  0.6127310000000  0.4543170000000 1.0
C      1  0.5485000000000  0.4177620000000  0.4316340000000 1.0
C      1  0.5666100000000  0.5022910000000  0.4773850000000 1.0
C      1  0.3996790000000  0.5338220000000  0.4729330000000 1.0
C      1  0.4292780000000  0.5217210000000  0.5116510000000 1.0
C      1  0.5780480000000  0.5248340000000  0.5887360000000 1.0
C      1  0.5127370000000  0.4648930000000  0.4903820000000 1.0
C      1  0.4427610000000  0.4216260000000  0.4398350000000 1.0
C      1  0.5277740000000  0.4968340000000  0.5636910000000 1.0
C      1  0.4783050000000  0.5698170000000  0.4143120000000 1.0
C      1  0.5699070000000  0.4233810000000  0.5440040000000 1.0
C      1  0.4237900000000  0.5780280000000  0.4616660000000 1.0
C      1  0.4445070000000  0.4010110000000  0.5144010000000 1.0
C      1  0.4328670000000  0.4979980000000  0.5866920000000 1.0
C      1  0.4657100000000  0.4834260000000  0.5243960000000 1.0
C      1  0.6090570000000  0.4507210000000  0.5271350000000 1.0
C      1  0.4312440000000  0.5528400000000  0.5097270000000 1.0
C      1  0.4249140000000  0.4688410000000  0.4276990000000 1.0
C      1  0.4523630000000  0.4723950000000  0.4119010000000 1.0
C      1  0.4736640000000  0.3956520000000  0.4662070000000 1.0
C      1  0.4925580000000  0.5252450000000  0.4678610000000 1.0
C      1  0.5107180000000  0.5702030000000  0.4600610000000 1.0
C      1  0.5446810000000  0.4694970000000  0.5594170000000 1.0
C      1  0.5650140000000  0.5049750000000  0.4084510000000 1.0
C      1  0.5056290000000  0.5806820000000  0.4180210000000 1.0
C      1  0.4747960000000  0.5325090000000  0.5439550000000 1.0
C      1  0.5393230000000  0.5551620000000  0.5106940000000 1.0
C      1  0.5109270000000  0.4032650000000  0.5292000000000 1.0
C      1  0.5310080000000  0.5917580000000  0.5409130000000 1.0
C      1  0.4494740000000  0.4567140000000  0.6042600000000 1.0
C      1  0.5034330000000  0.5366090000000  0.5528260000000 1.0
C      1  0.5026110000000  0.4996040000000  0.4206220000000 1.0
C      1  0.4774100000000  0.5409340000000  0.4086590000000 1.0
C      1  0.6026530000000  0.5687890000000  0.5247400000000 1.0
C      1  0.4171690000000  0.4324620000000  0.5511200000000 1.0
C      1  0.4435800000000  0.5167410000000  0.3928570000000 1.0
C      1  0.5689430000000  0.5034350000000  0.6077930000000 1.0
C      1  0.5191510000000  0.4388000000000  0.4055280000000 1.0
C      1  0.4941950000000  0.4824140000000  0.5314140000000 1.0
C      1  0.4267170000000  0.5270550000000  0.5833210000000 1.0
C      1  0.4821330000000  0.5728740000000  0.4716350000000 1.0
C      1  0.4722280000000  0.4541720000000  0.4725940000000 1.0
C      1  0.5411940000000  0.4575880000000  0.4133020000000 1.0
C      1  0.5463120000000  0.4225030000000  0.5630390000000 1.0
C      1  0.4332530000000  0.5339300000000  0.4390540000000 1.0
C      1  0.6017580000000  0.5217870000000  0.4483740000000 1.0
C      1  0.3862800000000  0.4773710000000  0.4660680000000 1.0
C      1  0.5389790000000  0.4306820000000  0.5034550000000 1.0
C      1  0.5092590000000  0.6014600000000  0.4375800000000 1.0
C      1  0.4721750000000  0.5460380000000  0.4645200000000 1.0
C      1  0.4732010000000  0.4882230000000  0.4310880000000 1.0
C      1  0.4313180000000  0.5082570000000  0.5376720000000 1.0
C      1  0.5143930000000  0.3894280000000  0.4832090000000 1.0
C      1  0.5307860000000  0.5797960000000  0.4818600000000 1.0
C      1  0.5717370000000  0.5199420000000  0.5236590000000 1.0
C      1  0.4859630000000  0.3846390000000  0.4897050000000 1.0
C      1  0.5103110000000  0.5679580000000  0.5426770000000 1.0
C      1  0.5763890000000  0.4528990000000  0.4510100000000 1.0
C      1  0.5576900000000  0.5831830000000  0.4683020000000 1.0
C      1  0.5405410000000  0.4474950000000  0.5791300000000 1.0
C      1  0.4463570000000  0.4046730000000  0.4645230000000 1.0
C      1  0.5985330000000  0.4683170000000  0.5073200000000 1.0
C      1  0.5076690000000  0.5604240000000  0.5141020000000 1.0
C      1  0.6108910000000  0.4939210000000  0.4947200000000 1.0
C      1  0.4611930000000  0.6025850000000  0.4470780000000 1.0
C      1  0.5213120000000  0.4933090000000  0.3874190000000 1.0
C      1  0.4103870000000  0.4886030000000  0.4526990000000 1.0
C      1  0.5708010000000  0.4901040000000  0.5245550000000 1.0
C      1  0.4448160000000  0.4201050000000  0.4914930000000 1.0
C      1  0.4306650000000  0.4111350000000  0.5372140000000 1.0
C      1  0.4860570000000  0.3978480000000  0.5644900000000 1.0
C      1  0.4671090000000  0.4462650000000  0.4049190000000 1.0
C      1  0.5737400000000  0.4730270000000  0.5510690000000 1.0
C      1  0.5889950000000  0.5491390000000  0.4848670000000 1.0
C      1  0.5392990000000  0.5059240000000  0.6107740000000 1.0
C      1  0.5041600000000  0.5300430000000  0.4190180000000 1.0
C      1  0.4888900000000  0.6088340000000  0.4843270000000 1.0
C      1  0.4072590000000  0.5189970000000  0.4474330000000 1.0
C      1  0.4497260000000  0.5081970000000  0.4808700000000 1.0
C      1  0.5149720000000  0.4611970000000  0.4424190000000 1.0
C      1  0.3832530000000  0.5006440000000  0.5407550000000 1.0
C      1  0.5966030000000  0.5278650000000  0.5418240000000 1.0
C      1  0.5620480000000  0.3930960000000  0.5027900000000 1.0
C      1  0.5317640000000  0.5189610000000  0.5854020000000 1.0
C      1  0.4344320000000  0.4539870000000  0.5631360000000 1.0
C      1  0.4530830000000  0.6067680000000  0.4959250000000 1.0
C      1  0.5169960000000  0.4001380000000  0.4566450000000 1.0
C      1  0.4950760000000  0.4797180000000  0.6218930000000 1.0
C      1  0.5153590000000  0.4496260000000  0.5912800000000 1.0
C      1  0.5757870000000  0.4030010000000  0.5254550000000 1.0
C      1  0.4478760000000  0.4850110000000  0.6086370000000 1.0
C      1  0.4435360000000  0.4588360000000  0.4694120000000 1.0
C      1  0.4922840000000  0.4283670000000  0.5183470000000 1.0
C      1  0.5951500000000  0.4748120000000  0.4479130000000 1.0
C      1  0.5209480000000  0.4901750000000  0.6249800000000 1.0
C      1  0.4510070000000  0.4571370000000  0.5345060000000 1.0
C      1  0.4570320000000  0.5692390000000  0.5180300000000 1.0
C      1  0.4323690000000  0.5650620000000  0.4353810000000 1.0
C      1  0.5952620000000  0.4858920000000  0.4213750000000 1.0
C      1  0.5358300000000  0.5993910000000  0.5695520000000 1.0
C      1  0.5224260000000  0.4065550000000  0.5568710000000 1.0
C      1  0.5551690000000  0.5365980000000  0.5746440000000 1.0
C      1  0.4236690000000  0.5534840000000  0.4796170000000 1.0
C      1  0.4301260000000  0.4505580000000  0.5101870000000 1.0
C      1  0.5793870000000  0.5771560000000  0.4873700000000 1.0
C      1  0.4159900000000  0.5829080000000  0.5281880000000 1.0
C      1  0.4061870000000  0.4317060000000  0.5081540000000 1.0
C      1  0.5303370000000  0.5683720000000  0.4055920000000 1.0
C      1  0.3889610000000  0.4758170000000  0.4958190000000 1.0
C      1  0.4018100000000  0.5182820000000  0.4986520000000 1.0
C      1  0.5211010000000  0.5831320000000  0.5885280000000 1.0
C      1  0.5280470000000  0.4879690000000  0.4975750000000 1.0
C      1  0.4599150000000  0.5058190000000  0.5471300000000 1.0
C      1  0.4746340000000  0.4921970000000  0.5746280000000 1.0
C      1  0.5795090000000  0.4357240000000  0.4751980000000 1.0
C      1  0.5868340000000  0.4471450000000  0.5442460000000 1.0
C      1  0.5790840000000  0.5859050000000  0.5153950000000 1.0
C      1  0.4798550000000  0.5179760000000  0.3623570000000 1.0
C      1  0.4731840000000  0.4993550000000  0.6180530000000 1.0
C      1  0.5914140000000  0.5484630000000  0.4552490000000 1.0
C      1  0.4086850000000  0.5375880000000  0.5619660000000 1.0
C      1  0.5272260000000  0.5389960000000  0.4022110000000 1.0
C      1  0.5203740000000  0.4900230000000  0.4432920000000 1.0
C      1  0.5954700000000  0.4980900000000  0.4674200000000 1.0
C      1  0.4944860000000  0.4525750000000  0.3965990000000 1.0
C      1  0.4710810000000  0.4228810000000  0.5651470000000 1.0
C      1  0.4826080000000  0.4762720000000  0.4896240000000 1.0
C      1  0.5586370000000  0.5843820000000  0.5782550000000 1.0
C      1  0.4310730000000  0.4848130000000  0.4754290000000 1.0
C      1  0.3970950000000  0.4532210000000  0.5392210000000 1.0
C      1  0.4493460000000  0.4886840000000  0.3863660000000 1.0
C      1  0.5390520000000  0.4196940000000  0.4605300000000 1.0
C      1  0.4646010000000  0.5614700000000  0.5459940000000 1.0
C      1  0.5457550000000  0.4834740000000  0.3982070000000 1.0
C      1  0.5572910000000  0.4814740000000  0.4984130000000 1.0
C      1  0.5048040000000  0.5340000000000  0.5838590000000 1.0
C      1  0.4824980000000  0.5689300000000  0.5012690000000 1.0
C      1  0.4420380000000  0.6010250000000  0.4691820000000 1.0
C      1  0.3786610000000  0.5018590000000  0.5109290000000 1.0
C      1  0.3831670000000  0.4496420000000  0.5103450000000 1.0
C      1  0.5252600000000  0.4490170000000  0.4661950000000 1.0
C      1  0.4480590000000  0.5477610000000  0.5872430000000 1.0
C      1  0.4653770000000  0.5339170000000  0.3803880000000 1.0
C      1  0.5666820000000  0.5650180000000  0.4456580000000 1.0
C      1  0.5172440000000  0.4467520000000  0.5139010000000 1.0
C      1  0.5179700000000  0.6053770000000  0.4938540000000 1.0
END
