TITL C-951334-9093-710 -1.09250684333883e-06 125000 -665.317769630032 0 0 107 (C1) n - 1
REM
REM in /home/bkarasulu/work/CARBON/AIRSS/Generating-Clusters/EDIP-Nigel-Params/with-SteepDescent/Only-C1/SD-CG/HFTN-CG
REM
REM
REM
REM
REM
REM ./C.cell (11c1c37f851c82e70ff6c80c92926a4b)
REM
REM compiler GCC version 9.2.1 20190827 (Red Hat 9.2.1-1)
REM options -cpp -mtune=generic -march=x86-64 -g -O0 -fpre-include=/usr/include/finclude/math-vector-fortran.h
REM seed 1670337877 945412397 -1969762846 -1083898050 -1936863420 664177719 -1263785818 -1091339687 -586818118 -652709903 -860365878 1267729580 -983066683 -361246252 851046620 479432760 224715160 1451222236 -1601345207 -1612803665 1187497055 1575765697 -1169636166 -1843390111 928583295 -1992094463 -2046044384 470605960 709105709 -1213703368 532043630 458169389 -840778201
REM
CELL 1.54180   50.00000   50.00000   50.00000   90.00000   90.00000   90.00000
LATT -1
SFAC C  
C      1  0.5376980000000  0.5126400000000  0.4179540000000 1.0
C      1  0.4133410000000  0.4852780000000  0.4498100000000 1.0
C      1  0.5089410000000  0.5264010000000  0.5046060000000 1.0
C      1  0.5484850000000  0.4489560000000  0.5202840000000 1.0
C      1  0.4217510000000  0.4692920000000  0.5405660000000 1.0
C      1  0.4611330000000  0.5298680000000  0.5344920000000 1.0
C      1  0.5386570000000  0.5737120000000  0.4910910000000 1.0
C      1  0.5643570000000  0.4635740000000  0.5410550000000 1.0
C      1  0.5722840000000  0.4744260000000  0.4561820000000 1.0
C      1  0.4652860000000  0.5393060000000  0.4475960000000 1.0
C      1  0.4894850000000  0.5493640000000  0.5705420000000 1.0
C      1  0.4060840000000  0.4977650000000  0.4931360000000 1.0
C      1  0.5027190000000  0.5022000000000  0.5569730000000 1.0
C      1  0.4938660000000  0.5408320000000  0.4357410000000 1.0
C      1  0.5664640000000  0.5171900000000  0.4263710000000 1.0
C      1  0.4369380000000  0.5293360000000  0.5523610000000 1.0
C      1  0.5354310000000  0.5654090000000  0.5761320000000 1.0
C      1  0.5633180000000  0.5303850000000  0.4952020000000 1.0
C      1  0.5268900000000  0.4544060000000  0.5713710000000 1.0
C      1  0.5010750000000  0.4804580000000  0.4075160000000 1.0
C      1  0.4781590000000  0.4231960000000  0.4652940000000 1.0
C      1  0.4960010000000  0.4567360000000  0.4242790000000 1.0
C      1  0.5645080000000  0.4427390000000  0.4938370000000 1.0
C      1  0.4679120000000  0.5380070000000  0.5865130000000 1.0
C      1  0.5511740000000  0.5015180000000  0.5700180000000 1.0
C      1  0.4874330000000  0.5764930000000  0.5492710000000 1.0
C      1  0.4418470000000  0.4736470000000  0.4453840000000 1.0
C      1  0.5451140000000  0.4745460000000  0.5599010000000 1.0
C      1  0.5341680000000  0.4259790000000  0.5332830000000 1.0
C      1  0.4888970000000  0.5296210000000  0.5476830000000 1.0
C      1  0.5380450000000  0.5734360000000  0.5493390000000 1.0
C      1  0.4917100000000  0.5032410000000  0.5084370000000 1.0
C      1  0.4835080000000  0.5013930000000  0.4177160000000 1.0
C      1  0.5044810000000  0.4149830000000  0.4681650000000 1.0
C      1  0.5016170000000  0.5700920000000  0.4601630000000 1.0
C      1  0.4188380000000  0.5147630000000  0.4517090000000 1.0
C      1  0.5787860000000  0.4847150000000  0.5289530000000 1.0
C      1  0.5181440000000  0.5437590000000  0.5807140000000 1.0
C      1  0.4873760000000  0.4855360000000  0.5764660000000 1.0
C      1  0.4446340000000  0.5194930000000  0.4366870000000 1.0
C      1  0.5040300000000  0.4840170000000  0.5286290000000 1.0
C      1  0.4632110000000  0.5441980000000  0.4764740000000 1.0
C      1  0.4386830000000  0.4779630000000  0.4930630000000 1.0
C      1  0.5674220000000  0.5454190000000  0.4334160000000 1.0
C      1  0.4548370000000  0.4425730000000  0.5635890000000 1.0
C      1  0.4981640000000  0.4583210000000  0.5746090000000 1.0
C      1  0.5237960000000  0.5257600000000  0.4419240000000 1.0
C      1  0.5093240000000  0.4186330000000  0.5232700000000 1.0
C      1  0.4646800000000  0.4290330000000  0.4399460000000 1.0
C      1  0.5304790000000  0.5689900000000  0.4630090000000 1.0
C      1  0.5902570000000  0.4839780000000  0.5029890000000 1.0
C      1  0.5599350000000  0.5588690000000  0.5055860000000 1.0
C      1  0.5263300000000  0.5166860000000  0.5702080000000 1.0
C      1  0.4744350000000  0.4628320000000  0.5162270000000 1.0
C      1  0.4203590000000  0.5204860000000  0.4814440000000 1.0
C      1  0.4394350000000  0.4422960000000  0.4469040000000 1.0
C      1  0.5482950000000  0.4964560000000  0.5080070000000 1.0
C      1  0.4922400000000  0.4724390000000  0.4497300000000 1.0
C      1  0.5989070000000  0.5252220000000  0.5187670000000 1.0
C      1  0.4498610000000  0.5187160000000  0.5757390000000 1.0
C      1  0.5251080000000  0.5062440000000  0.4647110000000 1.0
C      1  0.5336920000000  0.4292070000000  0.5610340000000 1.0
C      1  0.5089230000000  0.5409170000000  0.5290960000000 1.0
C      1  0.5476410000000  0.4356990000000  0.4704500000000 1.0
C      1  0.5902140000000  0.5198440000000  0.4703250000000 1.0
C      1  0.4483760000000  0.5690990000000  0.4853800000000 1.0
C      1  0.4263660000000  0.5629370000000  0.5042300000000 1.0
C      1  0.3989120000000  0.4757720000000  0.4747440000000 1.0
C      1  0.5130420000000  0.5704980000000  0.5332490000000 1.0
C      1  0.4948640000000  0.5808750000000  0.4873720000000 1.0
C      1  0.4511480000000  0.4817480000000  0.5196820000000 1.0
C      1  0.5215630000000  0.4318150000000  0.4827080000000 1.0
C      1  0.4186380000000  0.4546290000000  0.4918030000000 1.0
C      1  0.4591720000000  0.4906970000000  0.5698690000000 1.0
C      1  0.6013730000000  0.5094990000000  0.4952650000000 1.0
C      1  0.4790970000000  0.4296040000000  0.5599750000000 1.0
C      1  0.5164310000000  0.5841900000000  0.5063700000000 1.0
C      1  0.5611590000000  0.5629120000000  0.5350680000000 1.0
C      1  0.5750660000000  0.5139270000000  0.5612170000000 1.0
C      1  0.5851460000000  0.5583590000000  0.5490970000000 1.0
C      1  0.5209720000000  0.4766280000000  0.4612480000000 1.0
C      1  0.4641300000000  0.4339260000000  0.5160940000000 1.0
C      1  0.5463970000000  0.4599410000000  0.4514010000000 1.0
C      1  0.4816060000000  0.4613390000000  0.4858790000000 1.0
C      1  0.4628280000000  0.5096520000000  0.5129800000000 1.0
C      1  0.4587410000000  0.4236500000000  0.4874180000000 1.0
C      1  0.5337080000000  0.5173890000000  0.4907650000000 1.0
C      1  0.5279390000000  0.4888150000000  0.4064540000000 1.0
C      1  0.5430870000000  0.5472170000000  0.4487360000000 1.0
C      1  0.4641350000000  0.5784240000000  0.5301810000000 1.0
C      1  0.4891670000000  0.5281170000000  0.4097870000000 1.0
C      1  0.5799300000000  0.4653270000000  0.4832440000000 1.0
C      1  0.4137530000000  0.4507860000000  0.5206910000000 1.0
C      1  0.4600760000000  0.4810160000000  0.4699890000000 1.0
C      1  0.4555130000000  0.4948070000000  0.4241590000000 1.0
C      1  0.5749830000000  0.5035750000000  0.4514940000000 1.0
C      1  0.4427680000000  0.4674690000000  0.5606380000000 1.0
C      1  0.4829510000000  0.4186300000000  0.5331280000000 1.0
C      1  0.4086490000000  0.5448270000000  0.4918550000000 1.0
C      1  0.4769530000000  0.4380500000000  0.4164970000000 1.0
C      1  0.4501570000000  0.5202190000000  0.4874940000000 1.0
C      1  0.5906250000000  0.5313210000000  0.5452350000000 1.0
C      1  0.5139600000000  0.4611660000000  0.4866260000000 1.0
C      1  0.4687490000000  0.5835230000000  0.5007150000000 1.0
C      1  0.5286820000000  0.4725640000000  0.5123200000000 1.0
C      1  0.4333060000000  0.4337950000000  0.4753250000000 1.0
C      1  0.4390680000000  0.5617710000000  0.5316820000000 1.0
END
