TITL C-950522-5749-151 -3.18784671949635e-07 125000 -157.789672963961 0 0 27 (C1) n - 1
REM
REM in /home/bkarasulu/work/CARBON/AIRSS/Generating-Clusters/EDIP-Nigel-Params/with-SteepDescent/Only-C1/SD-CG/HFTN-CG
REM
REM
REM
REM
REM
REM ./C.cell (11c1c37f851c82e70ff6c80c92926a4b)
REM
REM compiler GCC version 9.2.1 20190827 (Red Hat 9.2.1-1)
REM options -cpp -mtune=generic -march=x86-64 -g -O0 -fpre-include=/usr/include/finclude/math-vector-fortran.h
REM seed -565978089 -1764574132 1497869188 -1079938259 -47225193 1382903325 478422313 -1227645231 -1384505811 -1031526296 -307154091 -151407836 -1923188370 -925824030 -1474251188 1144708016 2053975869 -1459262893 -610204127 1917149528 457970196 -575234322 1911916170 1217873915 1325642705 -1338130584 331353408 2073635984 -1506745846 -486920711 -508258493 1453456784 -151659321
REM
CELL 1.54180   50.00000   50.00000   50.00000   90.00000   90.00000   90.00000
LATT -1
SFAC C  
C      1  0.4864330000000  0.5229300000000  0.4707660000000 1.0
C      1  0.4904620000000  0.4499910000000  0.4511100000000 1.0
C      1  0.4892230000000  0.4813540000000  0.5558170000000 1.0
C      1  0.5136230000000  0.5457120000000  0.5565290000000 1.0
C      1  0.5463040000000  0.5094300000000  0.5293510000000 1.0
C      1  0.5157920000000  0.4748940000000  0.5482050000000 1.0
C      1  0.5073420000000  0.4886690000000  0.4392750000000 1.0
C      1  0.5153850000000  0.5553940000000  0.5314250000000 1.0
C      1  0.5282100000000  0.4985180000000  0.4851500000000 1.0
C      1  0.4599220000000  0.5205930000000  0.4620680000000 1.0
C      1  0.5447030000000  0.4762530000000  0.4848480000000 1.0
C      1  0.5196830000000  0.4595880000000  0.4436020000000 1.0
C      1  0.4490950000000  0.4993490000000  0.4748350000000 1.0
C      1  0.5375890000000  0.4598790000000  0.4649230000000 1.0
C      1  0.4578810000000  0.4739680000000  0.5140190000000 1.0
C      1  0.4598570000000  0.4766650000000  0.4866160000000 1.0
C      1  0.4916100000000  0.5426670000000  0.4909900000000 1.0
C      1  0.4873140000000  0.5059540000000  0.5698500000000 1.0
C      1  0.5289490000000  0.4999780000000  0.5496210000000 1.0
C      1  0.4689140000000  0.4746370000000  0.5382730000000 1.0
C      1  0.5033450000000  0.4979990000000  0.4685250000000 1.0
C      1  0.5117400000000  0.5187500000000  0.5635560000000 1.0
C      1  0.5291400000000  0.5155960000000  0.5080040000000 1.0
C      1  0.4868360000000  0.4714200000000  0.4752890000000 1.0
C      1  0.4770700000000  0.5647640000000  0.4917490000000 1.0
C      1  0.5140850000000  0.5400020000000  0.5083030000000 1.0
C      1  0.4794940000000  0.4750470000000  0.4372980000000 1.0
END
