TITL C-950530-3293-97 -6.77683236497045e-07 125000 -420.857263180956 0 0 69 (C1) n - 1
REM
REM in /home/bkarasulu/work/CARBON/AIRSS/Generating-Clusters/EDIP-Nigel-Params/with-SteepDescent/Only-C1/SD-CG/HFTN-CG
REM
REM
REM
REM
REM
REM ./C.cell (11c1c37f851c82e70ff6c80c92926a4b)
REM
REM compiler GCC version 9.2.1 20190827 (Red Hat 9.2.1-1)
REM options -cpp -mtune=generic -march=x86-64 -g -O0 -fpre-include=/usr/include/finclude/math-vector-fortran.h
REM seed 1227663133 1397314430 281706892 -218976591 1633102014 -1506399648 315781103 -2064408453 -819776032 -11149829 -44550869 -778193372 -349364 -187248973 709889701 -1053235954 -2045788585 -1513402153 -779445657 1950633827 888871442 1904927001 -1701257365 343472039 748526352 -1740677402 -53734001 1424521956 1874029994 -59668345 -717518907 1751452474 -1328158821
REM
CELL 1.54180   50.00000   50.00000   50.00000   90.00000   90.00000   90.00000
LATT -1
SFAC C  
C      1  0.4612130000000  0.5193100000000  0.5540890000000 1.0
C      1  0.4882720000000  0.5566630000000  0.5308820000000 1.0
C      1  0.4862650000000  0.4221220000000  0.4758690000000 1.0
C      1  0.4197820000000  0.5046290000000  0.4692400000000 1.0
C      1  0.4885130000000  0.5786110000000  0.5137620000000 1.0
C      1  0.5383360000000  0.5697130000000  0.5033230000000 1.0
C      1  0.4930320000000  0.5450290000000  0.4284840000000 1.0
C      1  0.4830540000000  0.4246800000000  0.5249230000000 1.0
C      1  0.5369890000000  0.4883070000000  0.4673790000000 1.0
C      1  0.5332860000000  0.4687870000000  0.4442270000000 1.0
C      1  0.4320330000000  0.5178840000000  0.4493530000000 1.0
C      1  0.4881060000000  0.5072950000000  0.5585840000000 1.0
C      1  0.5653610000000  0.4665340000000  0.5424600000000 1.0
C      1  0.5463920000000  0.5588320000000  0.4675840000000 1.0
C      1  0.5232510000000  0.5239590000000  0.5090530000000 1.0
C      1  0.5684740000000  0.5023620000000  0.5074180000000 1.0
C      1  0.5190990000000  0.4483910000000  0.4985260000000 1.0
C      1  0.5129160000000  0.4319210000000  0.4751940000000 1.0
C      1  0.4454120000000  0.4441780000000  0.5016420000000 1.0
C      1  0.4463360000000  0.4632260000000  0.5251890000000 1.0
C      1  0.4702380000000  0.5540920000000  0.4472160000000 1.0
C      1  0.4896980000000  0.4865040000000  0.4752200000000 1.0
C      1  0.4934530000000  0.5781320000000  0.4863850000000 1.0
C      1  0.5118740000000  0.5242500000000  0.5559310000000 1.0
C      1  0.5241150000000  0.4392370000000  0.5467950000000 1.0
C      1  0.4343530000000  0.4590900000000  0.4787350000000 1.0
C      1  0.4905160000000  0.4578400000000  0.5526270000000 1.0
C      1  0.4796500000000  0.5167730000000  0.4262200000000 1.0
C      1  0.5086640000000  0.5101120000000  0.4343640000000 1.0
C      1  0.4782470000000  0.5329590000000  0.4853440000000 1.0
C      1  0.5188800000000  0.5613890000000  0.4807150000000 1.0
C      1  0.4680800000000  0.5683460000000  0.4734120000000 1.0
C      1  0.4974740000000  0.4811910000000  0.5695520000000 1.0
C      1  0.5613220000000  0.5414510000000  0.5334060000000 1.0
C      1  0.4588050000000  0.5256160000000  0.4472860000000 1.0
C      1  0.5356520000000  0.4368080000000  0.5193860000000 1.0
C      1  0.5187110000000  0.4942170000000  0.5153520000000 1.0
C      1  0.5592170000000  0.4537220000000  0.5170030000000 1.0
C      1  0.5138790000000  0.5423500000000  0.5329590000000 1.0
C      1  0.4765330000000  0.4702320000000  0.4539670000000 1.0
C      1  0.5355710000000  0.4749940000000  0.4969670000000 1.0
C      1  0.4662970000000  0.5362330000000  0.5292560000000 1.0
C      1  0.5378250000000  0.5607090000000  0.5319240000000 1.0
C      1  0.5091750000000  0.5317390000000  0.4830410000000 1.0
C      1  0.4302580000000  0.5100790000000  0.5359790000000 1.0
C      1  0.5425520000000  0.4590400000000  0.5621690000000 1.0
C      1  0.4472560000000  0.5545830000000  0.4904490000000 1.0
C      1  0.4739900000000  0.5158280000000  0.5085360000000 1.0
C      1  0.4193440000000  0.5339470000000  0.5257460000000 1.0
C      1  0.5596870000000  0.5168040000000  0.5516820000000 1.0
C      1  0.4889490000000  0.4890180000000  0.5068570000000 1.0
C      1  0.4996220000000  0.4212740000000  0.5485720000000 1.0
C      1  0.4334710000000  0.4881150000000  0.5165920000000 1.0
C      1  0.5566020000000  0.5332900000000  0.4631840000000 1.0
C      1  0.4512680000000  0.4590300000000  0.4566830000000 1.0
C      1  0.5139110000000  0.4814510000000  0.4254180000000 1.0
C      1  0.4890750000000  0.4685630000000  0.4288190000000 1.0
C      1  0.5323980000000  0.5043510000000  0.5506310000000 1.0
C      1  0.5614550000000  0.5055630000000  0.4639280000000 1.0
C      1  0.4418780000000  0.5489950000000  0.5184350000000 1.0
C      1  0.5812350000000  0.4971130000000  0.4825230000000 1.0
C      1  0.4770560000000  0.4632790000000  0.5250660000000 1.0
C      1  0.5275990000000  0.4831770000000  0.5707750000000 1.0
C      1  0.5541040000000  0.5280720000000  0.5068690000000 1.0
C      1  0.4709950000000  0.4286510000000  0.4990760000000 1.0
C      1  0.4245250000000  0.4849660000000  0.4885100000000 1.0
C      1  0.5735920000000  0.4953100000000  0.5362250000000 1.0
C      1  0.5234550000000  0.4437740000000  0.4521980000000 1.0
C      1  0.5113690000000  0.5053060000000  0.4648340000000 1.0
END
