TITL C-951347-9520-216 -5.7592726119229e-08 125000 -479.596105350981 0 0 78 (C1) n - 1
REM
REM in /home/bkarasulu/work/CARBON/AIRSS/Generating-Clusters/EDIP-Nigel-Params/with-SteepDescent/Only-C1/SD-CG/HFTN-CG
REM
REM
REM
REM
REM
REM ./C.cell (11c1c37f851c82e70ff6c80c92926a4b)
REM
REM compiler GCC version 9.2.1 20190827 (Red Hat 9.2.1-1)
REM options -cpp -mtune=generic -march=x86-64 -g -O0 -fpre-include=/usr/include/finclude/math-vector-fortran.h
REM seed -1894498633 298767493 1423632894 -374982436 -1359912301 -2060404609 -780514585 610838316 272923437 -815677048 -256552322 -1600813503 -219094847 1197769878 -1552002584 -783906954 -1804023071 -1941543672 -468167930 -1920760455 600818515 -164393933 1292604774 469518140 -1756608144 -1037360113 1613408571 -1496356860 529600245 809764982 1229375047 405760193 309522218
REM
CELL 1.54180   50.00000   50.00000   50.00000   90.00000   90.00000   90.00000
LATT -1
SFAC C  
C      1  0.5044350000000  0.4986270000000  0.4805380000000 1.0
C      1  0.5513140000000  0.4751250000000  0.5533160000000 1.0
C      1  0.5243780000000  0.4951280000000  0.5239170000000 1.0
C      1  0.4670890000000  0.5684680000000  0.4659180000000 1.0
C      1  0.5397770000000  0.5720610000000  0.5326980000000 1.0
C      1  0.5336230000000  0.4185240000000  0.4761160000000 1.0
C      1  0.4693850000000  0.5641530000000  0.5181920000000 1.0
C      1  0.5118350000000  0.4703300000000  0.4878290000000 1.0
C      1  0.5051060000000  0.5394810000000  0.5564410000000 1.0
C      1  0.5416320000000  0.4749670000000  0.4826130000000 1.0
C      1  0.4596830000000  0.4439670000000  0.5586450000000 1.0
C      1  0.5116640000000  0.5158130000000  0.5050300000000 1.0
C      1  0.5322630000000  0.5885910000000  0.5081570000000 1.0
C      1  0.4982320000000  0.4894090000000  0.4258080000000 1.0
C      1  0.5212050000000  0.5673690000000  0.4626410000000 1.0
C      1  0.4604540000000  0.4279990000000  0.4903340000000 1.0
C      1  0.5471990000000  0.5061750000000  0.5540050000000 1.0
C      1  0.5040470000000  0.4684880000000  0.5715110000000 1.0
C      1  0.5302840000000  0.4314310000000  0.5449370000000 1.0
C      1  0.5567540000000  0.4546740000000  0.4659960000000 1.0
C      1  0.5130250000000  0.5610710000000  0.5386480000000 1.0
C      1  0.4819250000000  0.5111600000000  0.4396890000000 1.0
C      1  0.5238480000000  0.4969480000000  0.4186320000000 1.0
C      1  0.5752860000000  0.4396750000000  0.4823770000000 1.0
C      1  0.4759270000000  0.5349380000000  0.5603110000000 1.0
C      1  0.4324090000000  0.5469710000000  0.4951490000000 1.0
C      1  0.4259000000000  0.4912240000000  0.5008460000000 1.0
C      1  0.5037360000000  0.4067960000000  0.5116890000000 1.0
C      1  0.4578110000000  0.5450740000000  0.5368200000000 1.0
C      1  0.5197410000000  0.5150020000000  0.5630270000000 1.0
C      1  0.4774290000000  0.5013200000000  0.4676680000000 1.0
C      1  0.4832170000000  0.5129450000000  0.5097790000000 1.0
C      1  0.4803510000000  0.4535350000000  0.5749710000000 1.0
C      1  0.4414780000000  0.4855050000000  0.4406610000000 1.0
C      1  0.4735240000000  0.5068380000000  0.5759320000000 1.0
C      1  0.4477710000000  0.4484280000000  0.5039320000000 1.0
C      1  0.4774180000000  0.4542540000000  0.4550340000000 1.0
C      1  0.4585220000000  0.4772470000000  0.4632540000000 1.0
C      1  0.5386860000000  0.4359080000000  0.4536530000000 1.0
C      1  0.5063600000000  0.4185530000000  0.4865010000000 1.0
C      1  0.4613630000000  0.4880650000000  0.5546680000000 1.0
C      1  0.5039490000000  0.4210440000000  0.5358660000000 1.0
C      1  0.4947210000000  0.4630830000000  0.4348190000000 1.0
C      1  0.4525060000000  0.5103080000000  0.4321530000000 1.0
C      1  0.4932480000000  0.5780240000000  0.5260660000000 1.0
C      1  0.5609890000000  0.5522410000000  0.5235620000000 1.0
C      1  0.5628970000000  0.4633760000000  0.5282500000000 1.0
C      1  0.4505950000000  0.5577630000000  0.4456860000000 1.0
C      1  0.5562150000000  0.4231520000000  0.4968030000000 1.0
C      1  0.5050480000000  0.5972950000000  0.5091790000000 1.0
C      1  0.5050950000000  0.4707900000000  0.5179350000000 1.0
C      1  0.5617870000000  0.5233380000000  0.5321790000000 1.0
C      1  0.5659690000000  0.5257750000000  0.4843890000000 1.0
C      1  0.5650630000000  0.5154270000000  0.4352800000000 1.0
C      1  0.5695290000000  0.5087310000000  0.5078830000000 1.0
C      1  0.4902650000000  0.4479840000000  0.5350790000000 1.0
C      1  0.4368410000000  0.5343950000000  0.4385510000000 1.0
C      1  0.4516680000000  0.4512450000000  0.5322110000000 1.0
C      1  0.5618200000000  0.5531130000000  0.4936230000000 1.0
C      1  0.4960280000000  0.5387410000000  0.4398260000000 1.0
C      1  0.4539740000000  0.5667160000000  0.4929500000000 1.0
C      1  0.4854980000000  0.5041480000000  0.5383510000000 1.0
C      1  0.4937290000000  0.5563320000000  0.4630370000000 1.0
C      1  0.5519680000000  0.4849160000000  0.5097600000000 1.0
C      1  0.5024280000000  0.4968430000000  0.5783100000000 1.0
C      1  0.4354410000000  0.5337190000000  0.5208600000000 1.0
C      1  0.4256070000000  0.5066360000000  0.5241290000000 1.0
C      1  0.5490980000000  0.4375360000000  0.5226310000000 1.0
C      1  0.5394760000000  0.5187970000000  0.4252160000000 1.0
C      1  0.5292130000000  0.4568890000000  0.5614020000000 1.0
C      1  0.4823020000000  0.4307840000000  0.4734940000000 1.0
C      1  0.4115360000000  0.5312740000000  0.4504170000000 1.0
C      1  0.4133720000000  0.5413300000000  0.4755160000000 1.0
C      1  0.4353010000000  0.4943180000000  0.5469390000000 1.0
C      1  0.5761130000000  0.5196010000000  0.4592950000000 1.0
C      1  0.5247670000000  0.5408230000000  0.4356260000000 1.0
C      1  0.4417450000000  0.4719040000000  0.4883190000000 1.0
C      1  0.5381120000000  0.5693740000000  0.4865280000000 1.0
END
