TITL C-951335-1172-454 4.33117700652555e-07 125000 -299.982134369396 0 0 50 (C1) n - 1
REM
REM in /home/bkarasulu/work/CARBON/AIRSS/Generating-Clusters/EDIP-Nigel-Params/with-SteepDescent/Only-C1/SD-CG/HFTN-CG
REM
REM
REM
REM
REM
REM ./C.cell (11c1c37f851c82e70ff6c80c92926a4b)
REM
REM compiler GCC version 9.2.1 20190827 (Red Hat 9.2.1-1)
REM options -cpp -mtune=generic -march=x86-64 -g -O0 -fpre-include=/usr/include/finclude/math-vector-fortran.h
REM seed 411538878 1912932727 -1080126737 -1235527495 -1952658394 -965227117 1208263895 1693249521 928208374 596623249 1955765620 794645722 280940248 -1476782730 -2094213126 422287006 1280935430 656401168 1805390505 1693550770 1881345439 -1791857335 -201355601 -1829765734 16638174 1922211885 1925379294 787871701 -231983552 245070334 1607415702 -926790072 -684307539
REM
CELL 1.54180   50.00000   50.00000   50.00000   90.00000   90.00000   90.00000
LATT -1
SFAC C  
C      1  0.5223710000000  0.4533860000000  0.5134270000000 1.0
C      1  0.4765030000000  0.4390930000000  0.5094470000000 1.0
C      1  0.4360690000000  0.4889440000000  0.5141700000000 1.0
C      1  0.4661910000000  0.5665870000000  0.5218720000000 1.0
C      1  0.4360750000000  0.5386300000000  0.5077130000000 1.0
C      1  0.4470360000000  0.5352450000000  0.4630830000000 1.0
C      1  0.5380290000000  0.4931430000000  0.5332450000000 1.0
C      1  0.4764880000000  0.5645340000000  0.4844590000000 1.0
C      1  0.4942770000000  0.5038380000000  0.5601820000000 1.0
C      1  0.4467090000000  0.5525500000000  0.4851590000000 1.0
C      1  0.5415140000000  0.5277160000000  0.4603590000000 1.0
C      1  0.5010430000000  0.5451860000000  0.5395010000000 1.0
C      1  0.5080180000000  0.5130010000000  0.4358350000000 1.0
C      1  0.5070040000000  0.4587810000000  0.5407800000000 1.0
C      1  0.4360820000000  0.5171650000000  0.5266830000000 1.0
C      1  0.4799990000000  0.5049700000000  0.4437860000000 1.0
C      1  0.4944590000000  0.5403100000000  0.4746170000000 1.0
C      1  0.5051140000000  0.5011750000000  0.5044710000000 1.0
C      1  0.4775250000000  0.4576050000000  0.5331810000000 1.0
C      1  0.5101770000000  0.5282430000000  0.5605270000000 1.0
C      1  0.4733260000000  0.5447180000000  0.5386930000000 1.0
C      1  0.4616520000000  0.4751180000000  0.4786330000000 1.0
C      1  0.5407100000000  0.4574710000000  0.4576110000000 1.0
C      1  0.5240710000000  0.4803620000000  0.5001150000000 1.0
C      1  0.5414450000000  0.5276880000000  0.4900390000000 1.0
C      1  0.5382540000000  0.5277660000000  0.5640050000000 1.0
C      1  0.5139210000000  0.5403650000000  0.4506850000000 1.0
C      1  0.5479990000000  0.5214900000000  0.5385820000000 1.0
C      1  0.4744280000000  0.4769040000000  0.4501890000000 1.0
C      1  0.5152140000000  0.4848140000000  0.5522970000000 1.0
C      1  0.5695520000000  0.4526910000000  0.5256300000000 1.0
C      1  0.5505540000000  0.4434170000000  0.5075020000000 1.0
C      1  0.5036970000000  0.4341050000000  0.5002050000000 1.0
C      1  0.4719940000000  0.5220210000000  0.4658960000000 1.0
C      1  0.5136160000000  0.5651860000000  0.5233300000000 1.0
C      1  0.4656750000000  0.4857650000000  0.5250870000000 1.0
C      1  0.4777040000000  0.4934600000000  0.4992070000000 1.0
C      1  0.5324690000000  0.5003400000000  0.4490110000000 1.0
C      1  0.5601020000000  0.4752800000000  0.5367600000000 1.0
C      1  0.5113790000000  0.5298850000000  0.4993230000000 1.0
C      1  0.5072250000000  0.4275610000000  0.4732900000000 1.0
C      1  0.4349480000000  0.4865800000000  0.4851230000000 1.0
C      1  0.4940570000000  0.4589500000000  0.4414320000000 1.0
C      1  0.4612480000000  0.5184110000000  0.5452430000000 1.0
C      1  0.5149700000000  0.4448550000000  0.4530720000000 1.0
C      1  0.5552850000000  0.4478280000000  0.4799030000000 1.0
C      1  0.4904720000000  0.5780380000000  0.5101500000000 1.0
C      1  0.5437990000000  0.5420160000000  0.5172610000000 1.0
C      1  0.4606850000000  0.4479150000000  0.4881060000000 1.0
C      1  0.5488630000000  0.4789000000000  0.4411260000000 1.0
END
