TITL C-950532-2784-651 -1.64004765253513e-06 125000 -365.579215594174 0 0 61 (C1) n - 1
REM
REM in /home/bkarasulu/work/CARBON/AIRSS/Generating-Clusters/EDIP-Nigel-Params/with-SteepDescent/Only-C1/SD-CG/HFTN-CG
REM
REM
REM
REM
REM
REM ./C.cell (11c1c37f851c82e70ff6c80c92926a4b)
REM
REM compiler GCC version 9.2.1 20190827 (Red Hat 9.2.1-1)
REM options -cpp -mtune=generic -march=x86-64 -g -O0 -fpre-include=/usr/include/finclude/math-vector-fortran.h
REM seed -1940558950 406975220 1029757690 -301202918 1389280339 594582576 164627078 -1596695594 -2083411597 -1632005098 1157939730 -173844241 -106006397 470537913 1869825689 -851752465 806244033 -1668656532 1882158363 -1064373020 -1356729151 485924494 598967518 1179744278 -1735665750 1425985172 767860609 -238876431 1960686264 2138296634 1274837096 -1141668288 1188156730
REM
CELL 1.54180   50.00000   50.00000   50.00000   90.00000   90.00000   90.00000
LATT -1
SFAC C  
C      1  0.5158620000000  0.5230860000000  0.4547280000000 1.0
C      1  0.4479220000000  0.4799480000000  0.5305620000000 1.0
C      1  0.5615770000000  0.5114590000000  0.5272760000000 1.0
C      1  0.5496750000000  0.5400790000000  0.5259860000000 1.0
C      1  0.5273500000000  0.5027460000000  0.4233710000000 1.0
C      1  0.5043430000000  0.4433480000000  0.5334220000000 1.0
C      1  0.5432860000000  0.5178690000000  0.4426890000000 1.0
C      1  0.4436910000000  0.5682850000000  0.5398650000000 1.0
C      1  0.5349130000000  0.4459770000000  0.4932930000000 1.0
C      1  0.4457250000000  0.5445750000000  0.4715440000000 1.0
C      1  0.5482220000000  0.4587080000000  0.5339670000000 1.0
C      1  0.4458510000000  0.4779130000000  0.4794430000000 1.0
C      1  0.4771710000000  0.5156030000000  0.5313390000000 1.0
C      1  0.4447470000000  0.4935940000000  0.5040100000000 1.0
C      1  0.4415720000000  0.5234750000000  0.5600120000000 1.0
C      1  0.4547630000000  0.5484340000000  0.5566340000000 1.0
C      1  0.5256750000000  0.4669990000000  0.4554410000000 1.0
C      1  0.4585190000000  0.5016860000000  0.5498330000000 1.0
C      1  0.5649780000000  0.5126530000000  0.4882480000000 1.0
C      1  0.4981960000000  0.4980450000000  0.4234630000000 1.0
C      1  0.5550260000000  0.4740530000000  0.4605270000000 1.0
C      1  0.4609070000000  0.4843590000000  0.4548640000000 1.0
C      1  0.5569390000000  0.4910400000000  0.5048020000000 1.0
C      1  0.5190190000000  0.5024070000000  0.5358840000000 1.0
C      1  0.4558820000000  0.5674410000000  0.5139570000000 1.0
C      1  0.4912910000000  0.5588310000000  0.4629540000000 1.0
C      1  0.4758410000000  0.5089400000000  0.4441640000000 1.0
C      1  0.4800010000000  0.5432110000000  0.5411910000000 1.0
C      1  0.5184110000000  0.4531020000000  0.4282560000000 1.0
C      1  0.4756650000000  0.4888370000000  0.5705530000000 1.0
C      1  0.5184810000000  0.5741780000000  0.5374750000000 1.0
C      1  0.5438670000000  0.4830920000000  0.5479840000000 1.0
C      1  0.4728630000000  0.4578020000000  0.4971040000000 1.0
C      1  0.5015820000000  0.4891620000000  0.5173170000000 1.0
C      1  0.5621910000000  0.5031430000000  0.4605460000000 1.0
C      1  0.4628700000000  0.5175200000000  0.5053260000000 1.0
C      1  0.5272720000000  0.4289290000000  0.4720900000000 1.0
C      1  0.5033640000000  0.4877440000000  0.4661040000000 1.0
C      1  0.5103290000000  0.4301680000000  0.4485530000000 1.0
C      1  0.5459830000000  0.5680010000000  0.5331080000000 1.0
C      1  0.4724980000000  0.5355580000000  0.4639110000000 1.0
C      1  0.5031570000000  0.5606570000000  0.4903110000000 1.0
C      1  0.4762960000000  0.4605240000000  0.5653570000000 1.0
C      1  0.4678840000000  0.4564590000000  0.5278570000000 1.0
C      1  0.4823890000000  0.4364950000000  0.4570110000000 1.0
C      1  0.4470160000000  0.5428200000000  0.4995670000000 1.0
C      1  0.5552350000000  0.4661990000000  0.4886260000000 1.0
C      1  0.4878380000000  0.5703040000000  0.5149030000000 1.0
C      1  0.5215430000000  0.5308160000000  0.5258290000000 1.0
C      1  0.4863080000000  0.5173090000000  0.4856330000000 1.0
C      1  0.5305460000000  0.4411340000000  0.5215040000000 1.0
C      1  0.5102080000000  0.5501350000000  0.4447140000000 1.0
C      1  0.5082660000000  0.5489040000000  0.5465660000000 1.0
C      1  0.4753310000000  0.4616700000000  0.4435000000000 1.0
C      1  0.4937660000000  0.4686120000000  0.4216270000000 1.0
C      1  0.4751190000000  0.4323800000000  0.4838730000000 1.0
C      1  0.5031740000000  0.4979990000000  0.5701570000000 1.0
C      1  0.5097610000000  0.5331020000000  0.4971280000000 1.0
C      1  0.5217950000000  0.4751530000000  0.5697570000000 1.0
C      1  0.5035010000000  0.4520370000000  0.5610320000000 1.0
C      1  0.4965450000000  0.4752890000000  0.4932540000000 1.0
END
