TITL C-951343-2256-230 -1.27974282159328e-06 125000 -1039.68817531551 0 0 166 (C1) n - 1
REM
REM in /home/bkarasulu/work/CARBON/AIRSS/Generating-Clusters/EDIP-Nigel-Params/with-SteepDescent/Only-C1/SD-CG/HFTN-CG
REM
REM
REM
REM
REM
REM ./C.cell (11c1c37f851c82e70ff6c80c92926a4b)
REM
REM compiler GCC version 9.2.1 20190827 (Red Hat 9.2.1-1)
REM options -cpp -mtune=generic -march=x86-64 -g -O0 -fpre-include=/usr/include/finclude/math-vector-fortran.h
REM seed 622066181 -348166662 1029863003 -853239027 480467955 -1022371569 294865151 1459429307 1885437707 -1740466220 1326800358 586392941 -208797733 761687036 1725794531 -241328550 1643832765 -1657161398 1953456004 672151203 -1233532202 -581027955 1731974397 45883331 660847044 -504048650 -634670530 -1141853640 1174560002 58809749 1615192054 -1509603037 76292418
REM
CELL 1.54180   50.00000   50.00000   50.00000   90.00000   90.00000   90.00000
LATT -1
SFAC C  
C      1  0.3922610000000  0.4872440000000  0.5070830000000 1.0
C      1  0.5679030000000  0.4985910000000  0.4213880000000 1.0
C      1  0.4788940000000  0.4830770000000  0.6068670000000 1.0
C      1  0.4912230000000  0.4903930000000  0.5074270000000 1.0
C      1  0.4400130000000  0.4780490000000  0.5642910000000 1.0
C      1  0.5628250000000  0.5465990000000  0.4957500000000 1.0
C      1  0.4002390000000  0.5005850000000  0.5481790000000 1.0
C      1  0.4596790000000  0.4677250000000  0.4094730000000 1.0
C      1  0.6090810000000  0.5005450000000  0.4996110000000 1.0
C      1  0.5267620000000  0.5267490000000  0.5183460000000 1.0
C      1  0.4372250000000  0.4999150000000  0.5864720000000 1.0
C      1  0.4498450000000  0.5443290000000  0.5166510000000 1.0
C      1  0.4855000000000  0.5754440000000  0.4251020000000 1.0
C      1  0.5940200000000  0.4736430000000  0.5027150000000 1.0
C      1  0.4236410000000  0.4532100000000  0.4999450000000 1.0
C      1  0.5036910000000  0.4690230000000  0.5637420000000 1.0
C      1  0.4829140000000  0.4130700000000  0.5684300000000 1.0
C      1  0.4117400000000  0.4737340000000  0.5485560000000 1.0
C      1  0.5357580000000  0.5679520000000  0.5564260000000 1.0
C      1  0.5168120000000  0.4969810000000  0.5222120000000 1.0
C      1  0.5747900000000  0.5428600000000  0.4363090000000 1.0
C      1  0.4731200000000  0.4893010000000  0.4601520000000 1.0
C      1  0.4994120000000  0.5273500000000  0.4409770000000 1.0
C      1  0.5887110000000  0.4636630000000  0.4754760000000 1.0
C      1  0.3906110000000  0.4649490000000  0.4627920000000 1.0
C      1  0.4932930000000  0.5526850000000  0.5383560000000 1.0
C      1  0.5065110000000  0.4863550000000  0.3940580000000 1.0
C      1  0.4736430000000  0.4433670000000  0.5305630000000 1.0
C      1  0.5271920000000  0.4678390000000  0.3977190000000 1.0
C      1  0.4156840000000  0.5704630000000  0.4895490000000 1.0
C      1  0.5160320000000  0.4338190000000  0.5997280000000 1.0
C      1  0.5891330000000  0.4269160000000  0.5149950000000 1.0
C      1  0.4038300000000  0.5445690000000  0.4952770000000 1.0
C      1  0.5840030000000  0.5743490000000  0.5260410000000 1.0
C      1  0.5068310000000  0.4984220000000  0.5523500000000 1.0
C      1  0.4310900000000  0.5713420000000  0.4646680000000 1.0
C      1  0.5239900000000  0.5066550000000  0.4397120000000 1.0
C      1  0.4498220000000  0.4047790000000  0.5211680000000 1.0
C      1  0.4765180000000  0.5078830000000  0.4322940000000 1.0
C      1  0.4809050000000  0.4632700000000  0.5860860000000 1.0
C      1  0.4031230000000  0.5491160000000  0.5392210000000 1.0
C      1  0.4355540000000  0.4563940000000  0.4499730000000 1.0
C      1  0.5290050000000  0.4627300000000  0.5788000000000 1.0
C      1  0.4216070000000  0.5692010000000  0.5272580000000 1.0
C      1  0.5610080000000  0.4226060000000  0.5204400000000 1.0
C      1  0.5164380000000  0.4200460000000  0.4190270000000 1.0
C      1  0.4948130000000  0.5324740000000  0.3974550000000 1.0
C      1  0.5124450000000  0.4315280000000  0.4730280000000 1.0
C      1  0.4498090000000  0.5970110000000  0.4987220000000 1.0
C      1  0.5593950000000  0.5693680000000  0.5714170000000 1.0
C      1  0.4300670000000  0.5059430000000  0.4249170000000 1.0
C      1  0.5187180000000  0.4411310000000  0.5213850000000 1.0
C      1  0.5499270000000  0.5424940000000  0.4193750000000 1.0
C      1  0.5755950000000  0.5097910000000  0.5305400000000 1.0
C      1  0.3849290000000  0.4837070000000  0.4807500000000 1.0
C      1  0.4495440000000  0.5491310000000  0.4268120000000 1.0
C      1  0.4942770000000  0.5926330000000  0.4713990000000 1.0
C      1  0.4775210000000  0.5107560000000  0.5527240000000 1.0
C      1  0.4608570000000  0.4318390000000  0.5567460000000 1.0
C      1  0.5678240000000  0.4310550000000  0.5647840000000 1.0
C      1  0.5229470000000  0.5075260000000  0.6071980000000 1.0
C      1  0.4999390000000  0.4495100000000  0.5404460000000 1.0
C      1  0.4799890000000  0.4054280000000  0.5245070000000 1.0
C      1  0.5269310000000  0.4038980000000  0.5575550000000 1.0
C      1  0.5338150000000  0.4853110000000  0.5959960000000 1.0
C      1  0.4730200000000  0.5545310000000  0.4425400000000 1.0
C      1  0.5210270000000  0.5919970000000  0.4864480000000 1.0
C      1  0.5296750000000  0.5910790000000  0.5405400000000 1.0
C      1  0.4980450000000  0.3983650000000  0.5025040000000 1.0
C      1  0.5326890000000  0.4532390000000  0.4617930000000 1.0
C      1  0.5432020000000  0.4764150000000  0.5101260000000 1.0
C      1  0.5737640000000  0.5465410000000  0.5642590000000 1.0
C      1  0.5108320000000  0.4225760000000  0.5739200000000 1.0
C      1  0.5033770000000  0.5578680000000  0.4092160000000 1.0
C      1  0.5636770000000  0.5755140000000  0.5051580000000 1.0
C      1  0.4911810000000  0.5001120000000  0.4801920000000 1.0
C      1  0.4601880000000  0.5998480000000  0.5248690000000 1.0
C      1  0.5742320000000  0.4740100000000  0.5568500000000 1.0
C      1  0.4214660000000  0.5226850000000  0.4495990000000 1.0
C      1  0.5639570000000  0.4970550000000  0.4651860000000 1.0
C      1  0.4463020000000  0.5936420000000  0.4549550000000 1.0
C      1  0.4455660000000  0.5805100000000  0.5413240000000 1.0
C      1  0.5548830000000  0.4342620000000  0.4521050000000 1.0
C      1  0.5585670000000  0.5213230000000  0.5690360000000 1.0
C      1  0.4985370000000  0.4436960000000  0.4197830000000 1.0
C      1  0.5854780000000  0.5151670000000  0.4379430000000 1.0
C      1  0.5513180000000  0.4552830000000  0.5576060000000 1.0
C      1  0.5190620000000  0.4199150000000  0.5001600000000 1.0
C      1  0.4678190000000  0.4223300000000  0.4657590000000 1.0
C      1  0.5021140000000  0.5926660000000  0.4428680000000 1.0
C      1  0.4473190000000  0.4911600000000  0.4746540000000 1.0
C      1  0.4735350000000  0.5318920000000  0.5326710000000 1.0
C      1  0.4441860000000  0.5502940000000  0.5813590000000 1.0
C      1  0.5018180000000  0.5958140000000  0.5490070000000 1.0
C      1  0.4140890000000  0.5250140000000  0.5510080000000 1.0
C      1  0.4528930000000  0.4336230000000  0.4432160000000 1.0
C      1  0.5348350000000  0.5840130000000  0.5119480000000 1.0
C      1  0.4724850000000  0.5249660000000  0.5803130000000 1.0
C      1  0.4575830000000  0.5712970000000  0.5661710000000 1.0
C      1  0.4384600000000  0.4284940000000  0.5083010000000 1.0
C      1  0.4655120000000  0.5620610000000  0.4971770000000 1.0
C      1  0.4666830000000  0.4748510000000  0.5201150000000 1.0
C      1  0.4858020000000  0.4626160000000  0.4513870000000 1.0
C      1  0.6018400000000  0.4505560000000  0.5228310000000 1.0
C      1  0.4206400000000  0.5006460000000  0.5149050000000 1.0
C      1  0.4840220000000  0.4850120000000  0.4135780000000 1.0
C      1  0.5769560000000  0.4996500000000  0.5681650000000 1.0
C      1  0.4875830000000  0.5685500000000  0.5651730000000 1.0
C      1  0.5780790000000  0.4544880000000  0.4506370000000 1.0
C      1  0.4541020000000  0.4540000000000  0.5755790000000 1.0
C      1  0.5399260000000  0.5779260000000  0.4665520000000 1.0
C      1  0.5214800000000  0.5426320000000  0.5444890000000 1.0
C      1  0.5560940000000  0.5286250000000  0.5177700000000 1.0
C      1  0.4684550000000  0.4406490000000  0.4179720000000 1.0
C      1  0.5166350000000  0.4711940000000  0.4398200000000 1.0
C      1  0.4948240000000  0.5282710000000  0.4736280000000 1.0
C      1  0.4942980000000  0.5447110000000  0.5863520000000 1.0
C      1  0.4278320000000  0.5271780000000  0.5003410000000 1.0
C      1  0.5409730000000  0.5163590000000  0.4625420000000 1.0
C      1  0.5444860000000  0.4284620000000  0.4231770000000 1.0
C      1  0.5936490000000  0.5129600000000  0.4755860000000 1.0
C      1  0.4676660000000  0.5265640000000  0.3895940000000 1.0
C      1  0.5891210000000  0.5496770000000  0.5390720000000 1.0
C      1  0.4286930000000  0.5263570000000  0.5753040000000 1.0
C      1  0.5394370000000  0.5453270000000  0.4757840000000 1.0
C      1  0.5171960000000  0.5132910000000  0.3942520000000 1.0
C      1  0.4408590000000  0.5203300000000  0.4733570000000 1.0
C      1  0.4674240000000  0.5423860000000  0.4727340000000 1.0
C      1  0.5469770000000  0.4096300000000  0.4975100000000 1.0
C      1  0.4654170000000  0.6000260000000  0.4748640000000 1.0
C      1  0.4893970000000  0.5964370000000  0.5226770000000 1.0
C      1  0.4625170000000  0.5058070000000  0.6019860000000 1.0
C      1  0.5952800000000  0.4543080000000  0.5513720000000 1.0
C      1  0.5693300000000  0.5841550000000  0.4696110000000 1.0
C      1  0.5449140000000  0.4500510000000  0.5267220000000 1.0
C      1  0.4859050000000  0.4432200000000  0.4731610000000 1.0
C      1  0.5699550000000  0.4863540000000  0.5146650000000 1.0
C      1  0.4259320000000  0.5514210000000  0.4436340000000 1.0
C      1  0.5269390000000  0.5582920000000  0.4251330000000 1.0
C      1  0.4544670000000  0.5224640000000  0.4160010000000 1.0
C      1  0.4933080000000  0.5679680000000  0.5108010000000 1.0
C      1  0.4143110000000  0.4520820000000  0.4701240000000 1.0
C      1  0.5146210000000  0.5426660000000  0.4934580000000 1.0
C      1  0.4592770000000  0.4892480000000  0.5448630000000 1.0
C      1  0.4919370000000  0.4464270000000  0.6074250000000 1.0
C      1  0.5553090000000  0.4095800000000  0.5489210000000 1.0
C      1  0.3860040000000  0.5441780000000  0.5173200000000 1.0
C      1  0.4380000000000  0.4166400000000  0.5451940000000 1.0
C      1  0.5646850000000  0.4714520000000  0.4295080000000 1.0
C      1  0.5476090000000  0.4557640000000  0.4123570000000 1.0
C      1  0.5294830000000  0.5823630000000  0.4396410000000 1.0
C      1  0.5459030000000  0.4736070000000  0.4799060000000 1.0
C      1  0.5076150000000  0.4037180000000  0.4592670000000 1.0
C      1  0.4020530000000  0.4616630000000  0.5208470000000 1.0
C      1  0.5260200000000  0.5211980000000  0.5663200000000 1.0
C      1  0.5415180000000  0.5141210000000  0.4147180000000 1.0
C      1  0.6032110000000  0.5184250000000  0.5229490000000 1.0
C      1  0.4360740000000  0.4758150000000  0.4266910000000 1.0
C      1  0.5891050000000  0.5417500000000  0.4821600000000 1.0
C      1  0.5850390000000  0.5607050000000  0.4591080000000 1.0
C      1  0.5577820000000  0.4132320000000  0.4719660000000 1.0
C      1  0.4412710000000  0.4788880000000  0.5020480000000 1.0
C      1  0.4911020000000  0.3928690000000  0.5487710000000 1.0
C      1  0.5169220000000  0.5341660000000  0.6009930000000 1.0
C      1  0.5085300000000  0.3969440000000  0.4322520000000 1.0
C      1  0.4876110000000  0.3915180000000  0.4763820000000 1.0
END
