TITL C-950526-5686-239 -1.48941150339551e-06 125000 -1196.15544625088 0 0 188 (C1) n - 1
REM
REM in /home/bkarasulu/work/CARBON/AIRSS/Generating-Clusters/EDIP-Nigel-Params/with-SteepDescent/Only-C1/SD-CG/HFTN-CG
REM
REM
REM
REM
REM
REM ./C.cell (11c1c37f851c82e70ff6c80c92926a4b)
REM
REM compiler GCC version 9.2.1 20190827 (Red Hat 9.2.1-1)
REM options -cpp -mtune=generic -march=x86-64 -g -O0 -fpre-include=/usr/include/finclude/math-vector-fortran.h
REM seed -16245984 -896072987 -324740717 -1636293959 -1224798050 1094729171 2111267929 383268741 951944157 -2115474171 -1823445124 -387715445 1759374393 1398125327 577396036 474817046 2097527438 1350931166 886109759 -1114701300 -1359427671 -1702697218 -383692634 -282405048 1083813687 -695011737 1136076867 635768658 141388850 442454502 1706265984 729313830 -30779364
REM
CELL 1.54180   50.00000   50.00000   50.00000   90.00000   90.00000   90.00000
LATT -1
SFAC C  
C      1  0.6118220000000  0.4940140000000  0.5253470000000 1.0
C      1  0.4639450000000  0.4048260000000  0.5614600000000 1.0
C      1  0.5171350000000  0.4902710000000  0.3973470000000 1.0
C      1  0.3907200000000  0.5054400000000  0.4856740000000 1.0
C      1  0.4903610000000  0.4930840000000  0.5228520000000 1.0
C      1  0.4813780000000  0.4339340000000  0.4163010000000 1.0
C      1  0.4146350000000  0.5558640000000  0.4622740000000 1.0
C      1  0.5471340000000  0.5512310000000  0.4049840000000 1.0
C      1  0.4676540000000  0.5458620000000  0.4542370000000 1.0
C      1  0.4708650000000  0.5083540000000  0.5044110000000 1.0
C      1  0.4246620000000  0.5239820000000  0.5194120000000 1.0
C      1  0.5089930000000  0.4393520000000  0.4122290000000 1.0
C      1  0.5763190000000  0.4631900000000  0.4246410000000 1.0
C      1  0.5001880000000  0.5907600000000  0.5525780000000 1.0
C      1  0.4648870000000  0.5434770000000  0.5405090000000 1.0
C      1  0.4685850000000  0.4779350000000  0.3942140000000 1.0
C      1  0.4296950000000  0.5797240000000  0.5084490000000 1.0
C      1  0.6061500000000  0.5261140000000  0.4841170000000 1.0
C      1  0.4822590000000  0.5261910000000  0.5860310000000 1.0
C      1  0.5145710000000  0.5404770000000  0.4381420000000 1.0
C      1  0.4867260000000  0.4401680000000  0.4872860000000 1.0
C      1  0.4047560000000  0.5116710000000  0.5767800000000 1.0
C      1  0.4822700000000  0.4652110000000  0.4768220000000 1.0
C      1  0.5440090000000  0.5886740000000  0.5454870000000 1.0
C      1  0.4388150000000  0.4162070000000  0.5083050000000 1.0
C      1  0.5231950000000  0.5154130000000  0.3836740000000 1.0
C      1  0.5417470000000  0.5042720000000  0.4379920000000 1.0
C      1  0.4173300000000  0.5290900000000  0.4214270000000 1.0
C      1  0.5333600000000  0.5378400000000  0.4953230000000 1.0
C      1  0.4468380000000  0.4775980000000  0.5803660000000 1.0
C      1  0.4333720000000  0.4545780000000  0.4190580000000 1.0
C      1  0.5296270000000  0.5415170000000  0.5937910000000 1.0
C      1  0.4657750000000  0.4740760000000  0.6003410000000 1.0
C      1  0.4617290000000  0.3991070000000  0.5076790000000 1.0
C      1  0.5124750000000  0.4274390000000  0.6000170000000 1.0
C      1  0.5530020000000  0.5331040000000  0.4740640000000 1.0
C      1  0.5925520000000  0.5086880000000  0.4614800000000 1.0
C      1  0.5659300000000  0.5060720000000  0.4775220000000 1.0
C      1  0.5166590000000  0.3950370000000  0.4617540000000 1.0
C      1  0.5980600000000  0.5776530000000  0.4943060000000 1.0
C      1  0.4793380000000  0.4100690000000  0.4334330000000 1.0
C      1  0.4608670000000  0.4543770000000  0.4096150000000 1.0
C      1  0.5510100000000  0.4677680000000  0.4142820000000 1.0
C      1  0.4701670000000  0.5187040000000  0.5575180000000 1.0
C      1  0.5634100000000  0.5733400000000  0.4485690000000 1.0
C      1  0.5310870000000  0.4464000000000  0.5372300000000 1.0
C      1  0.5631710000000  0.5038510000000  0.4159670000000 1.0
C      1  0.5236390000000  0.5838770000000  0.5231860000000 1.0
C      1  0.5952460000000  0.5161960000000  0.5138470000000 1.0
C      1  0.4539120000000  0.5844500000000  0.5535380000000 1.0
C      1  0.5048470000000  0.5387870000000  0.4846700000000 1.0
C      1  0.4131110000000  0.4511360000000  0.5316270000000 1.0
C      1  0.5046340000000  0.4370480000000  0.5482470000000 1.0
C      1  0.4619710000000  0.5349870000000  0.6045030000000 1.0
C      1  0.4362840000000  0.4194180000000  0.4586650000000 1.0
C      1  0.5506100000000  0.5236060000000  0.3937590000000 1.0
C      1  0.4022960000000  0.4529930000000  0.4553330000000 1.0
C      1  0.5271270000000  0.4547510000000  0.5086370000000 1.0
C      1  0.5532820000000  0.4491510000000  0.5831750000000 1.0
C      1  0.4286950000000  0.5099990000000  0.4795200000000 1.0
C      1  0.5895860000000  0.4349250000000  0.4627510000000 1.0
C      1  0.4462840000000  0.4913500000000  0.4982590000000 1.0
C      1  0.3901580000000  0.4997970000000  0.5333520000000 1.0
C      1  0.6229170000000  0.4761870000000  0.5074280000000 1.0
C      1  0.4617870000000  0.5562450000000  0.4906280000000 1.0
C      1  0.5409800000000  0.5320580000000  0.4464240000000 1.0
C      1  0.5018620000000  0.5361790000000  0.3920820000000 1.0
C      1  0.4718270000000  0.4741080000000  0.5367650000000 1.0
C      1  0.5167800000000  0.5543240000000  0.4118620000000 1.0
C      1  0.3941430000000  0.5438010000000  0.5332720000000 1.0
C      1  0.5387430000000  0.4668130000000  0.6009070000000 1.0
C      1  0.4720340000000  0.3918850000000  0.4809200000000 1.0
C      1  0.5029760000000  0.3895900000000  0.5373540000000 1.0
C      1  0.5126800000000  0.4337750000000  0.4933940000000 1.0
C      1  0.4303940000000  0.5047400000000  0.4114820000000 1.0
C      1  0.5472200000000  0.4885590000000  0.4635670000000 1.0
C      1  0.4280150000000  0.4926570000000  0.5281400000000 1.0
C      1  0.5046580000000  0.4860460000000  0.4758640000000 1.0
C      1  0.5712820000000  0.5896090000000  0.5025630000000 1.0
C      1  0.5518310000000  0.5467880000000  0.5744870000000 1.0
C      1  0.4219820000000  0.4369960000000  0.4398510000000 1.0
C      1  0.4909600000000  0.6028560000000  0.4688740000000 1.0
C      1  0.3893080000000  0.4870970000000  0.5078170000000 1.0
C      1  0.5395460000000  0.5141110000000  0.5160690000000 1.0
C      1  0.5026360000000  0.5029320000000  0.5931240000000 1.0
C      1  0.4061940000000  0.4457120000000  0.4836850000000 1.0
C      1  0.4182080000000  0.5363270000000  0.5749300000000 1.0
C      1  0.5541390000000  0.4609400000000  0.4682460000000 1.0
C      1  0.4993580000000  0.5541220000000  0.4585490000000 1.0
C      1  0.5028080000000  0.5805560000000  0.4227040000000 1.0
C      1  0.4244060000000  0.4231450000000  0.4845040000000 1.0
C      1  0.4116740000000  0.4639820000000  0.5571600000000 1.0
C      1  0.3961350000000  0.5450420000000  0.5050930000000 1.0
C      1  0.4737880000000  0.6055480000000  0.5121360000000 1.0
C      1  0.5404320000000  0.4226050000000  0.5898110000000 1.0
C      1  0.4983890000000  0.3823090000000  0.4789040000000 1.0
C      1  0.5080430000000  0.4758720000000  0.4427500000000 1.0
C      1  0.5116520000000  0.4569180000000  0.6027380000000 1.0
C      1  0.5111800000000  0.5393140000000  0.5474580000000 1.0
C      1  0.5836650000000  0.5291510000000  0.5629040000000 1.0
C      1  0.4948290000000  0.4780980000000  0.3860810000000 1.0
C      1  0.5151970000000  0.4979080000000  0.4259310000000 1.0
C      1  0.4536520000000  0.5860540000000  0.4434150000000 1.0
C      1  0.4903550000000  0.5568050000000  0.5023400000000 1.0
C      1  0.4921160000000  0.4783900000000  0.6064160000000 1.0
C      1  0.5091830000000  0.4092980000000  0.5586670000000 1.0
C      1  0.5670240000000  0.5787250000000  0.5304560000000 1.0
C      1  0.4619650000000  0.4063860000000  0.4569230000000 1.0
C      1  0.5428630000000  0.5338310000000  0.5461350000000 1.0
C      1  0.4520760000000  0.4327150000000  0.5553250000000 1.0
C      1  0.5553030000000  0.4111340000000  0.4902770000000 1.0
C      1  0.4640570000000  0.5752780000000  0.5786390000000 1.0
C      1  0.5396730000000  0.4926890000000  0.5617040000000 1.0
C      1  0.5891410000000  0.4407840000000  0.5115730000000 1.0
C      1  0.4015820000000  0.4800520000000  0.4436620000000 1.0
C      1  0.4319890000000  0.5730120000000  0.5378140000000 1.0
C      1  0.5046920000000  0.3986270000000  0.4368340000000 1.0
C      1  0.4526790000000  0.4953350000000  0.4535770000000 1.0
C      1  0.5257260000000  0.6157900000000  0.5026280000000 1.0
C      1  0.5804210000000  0.4345630000000  0.5392630000000 1.0
C      1  0.4333670000000  0.4525820000000  0.5744790000000 1.0
C      1  0.4977450000000  0.5112350000000  0.5457360000000 1.0
C      1  0.3916730000000  0.5046450000000  0.4568120000000 1.0
C      1  0.4380350000000  0.5390580000000  0.4720670000000 1.0
C      1  0.6019270000000  0.5543270000000  0.4763650000000 1.0
C      1  0.5392240000000  0.4075200000000  0.5651640000000 1.0
C      1  0.4089270000000  0.5665740000000  0.4912460000000 1.0
C      1  0.4034650000000  0.4622620000000  0.5071690000000 1.0
C      1  0.4564040000000  0.5045400000000  0.3976760000000 1.0
C      1  0.5892510000000  0.5367500000000  0.5351690000000 1.0
C      1  0.5621450000000  0.5473590000000  0.4308460000000 1.0
C      1  0.5933160000000  0.5029180000000  0.5704640000000 1.0
C      1  0.5224690000000  0.3885320000000  0.5172390000000 1.0
C      1  0.5041930000000  0.5471760000000  0.5776140000000 1.0
C      1  0.5471150000000  0.5747480000000  0.5697300000000 1.0
C      1  0.4631950000000  0.5948000000000  0.4692980000000 1.0
C      1  0.5484680000000  0.6078590000000  0.4856750000000 1.0
C      1  0.5471000000000  0.4023510000000  0.5170500000000 1.0
C      1  0.5717420000000  0.5579840000000  0.4730930000000 1.0
C      1  0.5381830000000  0.5686880000000  0.4991170000000 1.0
C      1  0.5167280000000  0.4852760000000  0.5061630000000 1.0
C      1  0.4548120000000  0.4745830000000  0.4742670000000 1.0
C      1  0.4271990000000  0.5731330000000  0.4403940000000 1.0
C      1  0.5550150000000  0.4545080000000  0.4977670000000 1.0
C      1  0.4382790000000  0.5413530000000  0.5933930000000 1.0
C      1  0.5675950000000  0.5019620000000  0.5082570000000 1.0
C      1  0.4926700000000  0.5749710000000  0.5769630000000 1.0
C      1  0.4729050000000  0.5761100000000  0.4226900000000 1.0
C      1  0.4737380000000  0.3925250000000  0.5343990000000 1.0
C      1  0.4520960000000  0.4910420000000  0.5521480000000 1.0
C      1  0.5109930000000  0.4945310000000  0.5652500000000 1.0
C      1  0.4602130000000  0.5524640000000  0.4114660000000 1.0
C      1  0.5793660000000  0.4883380000000  0.5919990000000 1.0
C      1  0.5842080000000  0.5212760000000  0.4329730000000 1.0
C      1  0.4723710000000  0.5159910000000  0.4555430000000 1.0
C      1  0.4541600000000  0.5340640000000  0.5144420000000 1.0
C      1  0.4887530000000  0.5124260000000  0.4795760000000 1.0
C      1  0.4144300000000  0.5529840000000  0.5507520000000 1.0
C      1  0.4503040000000  0.5977790000000  0.4960410000000 1.0
C      1  0.4772300000000  0.4477830000000  0.5463670000000 1.0
C      1  0.4984450000000  0.6081540000000  0.4961320000000 1.0
C      1  0.5269000000000  0.4551360000000  0.4294490000000 1.0
C      1  0.4178430000000  0.4797300000000  0.4192400000000 1.0
C      1  0.5925150000000  0.4556880000000  0.5578160000000 1.0
C      1  0.5288090000000  0.5142390000000  0.6047900000000 1.0
C      1  0.5394950000000  0.5865890000000  0.4646110000000 1.0
C      1  0.4909980000000  0.5581750000000  0.5326490000000 1.0
C      1  0.5641310000000  0.5491690000000  0.5282740000000 1.0
C      1  0.5511230000000  0.4675910000000  0.5487580000000 1.0
C      1  0.5816490000000  0.4579800000000  0.5853180000000 1.0
C      1  0.5682440000000  0.4727960000000  0.5200480000000 1.0
C      1  0.5391020000000  0.4404840000000  0.4530830000000 1.0
C      1  0.4726870000000  0.5299290000000  0.3977670000000 1.0
C      1  0.5991760000000  0.4836610000000  0.5494290000000 1.0
C      1  0.5828760000000  0.4232220000000  0.4879540000000 1.0
C      1  0.4880900000000  0.4063660000000  0.5802760000000 1.0
C      1  0.5512460000000  0.4217590000000  0.5401860000000 1.0
C      1  0.5480530000000  0.4937520000000  0.5911600000000 1.0
C      1  0.4327080000000  0.4301980000000  0.5322390000000 1.0
C      1  0.3978830000000  0.4905380000000  0.5593260000000 1.0
C      1  0.5092030000000  0.5846950000000  0.4536030000000 1.0
C      1  0.6220240000000  0.4741680000000  0.4809060000000 1.0
C      1  0.6058580000000  0.4812760000000  0.4596740000000 1.0
C      1  0.4750130000000  0.5987020000000  0.5401730000000 1.0
C      1  0.4321690000000  0.5536790000000  0.4185370000000 1.0
C      1  0.5928500000000  0.4583770000000  0.4468850000000 1.0
C      1  0.5305620000000  0.4193190000000  0.4734960000000 1.0
C      1  0.3992590000000  0.5307660000000  0.4448890000000 1.0
END
