TITL C-951347-9520-57 2.75471315174919e-07 125000 -586.673682384954 0 0 94 (C1) n - 1
REM
REM in /home/bkarasulu/work/CARBON/AIRSS/Generating-Clusters/EDIP-Nigel-Params/with-SteepDescent/Only-C1/SD-CG/HFTN-CG
REM
REM
REM
REM
REM
REM ./C.cell (11c1c37f851c82e70ff6c80c92926a4b)
REM
REM compiler GCC version 9.2.1 20190827 (Red Hat 9.2.1-1)
REM options -cpp -mtune=generic -march=x86-64 -g -O0 -fpre-include=/usr/include/finclude/math-vector-fortran.h
REM seed 1480435151 815687421 -1837996025 -2066837668 1156287435 243488436 528089910 527469475 1597229125 -1186390272 -609161995 -194302963 -307981137 406453448 -2090269776 399470446 1847198027 -1761358130 -2092795438 565809374 1031275848 -388984431 -1798668453 2082526155 -1660343334 443643871 731298049 -87822869 -576287336 -33584538 1954618705 -878575426 -828824485
REM
CELL 1.54180   50.00000   50.00000   50.00000   90.00000   90.00000   90.00000
LATT -1
SFAC C  
C      1  0.5316840000000  0.5404790000000  0.4254160000000 1.0
C      1  0.5143370000000  0.5196410000000  0.5804400000000 1.0
C      1  0.5470570000000  0.4634860000000  0.5662210000000 1.0
C      1  0.4692380000000  0.5066160000000  0.5867430000000 1.0
C      1  0.5069510000000  0.4579620000000  0.4615800000000 1.0
C      1  0.4268540000000  0.4971500000000  0.5094660000000 1.0
C      1  0.5645750000000  0.4932270000000  0.4645830000000 1.0
C      1  0.4588510000000  0.4634570000000  0.5660390000000 1.0
C      1  0.5412930000000  0.5713720000000  0.4983910000000 1.0
C      1  0.5677060000000  0.4912340000000  0.5379050000000 1.0
C      1  0.4803110000000  0.4247370000000  0.5324590000000 1.0
C      1  0.5023500000000  0.4697050000000  0.5876260000000 1.0
C      1  0.4114430000000  0.4609870000000  0.4781610000000 1.0
C      1  0.4803310000000  0.4229640000000  0.4617710000000 1.0
C      1  0.4910330000000  0.5220650000000  0.5961480000000 1.0
C      1  0.4705020000000  0.5316130000000  0.4321560000000 1.0
C      1  0.4585990000000  0.5385730000000  0.4576450000000 1.0
C      1  0.4641900000000  0.5489160000000  0.5399320000000 1.0
C      1  0.5160230000000  0.4363940000000  0.4790400000000 1.0
C      1  0.4973300000000  0.5162850000000  0.5371020000000 1.0
C      1  0.5745960000000  0.5187670000000  0.4572980000000 1.0
C      1  0.5295240000000  0.4412000000000  0.5594070000000 1.0
C      1  0.4601190000000  0.5728160000000  0.5214190000000 1.0
C      1  0.4560380000000  0.5088600000000  0.5033240000000 1.0
C      1  0.4804640000000  0.4568670000000  0.4218230000000 1.0
C      1  0.5212760000000  0.5746420000000  0.4590310000000 1.0
C      1  0.4702250000000  0.5600760000000  0.4744950000000 1.0
C      1  0.4881810000000  0.5788320000000  0.5126790000000 1.0
C      1  0.5029140000000  0.4444200000000  0.5718380000000 1.0
C      1  0.5073850000000  0.5861530000000  0.5316710000000 1.0
C      1  0.4597480000000  0.4680520000000  0.4668940000000 1.0
C      1  0.5313230000000  0.5136590000000  0.4216150000000 1.0
C      1  0.4378860000000  0.4516070000000  0.4805050000000 1.0
C      1  0.4444240000000  0.4823090000000  0.4175530000000 1.0
C      1  0.4755400000000  0.5286870000000  0.5198650000000 1.0
C      1  0.4131810000000  0.4885200000000  0.4838780000000 1.0
C      1  0.4607440000000  0.4222470000000  0.5109890000000 1.0
C      1  0.4896140000000  0.5538370000000  0.4294430000000 1.0
C      1  0.4886450000000  0.5472210000000  0.4978200000000 1.0
C      1  0.5398280000000  0.4956670000000  0.5254660000000 1.0
C      1  0.5020140000000  0.4681490000000  0.5040950000000 1.0
C      1  0.4735770000000  0.4775880000000  0.5881240000000 1.0
C      1  0.4919080000000  0.5721600000000  0.4527780000000 1.0
C      1  0.4448600000000  0.4854350000000  0.5528380000000 1.0
C      1  0.4757820000000  0.4864740000000  0.4873210000000 1.0
C      1  0.4225400000000  0.4505550000000  0.5262280000000 1.0
C      1  0.4248040000000  0.5035570000000  0.4611880000000 1.0
C      1  0.5326360000000  0.4783780000000  0.5017800000000 1.0
C      1  0.4735500000000  0.4150980000000  0.4870060000000 1.0
C      1  0.5359530000000  0.5487080000000  0.4535540000000 1.0
C      1  0.4353290000000  0.5288040000000  0.4702190000000 1.0
C      1  0.5740050000000  0.4454560000000  0.5291120000000 1.0
C      1  0.5508840000000  0.4398420000000  0.5143350000000 1.0
C      1  0.5376810000000  0.4949870000000  0.4773020000000 1.0
C      1  0.5085600000000  0.5359500000000  0.5548950000000 1.0
C      1  0.5651440000000  0.5548330000000  0.4907540000000 1.0
C      1  0.4940030000000  0.4831270000000  0.4160680000000 1.0
C      1  0.4426510000000  0.5365940000000  0.5549590000000 1.0
C      1  0.5709290000000  0.4650670000000  0.5496010000000 1.0
C      1  0.5782660000000  0.5124340000000  0.5544300000000 1.0
C      1  0.6024180000000  0.5255120000000  0.5499520000000 1.0
C      1  0.4469410000000  0.5646450000000  0.4961420000000 1.0
C      1  0.5305790000000  0.5902460000000  0.4805840000000 1.0
C      1  0.5644270000000  0.5449130000000  0.4625830000000 1.0
C      1  0.5208910000000  0.4897580000000  0.5728560000000 1.0
C      1  0.5718500000000  0.5338760000000  0.5109280000000 1.0
C      1  0.4465290000000  0.4880400000000  0.4474220000000 1.0
C      1  0.5039700000000  0.4311920000000  0.5151140000000 1.0
C      1  0.4807710000000  0.4506180000000  0.4518060000000 1.0
C      1  0.5435610000000  0.4702520000000  0.4264940000000 1.0
C      1  0.5330500000000  0.5248660000000  0.4845150000000 1.0
C      1  0.5112380000000  0.5536160000000  0.4115740000000 1.0
C      1  0.4952510000000  0.4709920000000  0.5326530000000 1.0
C      1  0.4544950000000  0.4570470000000  0.4106740000000 1.0
C      1  0.4822440000000  0.4498850000000  0.5504750000000 1.0
C      1  0.4259320000000  0.4781700000000  0.5320960000000 1.0
C      1  0.4434870000000  0.4451740000000  0.5081380000000 1.0
C      1  0.5288420000000  0.4321950000000  0.5308870000000 1.0
C      1  0.4694020000000  0.5022520000000  0.4197510000000 1.0
C      1  0.4330100000000  0.5390480000000  0.4968090000000 1.0
C      1  0.5300310000000  0.5707550000000  0.5252110000000 1.0
C      1  0.4489720000000  0.5113750000000  0.5658650000000 1.0
C      1  0.4866600000000  0.5551010000000  0.5579870000000 1.0
C      1  0.5874690000000  0.5423430000000  0.5336560000000 1.0
C      1  0.4926900000000  0.5035040000000  0.4698310000000 1.0
C      1  0.5636960000000  0.4694600000000  0.4467650000000 1.0
C      1  0.5314750000000  0.5447230000000  0.5370590000000 1.0
C      1  0.5612780000000  0.4476240000000  0.4642170000000 1.0
C      1  0.5133710000000  0.4920040000000  0.5426430000000 1.0
C      1  0.5148150000000  0.4867260000000  0.4591620000000 1.0
C      1  0.5448310000000  0.4389240000000  0.4853600000000 1.0
C      1  0.5043330000000  0.5265120000000  0.4832370000000 1.0
C      1  0.5428450000000  0.5254780000000  0.5157610000000 1.0
C      1  0.5212530000000  0.4886750000000  0.4293700000000 1.0
END
