TITL C-951333-8791-740 -2.80133950091667e-06 125000 -1014.52612137902 0 0 163 (C1) n - 1
REM
REM in /home/bkarasulu/work/CARBON/AIRSS/Generating-Clusters/EDIP-Nigel-Params/with-SteepDescent/Only-C1/SD-CG/HFTN-CG
REM
REM
REM
REM
REM
REM ./C.cell (11c1c37f851c82e70ff6c80c92926a4b)
REM
REM compiler GCC version 9.2.1 20190827 (Red Hat 9.2.1-1)
REM options -cpp -mtune=generic -march=x86-64 -g -O0 -fpre-include=/usr/include/finclude/math-vector-fortran.h
REM seed -558000388 -232974106 -2122414054 919455790 -351723331 -82708987 123871155 583161488 1308834724 1831243679 846582640 481657962 -1204895338 -1186667007 1630902238 1964582888 -1120244656 322389384 1593802261 700285026 1009876898 1166464556 -1892087341 197983800 1870780421 1498165983 1815842960 1927316370 -1885835305 1370908113 1639135631 -1308893751 1076924172
REM
CELL 1.54180   50.00000   50.00000   50.00000   90.00000   90.00000   90.00000
LATT -1
SFAC C  
C      1  0.5323900000000  0.4137550000000  0.5727130000000 1.0
C      1  0.4621210000000  0.5236790000000  0.6137230000000 1.0
C      1  0.5243720000000  0.5128420000000  0.3904760000000 1.0
C      1  0.5028990000000  0.4650760000000  0.5876640000000 1.0
C      1  0.4042880000000  0.5472230000000  0.5012230000000 1.0
C      1  0.4027600000000  0.5294110000000  0.5246080000000 1.0
C      1  0.5546210000000  0.5704040000000  0.5542440000000 1.0
C      1  0.4168050000000  0.5713460000000  0.5111820000000 1.0
C      1  0.3928600000000  0.4857530000000  0.4444090000000 1.0
C      1  0.5126270000000  0.4639320000000  0.5288290000000 1.0
C      1  0.4134010000000  0.4412440000000  0.5111190000000 1.0
C      1  0.4709320000000  0.5435510000000  0.5249290000000 1.0
C      1  0.5708050000000  0.4947200000000  0.4107130000000 1.0
C      1  0.4841960000000  0.4245370000000  0.5656940000000 1.0
C      1  0.5043590000000  0.5180860000000  0.4945040000000 1.0
C      1  0.4141440000000  0.4301150000000  0.4638110000000 1.0
C      1  0.5639340000000  0.4455300000000  0.5237380000000 1.0
C      1  0.5331220000000  0.5767030000000  0.4369700000000 1.0
C      1  0.5592550000000  0.4971570000000  0.5195800000000 1.0
C      1  0.4335970000000  0.4706780000000  0.4453770000000 1.0
C      1  0.5095760000000  0.3966870000000  0.4860210000000 1.0
C      1  0.5241060000000  0.4815470000000  0.4292420000000 1.0
C      1  0.4799380000000  0.4456740000000  0.5851980000000 1.0
C      1  0.5302370000000  0.4583850000000  0.5983660000000 1.0
C      1  0.4507600000000  0.5246600000000  0.5386740000000 1.0
C      1  0.4909000000000  0.5482890000000  0.4569490000000 1.0
C      1  0.5171710000000  0.5674630000000  0.5298530000000 1.0
C      1  0.3947780000000  0.5124410000000  0.4333870000000 1.0
C      1  0.4347450000000  0.4229060000000  0.4454250000000 1.0
C      1  0.5932230000000  0.4919470000000  0.5142140000000 1.0
C      1  0.4223760000000  0.4574690000000  0.5353600000000 1.0
C      1  0.4160530000000  0.5019410000000  0.5620160000000 1.0
C      1  0.5212970000000  0.4543010000000  0.5550570000000 1.0
C      1  0.5967250000000  0.4690120000000  0.4953580000000 1.0
C      1  0.4067040000000  0.4503150000000  0.4821770000000 1.0
C      1  0.4275170000000  0.4929560000000  0.4278060000000 1.0
C      1  0.4246860000000  0.4148890000000  0.5115250000000 1.0
C      1  0.5721130000000  0.4430520000000  0.5703100000000 1.0
C      1  0.4576990000000  0.5338760000000  0.5880000000000 1.0
C      1  0.4500650000000  0.4989450000000  0.4098120000000 1.0
C      1  0.5366630000000  0.5335760000000  0.4046020000000 1.0
C      1  0.4885390000000  0.4936280000000  0.4558890000000 1.0
C      1  0.4140680000000  0.5323700000000  0.4416890000000 1.0
C      1  0.4966540000000  0.6048970000000  0.5346580000000 1.0
C      1  0.4690800000000  0.4774610000000  0.4048800000000 1.0
C      1  0.5911140000000  0.4822050000000  0.4251850000000 1.0
C      1  0.5515100000000  0.4642200000000  0.5604630000000 1.0
C      1  0.4575520000000  0.5707900000000  0.5289130000000 1.0
C      1  0.5423890000000  0.5419890000000  0.5303610000000 1.0
C      1  0.5605040000000  0.5225350000000  0.4166740000000 1.0
C      1  0.5256710000000  0.5380220000000  0.4893050000000 1.0
C      1  0.5269950000000  0.4858560000000  0.3988080000000 1.0
C      1  0.4746510000000  0.5910070000000  0.4872710000000 1.0
C      1  0.4604170000000  0.4113500000000  0.4565360000000 1.0
C      1  0.4611610000000  0.5607950000000  0.5831530000000 1.0
C      1  0.5135560000000  0.4988250000000  0.4720330000000 1.0
C      1  0.4650240000000  0.4501090000000  0.4158530000000 1.0
C      1  0.4492270000000  0.4039930000000  0.5035190000000 1.0
C      1  0.5857400000000  0.5508060000000  0.5285460000000 1.0
C      1  0.4616450000000  0.4239210000000  0.5462630000000 1.0
C      1  0.5639830000000  0.5003250000000  0.4614320000000 1.0
C      1  0.5703150000000  0.4268600000000  0.5455800000000 1.0
C      1  0.4063490000000  0.5015050000000  0.5167180000000 1.0
C      1  0.5369050000000  0.4129960000000  0.4371080000000 1.0
C      1  0.4499020000000  0.4767880000000  0.4774970000000 1.0
C      1  0.6078810000000  0.5148290000000  0.5048770000000 1.0
C      1  0.4452240000000  0.5007280000000  0.5206810000000 1.0
C      1  0.4980180000000  0.5733490000000  0.4782710000000 1.0
C      1  0.4517700000000  0.4555570000000  0.5810280000000 1.0
C      1  0.5214990000000  0.5555280000000  0.4179510000000 1.0
C      1  0.5449690000000  0.4817300000000  0.5997170000000 1.0
C      1  0.4483910000000  0.4495850000000  0.4951870000000 1.0
C      1  0.5159520000000  0.5636090000000  0.4995190000000 1.0
C      1  0.5517140000000  0.5582820000000  0.4516550000000 1.0
C      1  0.4077260000000  0.5009230000000  0.4873830000000 1.0
C      1  0.5500910000000  0.4044620000000  0.5504460000000 1.0
C      1  0.4100890000000  0.4838250000000  0.5402570000000 1.0
C      1  0.5320180000000  0.4775510000000  0.4819850000000 1.0
C      1  0.4937450000000  0.5588580000000  0.4101470000000 1.0
C      1  0.5663430000000  0.5672440000000  0.4771180000000 1.0
C      1  0.4452920000000  0.4820520000000  0.5982260000000 1.0
C      1  0.5687110000000  0.5765100000000  0.5260220000000 1.0
C      1  0.5810370000000  0.4453140000000  0.5006330000000 1.0
C      1  0.4288230000000  0.5660720000000  0.5378830000000 1.0
C      1  0.5115410000000  0.4251380000000  0.5531870000000 1.0
C      1  0.4642240000000  0.4230980000000  0.4848730000000 1.0
C      1  0.4633830000000  0.5992790000000  0.4619640000000 1.0
C      1  0.4942930000000  0.4948980000000  0.5913020000000 1.0
C      1  0.5567430000000  0.4323290000000  0.4303660000000 1.0
C      1  0.5281880000000  0.5386950000000  0.4586400000000 1.0
C      1  0.4397000000000  0.4436710000000  0.5550720000000 1.0
C      1  0.5538730000000  0.4747020000000  0.3973210000000 1.0
C      1  0.5556040000000  0.4480770000000  0.4071740000000 1.0
C      1  0.4508890000000  0.5072010000000  0.4915850000000 1.0
C      1  0.5115190000000  0.5449060000000  0.5936390000000 1.0
C      1  0.5889610000000  0.5034730000000  0.5568020000000 1.0
C      1  0.5291480000000  0.5825600000000  0.5632050000000 1.0
C      1  0.4950710000000  0.4784770000000  0.4315980000000 1.0
C      1  0.4609540000000  0.5143410000000  0.5653510000000 1.0
C      1  0.4747820000000  0.5895470000000  0.5463960000000 1.0
C      1  0.5641530000000  0.5439280000000  0.5680840000000 1.0
C      1  0.6055570000000  0.4876750000000  0.5402680000000 1.0
C      1  0.4800060000000  0.5361200000000  0.4017520000000 1.0
C      1  0.4744640000000  0.5307560000000  0.4939320000000 1.0
C      1  0.5397050000000  0.4725420000000  0.5113040000000 1.0
C      1  0.3993070000000  0.4780510000000  0.4720010000000 1.0
C      1  0.4427080000000  0.5777060000000  0.4594390000000 1.0
C      1  0.5133700000000  0.4097240000000  0.4551800000000 1.0
C      1  0.4807600000000  0.5775410000000  0.5727920000000 1.0
C      1  0.5805900000000  0.4762340000000  0.4515930000000 1.0
C      1  0.5883350000000  0.5344080000000  0.5542350000000 1.0
C      1  0.4502440000000  0.5668900000000  0.4344070000000 1.0
C      1  0.4388540000000  0.4470600000000  0.4289680000000 1.0
C      1  0.5655570000000  0.4339120000000  0.4789770000000 1.0
C      1  0.5097270000000  0.5074480000000  0.5212740000000 1.0
C      1  0.5339460000000  0.4604030000000  0.4571290000000 1.0
C      1  0.4670480000000  0.4810600000000  0.5266220000000 1.0
C      1  0.4228330000000  0.5367720000000  0.5454680000000 1.0
C      1  0.5463470000000  0.5186550000000  0.5669390000000 1.0
C      1  0.4158020000000  0.5296040000000  0.4786900000000 1.0
C      1  0.4960040000000  0.4138780000000  0.5145760000000 1.0
C      1  0.5355230000000  0.5085230000000  0.4503350000000 1.0
C      1  0.5178490000000  0.5257860000000  0.5420270000000 1.0
C      1  0.4420560000000  0.4918890000000  0.5698360000000 1.0
C      1  0.5619420000000  0.4500880000000  0.4538010000000 1.0
C      1  0.4803900000000  0.5683920000000  0.4345970000000 1.0
C      1  0.5350220000000  0.4011950000000  0.5002640000000 1.0
C      1  0.5808540000000  0.5242510000000  0.4613370000000 1.0
C      1  0.5607360000000  0.4959640000000  0.5515930000000 1.0
C      1  0.5083140000000  0.5685730000000  0.5780220000000 1.0
C      1  0.5472350000000  0.4354440000000  0.5874360000000 1.0
C      1  0.5516070000000  0.5280560000000  0.5038830000000 1.0
C      1  0.5171080000000  0.4374290000000  0.4702420000000 1.0
C      1  0.5717130000000  0.5398040000000  0.4374550000000 1.0
C      1  0.4654890000000  0.4525790000000  0.5203970000000 1.0
C      1  0.4858970000000  0.4459260000000  0.4674470000000 1.0
C      1  0.4615630000000  0.5239460000000  0.4207740000000 1.0
C      1  0.4966780000000  0.5472050000000  0.5409820000000 1.0
C      1  0.5293090000000  0.3991110000000  0.5291260000000 1.0
C      1  0.4874970000000  0.5021570000000  0.5636300000000 1.0
C      1  0.4861640000000  0.4111030000000  0.4396310000000 1.0
C      1  0.4865610000000  0.4409940000000  0.4353100000000 1.0
C      1  0.4771460000000  0.4734680000000  0.4718290000000 1.0
C      1  0.5553270000000  0.5834060000000  0.4982580000000 1.0
C      1  0.5157780000000  0.5927570000000  0.4580440000000 1.0
C      1  0.5753770000000  0.5405020000000  0.4864220000000 1.0
C      1  0.4873130000000  0.5974280000000  0.4426230000000 1.0
C      1  0.4690990000000  0.4035180000000  0.5244860000000 1.0
C      1  0.4938760000000  0.4882150000000  0.5366970000000 1.0
C      1  0.6034040000000  0.4729930000000  0.4687890000000 1.0
C      1  0.4940780000000  0.6216750000000  0.5124990000000 1.0
C      1  0.4381690000000  0.5417070000000  0.4266450000000 1.0
C      1  0.5210850000000  0.6177170000000  0.5074090000000 1.0
C      1  0.5338430000000  0.6019190000000  0.4869710000000 1.0
C      1  0.5986490000000  0.5409370000000  0.5043470000000 1.0
C      1  0.4527920000000  0.5809850000000  0.5024280000000 1.0
C      1  0.4733580000000  0.5215380000000  0.4503170000000 1.0
C      1  0.5408350000000  0.5086460000000  0.5943750000000 1.0
C      1  0.4939860000000  0.4442000000000  0.5145250000000 1.0
C      1  0.4464280000000  0.5412990000000  0.4701050000000 1.0
C      1  0.5143940000000  0.5173280000000  0.6003850000000 1.0
C      1  0.5393210000000  0.4286400000000  0.4912880000000 1.0
C      1  0.4689820000000  0.4966120000000  0.6091580000000 1.0
END
