TITL C-951333-8791-414 -9.10260161170537e-06 125000 -604.184242809199 0 0 98 (C1) n - 1
REM
REM in /home/bkarasulu/work/CARBON/AIRSS/Generating-Clusters/EDIP-Nigel-Params/with-SteepDescent/Only-C1/SD-CG/HFTN-CG
REM
REM
REM
REM
REM
REM ./C.cell (11c1c37f851c82e70ff6c80c92926a4b)
REM
REM compiler GCC version 9.2.1 20190827 (Red Hat 9.2.1-1)
REM options -cpp -mtune=generic -march=x86-64 -g -O0 -fpre-include=/usr/include/finclude/math-vector-fortran.h
REM seed 1042582457 1886848640 -345902462 1612209899 495519139 -556472048 -1961505213 -952153645 723463110 2026521913 -182830902 720966346 -1990193213 -755680984 2100760920 409582745 1409883866 729698026 -391744375 -673806706 141176899 903998614 -1071630237 1560704534 -299474705 1918983130 985332830 -1098159738 -75505145 -1600560311 -1880670498 1221311358 1214737037
REM
CELL 1.54180   50.00000   50.00000   50.00000   90.00000   90.00000   90.00000
LATT -1
SFAC C  
C      1  0.5138840000000  0.4593850000000  0.5302140000000 1.0
C      1  0.4627700000000  0.4399380000000  0.4562460000000 1.0
C      1  0.4894950000000  0.4270000000000  0.4509250000000 1.0
C      1  0.5358740000000  0.4267070000000  0.4695200000000 1.0
C      1  0.5387140000000  0.4996040000000  0.4312700000000 1.0
C      1  0.5212700000000  0.5095870000000  0.5456960000000 1.0
C      1  0.4432640000000  0.4770450000000  0.4811870000000 1.0
C      1  0.4957000000000  0.5334900000000  0.5795720000000 1.0
C      1  0.5368230000000  0.4624050000000  0.5104570000000 1.0
C      1  0.5106070000000  0.5785890000000  0.4784450000000 1.0
C      1  0.5546440000000  0.4590250000000  0.5581790000000 1.0
C      1  0.4996200000000  0.5406680000000  0.4786710000000 1.0
C      1  0.5233220000000  0.5255560000000  0.5716200000000 1.0
C      1  0.5260190000000  0.4739300000000  0.4875280000000 1.0
C      1  0.5380760000000  0.5495520000000  0.5615510000000 1.0
C      1  0.5753370000000  0.4407360000000  0.4977310000000 1.0
C      1  0.5495680000000  0.5137050000000  0.5322910000000 1.0
C      1  0.5404060000000  0.5293060000000  0.4311870000000 1.0
C      1  0.4914910000000  0.4735070000000  0.4575180000000 1.0
C      1  0.5127140000000  0.5769900000000  0.5279850000000 1.0
C      1  0.4880130000000  0.4647400000000  0.5106510000000 1.0
C      1  0.4275180000000  0.4882500000000  0.4488360000000 1.0
C      1  0.5226050000000  0.5683720000000  0.4534980000000 1.0
C      1  0.4848340000000  0.5007050000000  0.4631310000000 1.0
C      1  0.5008540000000  0.5566570000000  0.4372520000000 1.0
C      1  0.5139490000000  0.5369320000000  0.4199570000000 1.0
C      1  0.4844520000000  0.5440000000000  0.5519210000000 1.0
C      1  0.4987780000000  0.5132590000000  0.4107720000000 1.0
C      1  0.4839210000000  0.4273220000000  0.5338790000000 1.0
C      1  0.5343670000000  0.4367220000000  0.4320800000000 1.0
C      1  0.4308400000000  0.5586330000000  0.4757900000000 1.0
C      1  0.5052100000000  0.4394710000000  0.4276090000000 1.0
C      1  0.4727720000000  0.5733500000000  0.4725740000000 1.0
C      1  0.4784110000000  0.4943370000000  0.5122450000000 1.0
C      1  0.4614360000000  0.5087750000000  0.5580790000000 1.0
C      1  0.5162860000000  0.5661800000000  0.5542120000000 1.0
C      1  0.5457340000000  0.5484570000000  0.4543120000000 1.0
C      1  0.4564610000000  0.4496990000000  0.4832040000000 1.0
C      1  0.4711610000000  0.5089490000000  0.4217760000000 1.0
C      1  0.5909480000000  0.5086010000000  0.5118560000000 1.0
C      1  0.5015310000000  0.4596970000000  0.4822530000000 1.0
C      1  0.5226940000000  0.4697860000000  0.5773980000000 1.0
C      1  0.5522750000000  0.4535220000000  0.4470570000000 1.0
C      1  0.5464760000000  0.5141850000000  0.5022090000000 1.0
C      1  0.5522570000000  0.4239730000000  0.4947910000000 1.0
C      1  0.4215000000000  0.4768910000000  0.5013270000000 1.0
C      1  0.4672420000000  0.4786190000000  0.4204490000000 1.0
C      1  0.4186690000000  0.5249500000000  0.5072770000000 1.0
C      1  0.5659240000000  0.4656910000000  0.5095700000000 1.0
C      1  0.5747790000000  0.5546630000000  0.5233860000000 1.0
C      1  0.5548400000000  0.5413620000000  0.5388640000000 1.0
C      1  0.5167070000000  0.4811540000000  0.5514380000000 1.0
C      1  0.5763560000000  0.5253800000000  0.4571730000000 1.0
C      1  0.4399310000000  0.4642630000000  0.5542090000000 1.0
C      1  0.5363650000000  0.4360880000000  0.5529580000000 1.0
C      1  0.4330830000000  0.5135800000000  0.5650620000000 1.0
C      1  0.4257530000000  0.5466370000000  0.5257150000000 1.0
C      1  0.4674850000000  0.4654860000000  0.5648140000000 1.0
C      1  0.5907060000000  0.5385090000000  0.5050910000000 1.0
C      1  0.4960700000000  0.4688340000000  0.4277190000000 1.0
C      1  0.5770630000000  0.4995090000000  0.5383840000000 1.0
C      1  0.5221640000000  0.5011270000000  0.4933990000000 1.0
C      1  0.5129260000000  0.4419810000000  0.5716620000000 1.0
C      1  0.4219550000000  0.5320190000000  0.4777240000000 1.0
C      1  0.5749190000000  0.4972560000000  0.4637610000000 1.0
C      1  0.4650740000000  0.5346220000000  0.4844260000000 1.0
C      1  0.5068380000000  0.4307480000000  0.4752120000000 1.0
C      1  0.4939620000000  0.5211570000000  0.5303150000000 1.0
C      1  0.5484790000000  0.5467410000000  0.4953430000000 1.0
C      1  0.5092330000000  0.5141190000000  0.4722040000000 1.0
C      1  0.5570500000000  0.4822280000000  0.4455420000000 1.0
C      1  0.4725410000000  0.5547900000000  0.4477050000000 1.0
C      1  0.5705660000000  0.4948640000000  0.4938680000000 1.0
C      1  0.4353100000000  0.5157830000000  0.4564010000000 1.0
C      1  0.4895080000000  0.5416040000000  0.5079570000000 1.0
C      1  0.5158280000000  0.4892810000000  0.4157240000000 1.0
C      1  0.4741730000000  0.4844440000000  0.5854780000000 1.0
C      1  0.4873750000000  0.5888950000000  0.5267260000000 1.0
C      1  0.4650880000000  0.5012850000000  0.4860110000000 1.0
C      1  0.5363740000000  0.4189720000000  0.5191370000000 1.0
C      1  0.4155290000000  0.4525560000000  0.5137530000000 1.0
C      1  0.5735430000000  0.4699290000000  0.5386140000000 1.0
C      1  0.4805660000000  0.5117610000000  0.5916660000000 1.0
C      1  0.4504220000000  0.5601150000000  0.5166430000000 1.0
C      1  0.5824610000000  0.5446460000000  0.4773480000000 1.0
C      1  0.4465700000000  0.4684490000000  0.4385440000000 1.0
C      1  0.4251260000000  0.5369280000000  0.5520410000000 1.0
C      1  0.4579630000000  0.5281180000000  0.4414460000000 1.0
C      1  0.4378150000000  0.4473370000000  0.5299640000000 1.0
C      1  0.5085510000000  0.4178340000000  0.5237220000000 1.0
C      1  0.4699820000000  0.5687440000000  0.5369030000000 1.0
C      1  0.4855280000000  0.4422810000000  0.5593580000000 1.0
C      1  0.4268330000000  0.4982670000000  0.5204080000000 1.0
C      1  0.4487390000000  0.5742920000000  0.4904550000000 1.0
C      1  0.5247620000000  0.5674490000000  0.5022860000000 1.0
C      1  0.4630120000000  0.4402410000000  0.5142190000000 1.0
C      1  0.4564220000000  0.4978040000000  0.5304840000000 1.0
C      1  0.4209600000000  0.4884220000000  0.5549800000000 1.0
END
