TITL C-950525-1983-209 -3.65204386832336e-06 125000 -726.328964899999 0 0 115 (C1) n - 1
REM
REM in /home/bkarasulu/work/CARBON/AIRSS/Generating-Clusters/EDIP-Nigel-Params/with-SteepDescent/Only-C1/SD-CG/HFTN-CG
REM
REM
REM
REM
REM
REM ./C.cell (11c1c37f851c82e70ff6c80c92926a4b)
REM
REM compiler GCC version 9.2.1 20190827 (Red Hat 9.2.1-1)
REM options -cpp -mtune=generic -march=x86-64 -g -O0 -fpre-include=/usr/include/finclude/math-vector-fortran.h
REM seed 673058263 494622423 1949382063 1260069989 -1463100018 -408467951 2012644717 393931698 171885459 -1730524481 -145770110 -1999587432 148623832 -1554285113 -1625791676 -2010417388 -1950583164 -1088733160 131675089 -657765732 2120848694 1988976550 506933878 -384274444 -496207721 2141792735 36928647 -1149148400 -1531521437 -995671118 -347424904 -539203394 331159568
REM
CELL 1.54180   50.00000   50.00000   50.00000   90.00000   90.00000   90.00000
LATT -1
SFAC C  
C      1  0.4434270000000  0.5662630000000  0.5316630000000 1.0
C      1  0.5107820000000  0.4484660000000  0.4753440000000 1.0
C      1  0.4897520000000  0.4124270000000  0.5179640000000 1.0
C      1  0.4881870000000  0.4180630000000  0.5476220000000 1.0
C      1  0.4774110000000  0.4869100000000  0.4169810000000 1.0
C      1  0.4561120000000  0.4677930000000  0.5316280000000 1.0
C      1  0.4564540000000  0.5344190000000  0.5691800000000 1.0
C      1  0.4207260000000  0.5005330000000  0.5493300000000 1.0
C      1  0.4746770000000  0.5781110000000  0.4596310000000 1.0
C      1  0.5277620000000  0.5750740000000  0.4886130000000 1.0
C      1  0.4740670000000  0.4795100000000  0.4880940000000 1.0
C      1  0.5524370000000  0.5394360000000  0.5708830000000 1.0
C      1  0.4460630000000  0.5653440000000  0.4554870000000 1.0
C      1  0.5590640000000  0.5120060000000  0.5689490000000 1.0
C      1  0.5153580000000  0.4523050000000  0.5728360000000 1.0
C      1  0.5306340000000  0.4295000000000  0.5307150000000 1.0
C      1  0.5010030000000  0.5636800000000  0.4488500000000 1.0
C      1  0.4724910000000  0.4998820000000  0.4672610000000 1.0
C      1  0.4289740000000  0.5270940000000  0.5143950000000 1.0
C      1  0.5629260000000  0.4519720000000  0.5364410000000 1.0
C      1  0.5618410000000  0.5686810000000  0.5000670000000 1.0
C      1  0.5248650000000  0.4209080000000  0.4792150000000 1.0
C      1  0.4877970000000  0.4622020000000  0.4303120000000 1.0
C      1  0.5739410000000  0.5042100000000  0.5392880000000 1.0
C      1  0.5289270000000  0.5412500000000  0.4116600000000 1.0
C      1  0.4330440000000  0.5655780000000  0.4827290000000 1.0
C      1  0.5214160000000  0.4906200000000  0.4559200000000 1.0
C      1  0.5396110000000  0.5077190000000  0.4376080000000 1.0
C      1  0.4628860000000  0.4326490000000  0.5597220000000 1.0
C      1  0.4144190000000  0.5006420000000  0.5193970000000 1.0
C      1  0.5843180000000  0.4753520000000  0.5331660000000 1.0
C      1  0.5001600000000  0.5650920000000  0.5261330000000 1.0
C      1  0.4286930000000  0.4483820000000  0.4773720000000 1.0
C      1  0.4490580000000  0.4954030000000  0.4217090000000 1.0
C      1  0.5141810000000  0.4626300000000  0.4468240000000 1.0
C      1  0.5024650000000  0.5850870000000  0.5045040000000 1.0
C      1  0.5096930000000  0.5391460000000  0.5150850000000 1.0
C      1  0.5153780000000  0.5015980000000  0.5984800000000 1.0
C      1  0.4716980000000  0.4332660000000  0.5068560000000 1.0
C      1  0.5491790000000  0.5446900000000  0.4315250000000 1.0
C      1  0.5097620000000  0.4099820000000  0.4534080000000 1.0
C      1  0.5901440000000  0.5348720000000  0.4698240000000 1.0
C      1  0.5244850000000  0.5112900000000  0.4105620000000 1.0
C      1  0.4219980000000  0.4943970000000  0.4663500000000 1.0
C      1  0.4501040000000  0.4794480000000  0.5049480000000 1.0
C      1  0.4655430000000  0.4940750000000  0.5995880000000 1.0
C      1  0.5172220000000  0.5243700000000  0.5621750000000 1.0
C      1  0.5667970000000  0.5505750000000  0.5227500000000 1.0
C      1  0.5928430000000  0.5157150000000  0.4925550000000 1.0
C      1  0.4990220000000  0.5709130000000  0.5548630000000 1.0
C      1  0.5857390000000  0.4677260000000  0.5038340000000 1.0
C      1  0.5486990000000  0.5031780000000  0.4960460000000 1.0
C      1  0.5037980000000  0.5489640000000  0.5739980000000 1.0
C      1  0.4641650000000  0.5561790000000  0.5495330000000 1.0
C      1  0.4618920000000  0.5265080000000  0.5245110000000 1.0
C      1  0.4209400000000  0.5466570000000  0.5359000000000 1.0
C      1  0.5363740000000  0.4467900000000  0.4339040000000 1.0
C      1  0.4433970000000  0.5251830000000  0.4197040000000 1.0
C      1  0.4893160000000  0.4639260000000  0.5314170000000 1.0
C      1  0.5759930000000  0.4899750000000  0.4865060000000 1.0
C      1  0.4382650000000  0.5378730000000  0.4452810000000 1.0
C      1  0.4228270000000  0.5234290000000  0.4648300000000 1.0
C      1  0.5591320000000  0.4503740000000  0.4533190000000 1.0
C      1  0.5203600000000  0.4574310000000  0.5225430000000 1.0
C      1  0.4956940000000  0.4920520000000  0.5057650000000 1.0
C      1  0.4380220000000  0.4250090000000  0.4912490000000 1.0
C      1  0.4521890000000  0.5720540000000  0.5033710000000 1.0
C      1  0.5156200000000  0.4262800000000  0.5570090000000 1.0
C      1  0.5457580000000  0.5304810000000  0.4840240000000 1.0
C      1  0.5400830000000  0.4728920000000  0.5390310000000 1.0
C      1  0.4843590000000  0.5362050000000  0.4067880000000 1.0
C      1  0.4206720000000  0.5394790000000  0.4883380000000 1.0
C      1  0.4810730000000  0.4488200000000  0.4819240000000 1.0
C      1  0.4951540000000  0.5094830000000  0.4100190000000 1.0
C      1  0.4947260000000  0.5020100000000  0.5592610000000 1.0
C      1  0.5842120000000  0.5263170000000  0.5202190000000 1.0
C      1  0.5234020000000  0.4902400000000  0.4866940000000 1.0
C      1  0.5259240000000  0.4203680000000  0.4324550000000 1.0
C      1  0.4242730000000  0.5291680000000  0.5602830000000 1.0
C      1  0.5462800000000  0.5027920000000  0.5264430000000 1.0
C      1  0.5862880000000  0.5200090000000  0.4459460000000 1.0
C      1  0.5266430000000  0.4628580000000  0.4943930000000 1.0
C      1  0.4479250000000  0.4882970000000  0.5539330000000 1.0
C      1  0.5032570000000  0.5561250000000  0.4175160000000 1.0
C      1  0.5522660000000  0.5650350000000  0.4511540000000 1.0
C      1  0.4684640000000  0.4422770000000  0.4407390000000 1.0
C      1  0.4879300000000  0.5113760000000  0.6019890000000 1.0
C      1  0.5212810000000  0.5450350000000  0.4882830000000 1.0
C      1  0.4368330000000  0.4215490000000  0.5191560000000 1.0
C      1  0.5703580000000  0.4421300000000  0.5009680000000 1.0
C      1  0.4429680000000  0.4413540000000  0.5390980000000 1.0
C      1  0.5264300000000  0.5788660000000  0.4584850000000 1.0
C      1  0.4353170000000  0.4809320000000  0.4439560000000 1.0
C      1  0.4939600000000  0.4700550000000  0.5609690000000 1.0
C      1  0.5397310000000  0.4939400000000  0.5837970000000 1.0
C      1  0.4518770000000  0.4771210000000  0.5818100000000 1.0
C      1  0.5305690000000  0.5283040000000  0.5348350000000 1.0
C      1  0.4573330000000  0.5410150000000  0.4011880000000 1.0
C      1  0.4801590000000  0.5249870000000  0.4779280000000 1.0
C      1  0.5720140000000  0.4779800000000  0.4580880000000 1.0
C      1  0.4805470000000  0.5376900000000  0.5895140000000 1.0
C      1  0.5653280000000  0.5513820000000  0.4755030000000 1.0
C      1  0.5026160000000  0.5386390000000  0.4659930000000 1.0
C      1  0.4225470000000  0.4778270000000  0.4926530000000 1.0
C      1  0.5381050000000  0.4691550000000  0.5686150000000 1.0
C      1  0.4863500000000  0.5211000000000  0.5068530000000 1.0
C      1  0.4425260000000  0.4538240000000  0.4513900000000 1.0
C      1  0.4818160000000  0.4205620000000  0.4551190000000 1.0
C      1  0.5542960000000  0.5560140000000  0.5479260000000 1.0
C      1  0.5548730000000  0.4332000000000  0.4772820000000 1.0
C      1  0.4714340000000  0.4564980000000  0.5761890000000 1.0
C      1  0.5182310000000  0.4120740000000  0.5086100000000 1.0
C      1  0.4667920000000  0.5116230000000  0.5516380000000 1.0
C      1  0.5688510000000  0.4990640000000  0.4382210000000 1.0
C      1  0.4759520000000  0.5847320000000  0.4896060000000 1.0
END
