TITL C-950524-1808-122 -2.98458141624574e-06 125000 -760.216132396743 0 0 123 (C1) n - 1
REM
REM in /home/bkarasulu/work/CARBON/AIRSS/Generating-Clusters/EDIP-Nigel-Params/with-SteepDescent/Only-C1/SD-CG/HFTN-CG
REM
REM
REM
REM
REM
REM ./C.cell (11c1c37f851c82e70ff6c80c92926a4b)
REM
REM compiler GCC version 9.2.1 20190827 (Red Hat 9.2.1-1)
REM options -cpp -mtune=generic -march=x86-64 -g -O0 -fpre-include=/usr/include/finclude/math-vector-fortran.h
REM seed -1254461587 -1851764951 -390696616 -656065653 391519770 987095323 1390090512 -1963852546 1325331978 -1228433263 -244942543 -505487204 -136387158 -1248794434 1578565103 1890718897 -1481103940 -1537915786 247867495 1848106021 -1889777809 1363219482 1478558664 1961681348 59423397 -1275128813 -1519590981 1081803642 -479222946 -1664081399 1631962144 -317119898 -713088753
REM
CELL 1.54180   50.00000   50.00000   50.00000   90.00000   90.00000   90.00000
LATT -1
SFAC C  
C      1  0.4808670000000  0.5290120000000  0.5941330000000 1.0
C      1  0.5438260000000  0.4176260000000  0.4817410000000 1.0
C      1  0.5787570000000  0.4277600000000  0.5198140000000 1.0
C      1  0.5530700000000  0.4152910000000  0.5093830000000 1.0
C      1  0.4630120000000  0.4823980000000  0.6021770000000 1.0
C      1  0.4555000000000  0.4741360000000  0.5375920000000 1.0
C      1  0.5982900000000  0.4743370000000  0.5159220000000 1.0
C      1  0.4612760000000  0.5913030000000  0.5519680000000 1.0
C      1  0.5918560000000  0.4486340000000  0.5019320000000 1.0
C      1  0.4274900000000  0.4395930000000  0.4964610000000 1.0
C      1  0.5698000000000  0.5449110000000  0.4677560000000 1.0
C      1  0.5598480000000  0.5042830000000  0.4826360000000 1.0
C      1  0.5546060000000  0.4399110000000  0.4663240000000 1.0
C      1  0.5306810000000  0.5235950000000  0.5077990000000 1.0
C      1  0.4371710000000  0.5103680000000  0.5742570000000 1.0
C      1  0.5370700000000  0.4947680000000  0.4060460000000 1.0
C      1  0.4861630000000  0.5871770000000  0.5380430000000 1.0
C      1  0.4169480000000  0.4952970000000  0.4824200000000 1.0
C      1  0.5599460000000  0.4792130000000  0.4194230000000 1.0
C      1  0.4695860000000  0.4903790000000  0.4101290000000 1.0
C      1  0.4705420000000  0.5744210000000  0.4841780000000 1.0
C      1  0.4353690000000  0.5462650000000  0.4602350000000 1.0
C      1  0.5173700000000  0.5680150000000  0.4240290000000 1.0
C      1  0.5191620000000  0.4751530000000  0.4678770000000 1.0
C      1  0.5292370000000  0.5714140000000  0.5175030000000 1.0
C      1  0.4710180000000  0.5669400000000  0.4340850000000 1.0
C      1  0.5303810000000  0.4505100000000  0.4517760000000 1.0
C      1  0.5517670000000  0.5305570000000  0.5393250000000 1.0
C      1  0.5707830000000  0.5245260000000  0.4452850000000 1.0
C      1  0.5199270000000  0.5271090000000  0.4772710000000 1.0
C      1  0.4885000000000  0.4993830000000  0.5040430000000 1.0
C      1  0.4456350000000  0.4194730000000  0.5078050000000 1.0
C      1  0.4519280000000  0.5115310000000  0.4557680000000 1.0
C      1  0.5608650000000  0.4638220000000  0.5494420000000 1.0
C      1  0.4335080000000  0.4901690000000  0.4403130000000 1.0
C      1  0.4572090000000  0.5095250000000  0.5947560000000 1.0
C      1  0.4603920000000  0.4544730000000  0.5615380000000 1.0
C      1  0.4667460000000  0.4085050000000  0.4915490000000 1.0
C      1  0.5277990000000  0.5250300000000  0.5575560000000 1.0
C      1  0.4512000000000  0.5483610000000  0.5487080000000 1.0
C      1  0.5338370000000  0.4646930000000  0.5608320000000 1.0
C      1  0.5606700000000  0.5599410000000  0.5451680000000 1.0
C      1  0.4107490000000  0.4979590000000  0.5372740000000 1.0
C      1  0.4499970000000  0.4165550000000  0.5351290000000 1.0
C      1  0.4481100000000  0.5482570000000  0.4323210000000 1.0
C      1  0.5318960000000  0.4231190000000  0.5283890000000 1.0
C      1  0.5049730000000  0.5690430000000  0.5554020000000 1.0
C      1  0.4671610000000  0.5010940000000  0.5526630000000 1.0
C      1  0.5724530000000  0.4595980000000  0.4813800000000 1.0
C      1  0.5159890000000  0.5915060000000  0.5006330000000 1.0
C      1  0.5524070000000  0.5348310000000  0.4248550000000 1.0
C      1  0.4911140000000  0.5612100000000  0.4124460000000 1.0
C      1  0.4278270000000  0.5325900000000  0.5590220000000 1.0
C      1  0.5972960000000  0.4979980000000  0.4956550000000 1.0
C      1  0.4588770000000  0.5682100000000  0.5703980000000 1.0
C      1  0.4594370000000  0.5090170000000  0.5068280000000 1.0
C      1  0.5124080000000  0.5024030000000  0.5226190000000 1.0
C      1  0.5285790000000  0.5158280000000  0.5956020000000 1.0
C      1  0.4220120000000  0.5394450000000  0.5020830000000 1.0
C      1  0.5142270000000  0.5462650000000  0.5169100000000 1.0
C      1  0.4930320000000  0.4456840000000  0.5101660000000 1.0
C      1  0.5181750000000  0.4542050000000  0.5208810000000 1.0
C      1  0.4958740000000  0.4201340000000  0.5541450000000 1.0
C      1  0.4936420000000  0.4780390000000  0.4212880000000 1.0
C      1  0.4309930000000  0.4500620000000  0.4694050000000 1.0
C      1  0.4939650000000  0.5150150000000  0.4791770000000 1.0
C      1  0.4669790000000  0.4267030000000  0.5549370000000 1.0
C      1  0.5040220000000  0.5408480000000  0.5439300000000 1.0
C      1  0.4156140000000  0.4560220000000  0.5153740000000 1.0
C      1  0.4769430000000  0.4668270000000  0.5826000000000 1.0
C      1  0.4475070000000  0.4964110000000  0.4827550000000 1.0
C      1  0.4580000000000  0.5260510000000  0.4149320000000 1.0
C      1  0.5142220000000  0.5598210000000  0.4618120000000 1.0
C      1  0.5366660000000  0.5382740000000  0.5823760000000 1.0
C      1  0.5182000000000  0.4711370000000  0.4069320000000 1.0
C      1  0.5127360000000  0.4798670000000  0.5453460000000 1.0
C      1  0.4241020000000  0.5700670000000  0.5025050000000 1.0
C      1  0.4256450000000  0.4749270000000  0.5329430000000 1.0
C      1  0.5355490000000  0.5770990000000  0.5535480000000 1.0
C      1  0.5243200000000  0.4379810000000  0.5696600000000 1.0
C      1  0.4076720000000  0.5246830000000  0.5412220000000 1.0
C      1  0.5558850000000  0.4785630000000  0.4990250000000 1.0
C      1  0.5450980000000  0.4218910000000  0.5559060000000 1.0
C      1  0.5693870000000  0.5418280000000  0.4976000000000 1.0
C      1  0.4864010000000  0.5316110000000  0.4091590000000 1.0
C      1  0.5143250000000  0.4145700000000  0.4777070000000 1.0
C      1  0.5010600000000  0.5203150000000  0.4317770000000 1.0
C      1  0.4829810000000  0.5065390000000  0.4537260000000 1.0
C      1  0.5723670000000  0.4942740000000  0.4427200000000 1.0
C      1  0.5451320000000  0.5623700000000  0.4305530000000 1.0
C      1  0.4497980000000  0.4729790000000  0.4223240000000 1.0
C      1  0.4849650000000  0.5671050000000  0.4603280000000 1.0
C      1  0.5280700000000  0.4698940000000  0.4972780000000 1.0
C      1  0.4830980000000  0.5577260000000  0.5832630000000 1.0
C      1  0.5555970000000  0.5684220000000  0.4574850000000 1.0
C      1  0.4107510000000  0.5241540000000  0.4789240000000 1.0
C      1  0.4942230000000  0.4166910000000  0.5015650000000 1.0
C      1  0.5869740000000  0.4800640000000  0.4637860000000 1.0
C      1  0.4863780000000  0.5877340000000  0.5070240000000 1.0
C      1  0.5743810000000  0.5115820000000  0.5354330000000 1.0
C      1  0.4778470000000  0.4336250000000  0.4508750000000 1.0
C      1  0.4163570000000  0.4743170000000  0.4600300000000 1.0
C      1  0.5058260000000  0.4063220000000  0.5287360000000 1.0
C      1  0.4416520000000  0.5709360000000  0.4780700000000 1.0
C      1  0.4727540000000  0.4668140000000  0.5085480000000 1.0
C      1  0.5016370000000  0.5083940000000  0.5892990000000 1.0
C      1  0.4880000000000  0.4760960000000  0.4585030000000 1.0
C      1  0.4911230000000  0.4886480000000  0.5676070000000 1.0
C      1  0.5388940000000  0.4546180000000  0.4231750000000 1.0
C      1  0.5709370000000  0.4363320000000  0.5488130000000 1.0
C      1  0.4511540000000  0.5356300000000  0.5062960000000 1.0
C      1  0.5873380000000  0.5220480000000  0.5109570000000 1.0
C      1  0.4486940000000  0.5703840000000  0.5221540000000 1.0
C      1  0.5707010000000  0.4822990000000  0.5277410000000 1.0
C      1  0.4620870000000  0.4693570000000  0.4792090000000 1.0
C      1  0.5606020000000  0.5654010000000  0.5141770000000 1.0
C      1  0.5257380000000  0.5842410000000  0.4743490000000 1.0
C      1  0.4625800000000  0.4500830000000  0.4337770000000 1.0
C      1  0.5337590000000  0.5039790000000  0.4616340000000 1.0
C      1  0.5071470000000  0.4306150000000  0.4542120000000 1.0
C      1  0.4747310000000  0.5293290000000  0.5427190000000 1.0
C      1  0.5309680000000  0.5137060000000  0.4286310000000 1.0
C      1  0.4636230000000  0.4139220000000  0.4643620000000 1.0
END
