TITL C-951338-5626-39 1.3587430524956e-06 125000 -441.237787316247 0 0 72 (C1) n - 1
REM
REM in /home/bkarasulu/work/CARBON/AIRSS/Generating-Clusters/EDIP-Nigel-Params/with-SteepDescent/Only-C1/SD-CG/HFTN-CG
REM
REM
REM
REM
REM
REM ./C.cell (11c1c37f851c82e70ff6c80c92926a4b)
REM
REM compiler GCC version 9.2.1 20190827 (Red Hat 9.2.1-1)
REM options -cpp -mtune=generic -march=x86-64 -g -O0 -fpre-include=/usr/include/finclude/math-vector-fortran.h
REM seed 895514095 -647243684 -1429912122 1199603855 -370403550 570775379 -1840564744 189102557 1972997308 995631074 1280419369 -1677733847 49537390 1111654904 -678081649 540408951 363447708 -1838004926 -1212175872 -2031280249 966634903 1728214166 -1768487769 471351504 1914796992 -1737433439 -402369255 861433850 -1335818241 -2024204061 1168537280 2046074791 -1921346837
REM
CELL 1.54180   50.00000   50.00000   50.00000   90.00000   90.00000   90.00000
LATT -1
SFAC C  
C      1  0.5575470000000  0.4787170000000  0.5295950000000 1.0
C      1  0.5146840000000  0.4491060000000  0.5277600000000 1.0
C      1  0.5580880000000  0.4486700000000  0.5292590000000 1.0
C      1  0.5165110000000  0.4815430000000  0.4150840000000 1.0
C      1  0.4783660000000  0.5713310000000  0.5349930000000 1.0
C      1  0.5285580000000  0.5045880000000  0.4261270000000 1.0
C      1  0.4794260000000  0.4444600000000  0.4995380000000 1.0
C      1  0.4672120000000  0.4858020000000  0.5779010000000 1.0
C      1  0.5240080000000  0.4501420000000  0.4605740000000 1.0
C      1  0.5548090000000  0.5220950000000  0.5489570000000 1.0
C      1  0.4687360000000  0.4655940000000  0.5197340000000 1.0
C      1  0.4988260000000  0.5700180000000  0.4908280000000 1.0
C      1  0.5497860000000  0.4969530000000  0.4460680000000 1.0
C      1  0.5682450000000  0.4882210000000  0.5034070000000 1.0
C      1  0.5025420000000  0.5713630000000  0.5207660000000 1.0
C      1  0.4681100000000  0.5396240000000  0.4539960000000 1.0
C      1  0.5183510000000  0.5494020000000  0.5336360000000 1.0
C      1  0.4846510000000  0.4850910000000  0.5374330000000 1.0
C      1  0.4475340000000  0.5098300000000  0.4900250000000 1.0
C      1  0.5644420000000  0.5193510000000  0.4599230000000 1.0
C      1  0.4852310000000  0.4183310000000  0.5159120000000 1.0
C      1  0.4669390000000  0.5560450000000  0.5552340000000 1.0
C      1  0.4621430000000  0.5747290000000  0.4806090000000 1.0
C      1  0.5462680000000  0.5554100000000  0.4834020000000 1.0
C      1  0.4761200000000  0.5141440000000  0.5796450000000 1.0
C      1  0.4390520000000  0.4833600000000  0.4760840000000 1.0
C      1  0.4456260000000  0.4822870000000  0.5567670000000 1.0
C      1  0.5009250000000  0.5777630000000  0.4477280000000 1.0
C      1  0.4629220000000  0.4498090000000  0.4519110000000 1.0
C      1  0.4347240000000  0.5186730000000  0.5166890000000 1.0
C      1  0.5099800000000  0.5277610000000  0.4328070000000 1.0
C      1  0.5049420000000  0.5930590000000  0.4724870000000 1.0
C      1  0.5410320000000  0.4342220000000  0.4466840000000 1.0
C      1  0.5057930000000  0.4161800000000  0.4953780000000 1.0
C      1  0.5393110000000  0.4770940000000  0.4679490000000 1.0
C      1  0.5199870000000  0.4928160000000  0.4855250000000 1.0
C      1  0.4538070000000  0.4548430000000  0.5433330000000 1.0
C      1  0.4547350000000  0.4787070000000  0.4514900000000 1.0
C      1  0.4484590000000  0.5092340000000  0.5414830000000 1.0
C      1  0.4963680000000  0.5332650000000  0.5450280000000 1.0
C      1  0.4885230000000  0.5122850000000  0.5228010000000 1.0
C      1  0.5193520000000  0.5523220000000  0.4485410000000 1.0
C      1  0.5554480000000  0.5473430000000  0.4561400000000 1.0
C      1  0.5225610000000  0.5014450000000  0.5147430000000 1.0
C      1  0.4561360000000  0.5294650000000  0.5622190000000 1.0
C      1  0.5656990000000  0.5143760000000  0.4892410000000 1.0
C      1  0.5393550000000  0.5286150000000  0.5253140000000 1.0
C      1  0.5506940000000  0.4949850000000  0.5537310000000 1.0
C      1  0.4767860000000  0.5096820000000  0.4953180000000 1.0
C      1  0.5053130000000  0.5163020000000  0.5693530000000 1.0
C      1  0.4333500000000  0.5469810000000  0.5135390000000 1.0
C      1  0.4404320000000  0.5562980000000  0.4876320000000 1.0
C      1  0.4816740000000  0.4926510000000  0.4494420000000 1.0
C      1  0.4904920000000  0.4470620000000  0.4422040000000 1.0
C      1  0.5627610000000  0.4665600000000  0.4846150000000 1.0
C      1  0.5134970000000  0.4783160000000  0.5362240000000 1.0
C      1  0.4971050000000  0.4283170000000  0.5418670000000 1.0
C      1  0.4895820000000  0.4678750000000  0.5721630000000 1.0
C      1  0.4561510000000  0.4422760000000  0.4799700000000 1.0
C      1  0.4775590000000  0.4437690000000  0.5590880000000 1.0
C      1  0.5215110000000  0.4892050000000  0.5648840000000 1.0
C      1  0.4927390000000  0.4947890000000  0.4772580000000 1.0
C      1  0.4728490000000  0.5684790000000  0.4538400000000 1.0
C      1  0.4448120000000  0.5328620000000  0.4706830000000 1.0
C      1  0.5176360000000  0.5493970000000  0.4794920000000 1.0
C      1  0.5530080000000  0.4424050000000  0.4998570000000 1.0
C      1  0.5225160000000  0.4401070000000  0.4904770000000 1.0
C      1  0.4819670000000  0.5201720000000  0.4373010000000 1.0
C      1  0.4977130000000  0.4734990000000  0.4339370000000 1.0
C      1  0.5355150000000  0.4362660000000  0.5435930000000 1.0
C      1  0.5582970000000  0.5378740000000  0.5040350000000 1.0
C      1  0.4341720000000  0.4583840000000  0.4887510000000 1.0
END
