TITL C-950531-5884-144 -7.49404806365037e-07 125000 -733.71223892379 0 0 119 (C1) n - 1
REM
REM in /home/bkarasulu/work/CARBON/AIRSS/Generating-Clusters/EDIP-Nigel-Params/with-SteepDescent/Only-C1/SD-CG/HFTN-CG
REM
REM
REM
REM
REM
REM ./C.cell (11c1c37f851c82e70ff6c80c92926a4b)
REM
REM compiler GCC version 9.2.1 20190827 (Red Hat 9.2.1-1)
REM options -cpp -mtune=generic -march=x86-64 -g -O0 -fpre-include=/usr/include/finclude/math-vector-fortran.h
REM seed -1685421129 1836817835 -787768053 -1096417400 18463912 -321928724 -1570654337 -1822552952 714816776 1472646238 -250944820 1559180861 -290386323 -1007243955 1514781259 -853626392 -1206296211 -1892535082 1537485671 -805324706 -1324989791 938856897 -1504062457 -274484898 -1421196137 -1617667262 -1584619753 -1449425038 -893328296 -2053677226 1010113453 -618842544 -179406564
REM
CELL 1.54180   50.00000   50.00000   50.00000   90.00000   90.00000   90.00000
LATT -1
SFAC C  
C      1  0.4865420000000  0.5479810000000  0.5809330000000 1.0
C      1  0.4702540000000  0.4577580000000  0.5800640000000 1.0
C      1  0.5028870000000  0.4170790000000  0.4551160000000 1.0
C      1  0.4877580000000  0.5976760000000  0.5289250000000 1.0
C      1  0.4182440000000  0.5454320000000  0.5331020000000 1.0
C      1  0.4091460000000  0.5173120000000  0.5257800000000 1.0
C      1  0.5251050000000  0.3881610000000  0.4930720000000 1.0
C      1  0.4641320000000  0.5845760000000  0.4884600000000 1.0
C      1  0.5557530000000  0.5133480000000  0.5231910000000 1.0
C      1  0.5690270000000  0.5112770000000  0.5696790000000 1.0
C      1  0.4688780000000  0.5568500000000  0.4798050000000 1.0
C      1  0.4624220000000  0.4621580000000  0.5325540000000 1.0
C      1  0.5862240000000  0.4633110000000  0.4957410000000 1.0
C      1  0.4621510000000  0.4126240000000  0.5389000000000 1.0
C      1  0.4944720000000  0.4607080000000  0.5290800000000 1.0
C      1  0.5355710000000  0.4985920000000  0.4582580000000 1.0
C      1  0.4420060000000  0.5847190000000  0.5084000000000 1.0
C      1  0.4294420000000  0.4573120000000  0.4467930000000 1.0
C      1  0.5235490000000  0.5216970000000  0.5625750000000 1.0
C      1  0.4500530000000  0.4614110000000  0.5595590000000 1.0
C      1  0.4910750000000  0.4515020000000  0.4144580000000 1.0
C      1  0.4669500000000  0.4847670000000  0.4928320000000 1.0
C      1  0.4426460000000  0.5150740000000  0.4494970000000 1.0
C      1  0.5052640000000  0.4743050000000  0.4006720000000 1.0
C      1  0.4803380000000  0.5038800000000  0.4782600000000 1.0
C      1  0.5039600000000  0.5883420000000  0.4664510000000 1.0
C      1  0.5860150000000  0.4398180000000  0.4806590000000 1.0
C      1  0.5060250000000  0.4310300000000  0.5270700000000 1.0
C      1  0.5246450000000  0.4483030000000  0.5653270000000 1.0
C      1  0.4040620000000  0.5193320000000  0.4976800000000 1.0
C      1  0.4897310000000  0.5753060000000  0.4424800000000 1.0
C      1  0.5117650000000  0.5389660000000  0.4540720000000 1.0
C      1  0.5388280000000  0.4289980000000  0.4810830000000 1.0
C      1  0.5145740000000  0.5460380000000  0.5740200000000 1.0
C      1  0.5270630000000  0.5533990000000  0.5043390000000 1.0
C      1  0.4703350000000  0.5239320000000  0.5765700000000 1.0
C      1  0.4632900000000  0.4516610000000  0.4144870000000 1.0
C      1  0.5120610000000  0.5112860000000  0.4446290000000 1.0
C      1  0.4603630000000  0.5353460000000  0.4083230000000 1.0
C      1  0.4513570000000  0.5739230000000  0.5580960000000 1.0
C      1  0.5850380000000  0.4549900000000  0.5243210000000 1.0
C      1  0.4618390000000  0.5377360000000  0.5276680000000 1.0
C      1  0.4522550000000  0.5393150000000  0.4352100000000 1.0
C      1  0.4266770000000  0.5581670000000  0.5063140000000 1.0
C      1  0.4480080000000  0.4684950000000  0.4298810000000 1.0
C      1  0.5345940000000  0.4847430000000  0.5074910000000 1.0
C      1  0.5535360000000  0.4632050000000  0.4531170000000 1.0
C      1  0.4782270000000  0.5750880000000  0.5720200000000 1.0
C      1  0.4197490000000  0.4664540000000  0.5153550000000 1.0
C      1  0.4448100000000  0.4980000000000  0.5867670000000 1.0
C      1  0.4445230000000  0.4479400000000  0.5134140000000 1.0
C      1  0.5010620000000  0.5466430000000  0.4815260000000 1.0
C      1  0.4653540000000  0.4006020000000  0.4844390000000 1.0
C      1  0.4148280000000  0.4534630000000  0.4687520000000 1.0
C      1  0.5779860000000  0.4279420000000  0.5283350000000 1.0
C      1  0.4491520000000  0.4181390000000  0.5143000000000 1.0
C      1  0.4874750000000  0.4198210000000  0.5480570000000 1.0
C      1  0.4958000000000  0.5030310000000  0.3997400000000 1.0
C      1  0.5327060000000  0.4353340000000  0.5390010000000 1.0
C      1  0.4832540000000  0.5596750000000  0.5261190000000 1.0
C      1  0.4775780000000  0.4031070000000  0.4582970000000 1.0
C      1  0.5253600000000  0.4064730000000  0.4716490000000 1.0
C      1  0.4874450000000  0.4939620000000  0.4519380000000 1.0
C      1  0.5844570000000  0.5181850000000  0.5161410000000 1.0
C      1  0.4654330000000  0.4802940000000  0.5981320000000 1.0
C      1  0.4971080000000  0.4671420000000  0.4598930000000 1.0
C      1  0.5763460000000  0.4830940000000  0.4498490000000 1.0
C      1  0.4583570000000  0.5890320000000  0.5329580000000 1.0
C      1  0.5847430000000  0.5155730000000  0.4863030000000 1.0
C      1  0.5904390000000  0.5490340000000  0.5145730000000 1.0
C      1  0.5439830000000  0.5034330000000  0.4145390000000 1.0
C      1  0.5751130000000  0.5679580000000  0.4723070000000 1.0
C      1  0.5452410000000  0.5776450000000  0.5072470000000 1.0
C      1  0.5140060000000  0.4853580000000  0.5278380000000 1.0
C      1  0.4330050000000  0.4850070000000  0.5626200000000 1.0
C      1  0.5511800000000  0.5256570000000  0.5517910000000 1.0
C      1  0.4609250000000  0.4951700000000  0.4345640000000 1.0
C      1  0.4487540000000  0.5393670000000  0.4965310000000 1.0
C      1  0.5352740000000  0.4549490000000  0.4316070000000 1.0
C      1  0.5427920000000  0.3977270000000  0.5118340000000 1.0
C      1  0.5612700000000  0.4394800000000  0.4678340000000 1.0
C      1  0.5067250000000  0.4462620000000  0.4402010000000 1.0
C      1  0.4894030000000  0.5981370000000  0.4903220000000 1.0
C      1  0.4426660000000  0.5460320000000  0.5502610000000 1.0
C      1  0.5013450000000  0.4667170000000  0.4901440000000 1.0
C      1  0.5232320000000  0.5655910000000  0.5536300000000 1.0
C      1  0.4029270000000  0.4972420000000  0.4808820000000 1.0
C      1  0.5880160000000  0.4875120000000  0.4772850000000 1.0
C      1  0.5908180000000  0.5474480000000  0.4836230000000 1.0
C      1  0.4612790000000  0.4888590000000  0.5204470000000 1.0
C      1  0.5336730000000  0.4766260000000  0.5664140000000 1.0
C      1  0.4378880000000  0.5134360000000  0.4802390000000 1.0
C      1  0.4741660000000  0.4291290000000  0.4867500000000 1.0
C      1  0.4940100000000  0.4416190000000  0.5687250000000 1.0
C      1  0.5624730000000  0.4842320000000  0.5643440000000 1.0
C      1  0.5017300000000  0.5132270000000  0.5249530000000 1.0
C      1  0.5111850000000  0.5487750000000  0.5297980000000 1.0
C      1  0.5596610000000  0.5060000000000  0.4410260000000 1.0
C      1  0.5010950000000  0.5172920000000  0.4931520000000 1.0
C      1  0.5448210000000  0.5294730000000  0.4995960000000 1.0
C      1  0.5789730000000  0.4716400000000  0.5457460000000 1.0
C      1  0.5069360000000  0.5542490000000  0.4299920000000 1.0
C      1  0.5335780000000  0.4748450000000  0.4098240000000 1.0
C      1  0.5672760000000  0.5683930000000  0.5267160000000 1.0
C      1  0.5147480000000  0.4977200000000  0.5746790000000 1.0
C      1  0.4199710000000  0.4905200000000  0.5353420000000 1.0
C      1  0.5540130000000  0.5568840000000  0.5509460000000 1.0
C      1  0.5319340000000  0.5907310000000  0.4649800000000 1.0
C      1  0.5546470000000  0.5853590000000  0.4805440000000 1.0
C      1  0.5029810000000  0.4360400000000  0.4951020000000 1.0
C      1  0.5298020000000  0.5066520000000  0.4878280000000 1.0
C      1  0.5007130000000  0.5879900000000  0.5550710000000 1.0
C      1  0.4745270000000  0.5106320000000  0.5354720000000 1.0
C      1  0.5527950000000  0.4157770000000  0.5313100000000 1.0
C      1  0.4072360000000  0.4705540000000  0.4892240000000 1.0
C      1  0.4639050000000  0.5612210000000  0.4508260000000 1.0
C      1  0.5166600000000  0.5194760000000  0.4148730000000 1.0
C      1  0.4847470000000  0.4980580000000  0.5704420000000 1.0
C      1  0.4678020000000  0.5080250000000  0.4080270000000 1.0
END
