TITL C-950534-5965-223 2.38254330456744e-05 125000 -590.158542872804 0 0 95 (C1) n - 1
REM
REM in /home/bkarasulu/work/CARBON/AIRSS/Generating-Clusters/EDIP-Nigel-Params/with-SteepDescent/Only-C1/SD-CG/HFTN-CG
REM
REM
REM
REM
REM
REM ./C.cell (11c1c37f851c82e70ff6c80c92926a4b)
REM
REM compiler GCC version 9.2.1 20190827 (Red Hat 9.2.1-1)
REM options -cpp -mtune=generic -march=x86-64 -g -O0 -fpre-include=/usr/include/finclude/math-vector-fortran.h
REM seed -1245769917 529384100 -567629395 1358495389 1764046924 788881465 190260782 -120434302 396563045 -1432054968 -1562592650 685675909 410278600 614289329 1951292858 -1043541034 -48889177 733502343 1175525508 -1508435532 -1641320358 -82826571 -1314955713 1716951882 -1419192981 -1450274806 -969227382 1011147783 1102188938 -144526056 -1428767719 70607583 1851947817
REM
CELL 1.54180   50.00000   50.00000   50.00000   90.00000   90.00000   90.00000
LATT -1
SFAC C  
C      1  0.5385310000000  0.4965400000000  0.4461080000000 1.0
C      1  0.5705730000000  0.4641050000000  0.5375600000000 1.0
C      1  0.5223240000000  0.4952870000000  0.4727270000000 1.0
C      1  0.4862580000000  0.4448200000000  0.5217840000000 1.0
C      1  0.4762500000000  0.4770210000000  0.4127780000000 1.0
C      1  0.5032630000000  0.4672280000000  0.5097890000000 1.0
C      1  0.4302600000000  0.4664750000000  0.4326210000000 1.0
C      1  0.4421770000000  0.4941710000000  0.4694290000000 1.0
C      1  0.5605840000000  0.5101950000000  0.5747580000000 1.0
C      1  0.5622530000000  0.4781570000000  0.4473950000000 1.0
C      1  0.5317700000000  0.5795420000000  0.5079380000000 1.0
C      1  0.4939100000000  0.4073250000000  0.4900710000000 1.0
C      1  0.5114000000000  0.5602300000000  0.4434400000000 1.0
C      1  0.4995550000000  0.4636060000000  0.4404030000000 1.0
C      1  0.4675550000000  0.3994640000000  0.4837620000000 1.0
C      1  0.5375290000000  0.5092510000000  0.4950810000000 1.0
C      1  0.4647210000000  0.4687260000000  0.5577460000000 1.0
C      1  0.4948890000000  0.4197880000000  0.4430660000000 1.0
C      1  0.4610130000000  0.5603910000000  0.4549270000000 1.0
C      1  0.4322900000000  0.5214700000000  0.4789990000000 1.0
C      1  0.5747110000000  0.5230260000000  0.4624780000000 1.0
C      1  0.4897910000000  0.4421140000000  0.4240010000000 1.0
C      1  0.5212830000000  0.4903260000000  0.4232520000000 1.0
C      1  0.5188610000000  0.4533190000000  0.5591440000000 1.0
C      1  0.4859790000000  0.5816760000000  0.5249880000000 1.0
C      1  0.4545980000000  0.5542450000000  0.4978840000000 1.0
C      1  0.5590220000000  0.4523820000000  0.4569840000000 1.0
C      1  0.5400500000000  0.4953600000000  0.5212160000000 1.0
C      1  0.4389670000000  0.5426520000000  0.4607670000000 1.0
C      1  0.4970220000000  0.5100040000000  0.4701230000000 1.0
C      1  0.4593690000000  0.4561520000000  0.5102870000000 1.0
C      1  0.4650720000000  0.5122760000000  0.5409190000000 1.0
C      1  0.4266560000000  0.5293090000000  0.5084700000000 1.0
C      1  0.3816730000000  0.4487390000000  0.4700440000000 1.0
C      1  0.5291460000000  0.4226440000000  0.5183370000000 1.0
C      1  0.5141260000000  0.4664030000000  0.4807210000000 1.0
C      1  0.5144080000000  0.5828780000000  0.5319350000000 1.0
C      1  0.4314840000000  0.5598570000000  0.5164820000000 1.0
C      1  0.5605700000000  0.5455380000000  0.5395980000000 1.0
C      1  0.5760470000000  0.5310360000000  0.4922580000000 1.0
C      1  0.4646290000000  0.4761360000000  0.4863660000000 1.0
C      1  0.4834920000000  0.5160290000000  0.4435960000000 1.0
C      1  0.5165630000000  0.5428640000000  0.5942570000000 1.0
C      1  0.4849940000000  0.5467690000000  0.4438500000000 1.0
C      1  0.5499490000000  0.5239530000000  0.4451420000000 1.0
C      1  0.3859170000000  0.4646880000000  0.4913610000000 1.0
C      1  0.5867550000000  0.5070810000000  0.5073220000000 1.0
C      1  0.4785820000000  0.5602940000000  0.5669460000000 1.0
C      1  0.4949760000000  0.5011310000000  0.4189940000000 1.0
C      1  0.5324870000000  0.4669600000000  0.5165210000000 1.0
C      1  0.4809230000000  0.5103690000000  0.4954310000000 1.0
C      1  0.5326690000000  0.5254810000000  0.5759850000000 1.0
C      1  0.4250270000000  0.4856790000000  0.5312060000000 1.0
C      1  0.4668970000000  0.5773940000000  0.5469010000000 1.0
C      1  0.5146210000000  0.5332000000000  0.5311490000000 1.0
C      1  0.5825820000000  0.4935120000000  0.4622900000000 1.0
C      1  0.4773720000000  0.5380600000000  0.5066450000000 1.0
C      1  0.4833290000000  0.5387050000000  0.5357620000000 1.0
C      1  0.4903270000000  0.5020440000000  0.5809080000000 1.0
C      1  0.5386930000000  0.4457320000000  0.5374990000000 1.0
C      1  0.4406010000000  0.5710970000000  0.5400900000000 1.0
C      1  0.4375730000000  0.5102240000000  0.5288450000000 1.0
C      1  0.4080280000000  0.4580370000000  0.4748760000000 1.0
C      1  0.5154620000000  0.5012870000000  0.5675170000000 1.0
C      1  0.5125920000000  0.5865670000000  0.4864600000000 1.0
C      1  0.5240900000000  0.5715740000000  0.5580100000000 1.0
C      1  0.5299620000000  0.4761340000000  0.5737460000000 1.0
C      1  0.4575930000000  0.3883000000000  0.4610810000000 1.0
C      1  0.5283260000000  0.5358710000000  0.5038380000000 1.0
C      1  0.5699910000000  0.4986130000000  0.5305090000000 1.0
C      1  0.5083030000000  0.4238330000000  0.4707520000000 1.0
C      1  0.4744450000000  0.4000950000000  0.4431530000000 1.0
C      1  0.5546640000000  0.5500450000000  0.5092520000000 1.0
C      1  0.5581610000000  0.4808710000000  0.5695620000000 1.0
C      1  0.4897960000000  0.4536450000000  0.5501890000000 1.0
C      1  0.5331580000000  0.4283390000000  0.4894080000000 1.0
C      1  0.5343300000000  0.5458060000000  0.4381340000000 1.0
C      1  0.4552380000000  0.5047020000000  0.4446670000000 1.0
C      1  0.5731780000000  0.5205930000000  0.5503910000000 1.0
C      1  0.5045170000000  0.5642750000000  0.5791490000000 1.0
C      1  0.4915910000000  0.4935710000000  0.5193580000000 1.0
C      1  0.4502940000000  0.4844420000000  0.4245650000000 1.0
C      1  0.5734780000000  0.4602130000000  0.5034440000000 1.0
C      1  0.4849410000000  0.5862890000000  0.4952280000000 1.0
C      1  0.4674850000000  0.4969880000000  0.5664050000000 1.0
C      1  0.5337960000000  0.5444620000000  0.5516830000000 1.0
C      1  0.5159580000000  0.5825610000000  0.4592180000000 1.0
C      1  0.5883830000000  0.4832770000000  0.4905120000000 1.0
C      1  0.4997570000000  0.4173330000000  0.5171470000000 1.0
C      1  0.4645890000000  0.5829340000000  0.4739600000000 1.0
C      1  0.4457530000000  0.4668620000000  0.5342540000000 1.0
C      1  0.5149500000000  0.5046920000000  0.5362520000000 1.0
C      1  0.4866540000000  0.4625720000000  0.4687720000000 1.0
C      1  0.4213970000000  0.4763970000000  0.4573700000000 1.0
C      1  0.5542410000000  0.4476960000000  0.4838030000000 1.0
END
