TITL C-950536-5891-685 -2.10413102089847e-06 125000 -274.945190935438 0 0 45 (C1) n - 1
REM
REM in /home/bkarasulu/work/CARBON/AIRSS/Generating-Clusters/EDIP-Nigel-Params/with-SteepDescent/Only-C1/SD-CG/HFTN-CG
REM
REM
REM
REM
REM
REM ./C.cell (11c1c37f851c82e70ff6c80c92926a4b)
REM
REM compiler GCC version 9.2.1 20190827 (Red Hat 9.2.1-1)
REM options -cpp -mtune=generic -march=x86-64 -g -O0 -fpre-include=/usr/include/finclude/math-vector-fortran.h
REM seed -1938063741 -762625165 1403985708 -940668153 -788052968 -318598313 -1825023832 544782824 -430264259 -376054930 1629261011 -1659531752 1854819953 1069932880 206273726 451131342 -5542162 1477137847 2099067423 -2126444420 -2141148849 -1406693579 -586280622 -1610707164 -115752449 -413545686 1851140857 -1195154965 -1587149718 1470605539 -1942959149 -2072270841 -1379703328
REM
CELL 1.54180   50.00000   50.00000   50.00000   90.00000   90.00000   90.00000
LATT -1
SFAC C  
C      1  0.5206260000000  0.4442560000000  0.4664570000000 1.0
C      1  0.4743680000000  0.5531820000000  0.5386540000000 1.0
C      1  0.5131150000000  0.5738120000000  0.4783010000000 1.0
C      1  0.5160020000000  0.5325250000000  0.5545070000000 1.0
C      1  0.5176060000000  0.4811810000000  0.5182400000000 1.0
C      1  0.4844110000000  0.5564610000000  0.5107390000000 1.0
C      1  0.4571060000000  0.5349240000000  0.4747720000000 1.0
C      1  0.4883390000000  0.5694190000000  0.4661480000000 1.0
C      1  0.4695100000000  0.5088750000000  0.4711140000000 1.0
C      1  0.5575820000000  0.5267550000000  0.4931460000000 1.0
C      1  0.5298070000000  0.5337540000000  0.5291620000000 1.0
C      1  0.5009960000000  0.4787350000000  0.4928740000000 1.0
C      1  0.4512210000000  0.4839700000000  0.4727400000000 1.0
C      1  0.5141470000000  0.5171440000000  0.4484860000000 1.0
C      1  0.5618210000000  0.4647370000000  0.5186910000000 1.0
C      1  0.5333630000000  0.5584970000000  0.5145870000000 1.0
C      1  0.5436140000000  0.5524110000000  0.4880550000000 1.0
C      1  0.4705930000000  0.5575040000000  0.4845660000000 1.0
C      1  0.5311110000000  0.4965270000000  0.4582180000000 1.0
C      1  0.4510470000000  0.5104810000000  0.5232560000000 1.0
C      1  0.4644670000000  0.4651010000000  0.4532560000000 1.0
C      1  0.4491540000000  0.4668840000000  0.4985520000000 1.0
C      1  0.5088210000000  0.5723360000000  0.5069970000000 1.0
C      1  0.4819030000000  0.5144140000000  0.5202860000000 1.0
C      1  0.5092090000000  0.5065620000000  0.5620660000000 1.0
C      1  0.5128180000000  0.4731950000000  0.4649420000000 1.0
C      1  0.4517720000000  0.4808190000000  0.5270600000000 1.0
C      1  0.5344500000000  0.4381300000000  0.4897270000000 1.0
C      1  0.5462470000000  0.4884320000000  0.5121040000000 1.0
C      1  0.4900980000000  0.4774520000000  0.4445060000000 1.0
C      1  0.4770990000000  0.4728330000000  0.5422050000000 1.0
C      1  0.5521910000000  0.5168790000000  0.5212910000000 1.0
C      1  0.5194700000000  0.4470160000000  0.5350540000000 1.0
C      1  0.4875000000000  0.5071080000000  0.4460080000000 1.0
C      1  0.4955530000000  0.5516790000000  0.5573250000000 1.0
C      1  0.4902120000000  0.4483910000000  0.5307390000000 1.0
C      1  0.4550080000000  0.5318570000000  0.5426280000000 1.0
C      1  0.4974440000000  0.4949050000000  0.5379590000000 1.0
C      1  0.4582760000000  0.4369650000000  0.4910630000000 1.0
C      1  0.4969960000000  0.4299050000000  0.4620200000000 1.0
C      1  0.4831800000000  0.4546210000000  0.5022080000000 1.0
C      1  0.4695260000000  0.4370840000000  0.4636450000000 1.0
C      1  0.4882460000000  0.5050840000000  0.4929750000000 1.0
C      1  0.5522060000000  0.5027600000000  0.4767140000000 1.0
C      1  0.5417670000000  0.4444370000000  0.5159570000000 1.0
END
