TITL C-950524-1808-625 1.29980649758862e-06 125000 -617.637340942718 0 0 102 (C1) n - 1
REM
REM in /home/bkarasulu/work/CARBON/AIRSS/Generating-Clusters/EDIP-Nigel-Params/with-SteepDescent/Only-C1/SD-CG/HFTN-CG
REM
REM
REM
REM
REM
REM ./C.cell (11c1c37f851c82e70ff6c80c92926a4b)
REM
REM compiler GCC version 9.2.1 20190827 (Red Hat 9.2.1-1)
REM options -cpp -mtune=generic -march=x86-64 -g -O0 -fpre-include=/usr/include/finclude/math-vector-fortran.h
REM seed 343931116 2112274224 -1637298151 1345403323 1863724719 -532142337 468759929 697568982 -989273973 -1944164986 -778705020 -1910066232 -216067840 2112414743 356895124 -335108333 1288979169 1438290557 1803041981 473975107 367406173 -1460299508 -810528487 -108305755 -1453113276 983249896 769867975 -91852008 -1544547540 -644460539 399306873 -1819919771 58592612
REM
CELL 1.54180   50.00000   50.00000   50.00000   90.00000   90.00000   90.00000
LATT -1
SFAC C  
C      1  0.4595190000000  0.4770150000000  0.4192340000000 1.0
C      1  0.5297360000000  0.5551080000000  0.4953130000000 1.0
C      1  0.5042840000000  0.4325280000000  0.4717960000000 1.0
C      1  0.4619830000000  0.4371230000000  0.5611860000000 1.0
C      1  0.5032420000000  0.5947470000000  0.5275840000000 1.0
C      1  0.5696000000000  0.4478470000000  0.4779690000000 1.0
C      1  0.4959040000000  0.4921720000000  0.5783380000000 1.0
C      1  0.4715700000000  0.5168210000000  0.4415920000000 1.0
C      1  0.4215010000000  0.5145550000000  0.5466520000000 1.0
C      1  0.5110620000000  0.4726440000000  0.5317930000000 1.0
C      1  0.4575460000000  0.4979220000000  0.4852250000000 1.0
C      1  0.5610140000000  0.4500370000000  0.5276370000000 1.0
C      1  0.5617300000000  0.5207350000000  0.5386640000000 1.0
C      1  0.5486020000000  0.4924420000000  0.4683690000000 1.0
C      1  0.5112120000000  0.4821450000000  0.5032220000000 1.0
C      1  0.5057260000000  0.5627800000000  0.5714430000000 1.0
C      1  0.6113170000000  0.5312280000000  0.4883490000000 1.0
C      1  0.5129350000000  0.4360770000000  0.5603400000000 1.0
C      1  0.5034450000000  0.4739680000000  0.4148290000000 1.0
C      1  0.4597890000000  0.4444890000000  0.5312180000000 1.0
C      1  0.4984690000000  0.5620600000000  0.4280890000000 1.0
C      1  0.4654830000000  0.5689350000000  0.5139620000000 1.0
C      1  0.5304190000000  0.5941700000000  0.5166040000000 1.0
C      1  0.4599960000000  0.5412680000000  0.4536510000000 1.0
C      1  0.5131130000000  0.4421100000000  0.5308550000000 1.0
C      1  0.5304900000000  0.5264540000000  0.4896140000000 1.0
C      1  0.5499450000000  0.4933860000000  0.4158440000000 1.0
C      1  0.4333790000000  0.4586990000000  0.4704810000000 1.0
C      1  0.5243820000000  0.5981240000000  0.4860180000000 1.0
C      1  0.4968120000000  0.5067570000000  0.4587230000000 1.0
C      1  0.5395630000000  0.4334110000000  0.5184220000000 1.0
C      1  0.5361940000000  0.5734100000000  0.4728910000000 1.0
C      1  0.4878250000000  0.4494940000000  0.5693940000000 1.0
C      1  0.5323600000000  0.4707360000000  0.4844810000000 1.0
C      1  0.5708460000000  0.4617080000000  0.5033000000000 1.0
C      1  0.5770470000000  0.5034510000000  0.4727620000000 1.0
C      1  0.4550790000000  0.5468470000000  0.5316550000000 1.0
C      1  0.5338970000000  0.5244750000000  0.5841070000000 1.0
C      1  0.4595350000000  0.5255890000000  0.5793840000000 1.0
C      1  0.4517890000000  0.4158890000000  0.4927580000000 1.0
C      1  0.4774400000000  0.4638620000000  0.4408770000000 1.0
C      1  0.4984810000000  0.4039550000000  0.4832950000000 1.0
C      1  0.5546600000000  0.4641580000000  0.5536170000000 1.0
C      1  0.4856320000000  0.5176110000000  0.5448860000000 1.0
C      1  0.4398090000000  0.4843260000000  0.5088590000000 1.0
C      1  0.4836350000000  0.5240900000000  0.4972260000000 1.0
C      1  0.4264980000000  0.4583520000000  0.4990730000000 1.0
C      1  0.5375280000000  0.4466280000000  0.5700190000000 1.0
C      1  0.4756390000000  0.5811080000000  0.4723510000000 1.0
C      1  0.5321320000000  0.5639320000000  0.4459560000000 1.0
C      1  0.4577070000000  0.4395630000000  0.4733440000000 1.0
C      1  0.5450270000000  0.5657980000000  0.5196620000000 1.0
C      1  0.5274720000000  0.5158310000000  0.4622860000000 1.0
C      1  0.4949750000000  0.5954940000000  0.4901690000000 1.0
C      1  0.4911470000000  0.4177750000000  0.4487180000000 1.0
C      1  0.4179020000000  0.5047480000000  0.5159730000000 1.0
C      1  0.4267650000000  0.4676430000000  0.5505860000000 1.0
C      1  0.4431200000000  0.5055540000000  0.5657630000000 1.0
C      1  0.5054400000000  0.5514420000000  0.5316230000000 1.0
C      1  0.4684400000000  0.4347910000000  0.4454450000000 1.0
C      1  0.4387650000000  0.4877380000000  0.4638140000000 1.0
C      1  0.4529620000000  0.5692240000000  0.4877410000000 1.0
C      1  0.5128760000000  0.5217110000000  0.5335710000000 1.0
C      1  0.5208060000000  0.5040540000000  0.5683180000000 1.0
C      1  0.4672110000000  0.5203430000000  0.5217340000000 1.0
C      1  0.5303360000000  0.5256490000000  0.4158550000000 1.0
C      1  0.4802460000000  0.5197520000000  0.4128540000000 1.0
C      1  0.4736050000000  0.5439460000000  0.5602420000000 1.0
C      1  0.4429560000000  0.4812210000000  0.5827910000000 1.0
C      1  0.5719090000000  0.4964820000000  0.5537990000000 1.0
C      1  0.5630460000000  0.4632990000000  0.4509960000000 1.0
C      1  0.4488630000000  0.4971580000000  0.4377260000000 1.0
C      1  0.5037520000000  0.5384390000000  0.4102860000000 1.0
C      1  0.4838660000000  0.4509570000000  0.4868800000000 1.0
C      1  0.4230880000000  0.5315080000000  0.4987430000000 1.0
C      1  0.5305170000000  0.5472250000000  0.5678460000000 1.0
C      1  0.4799110000000  0.5617550000000  0.4507200000000 1.0
C      1  0.4822750000000  0.4822300000000  0.4701540000000 1.0
C      1  0.5379440000000  0.5356490000000  0.4418140000000 1.0
C      1  0.4852090000000  0.4366890000000  0.5153140000000 1.0
C      1  0.4523030000000  0.4748750000000  0.5351380000000 1.0
C      1  0.4375630000000  0.4335760000000  0.5129830000000 1.0
C      1  0.4787480000000  0.5098360000000  0.5922180000000 1.0
C      1  0.4952390000000  0.5819740000000  0.5523930000000 1.0
C      1  0.4819710000000  0.4905690000000  0.4031100000000 1.0
C      1  0.5474580000000  0.5465700000000  0.5435220000000 1.0
C      1  0.4385610000000  0.4527530000000  0.5732660000000 1.0
C      1  0.5319190000000  0.4703610000000  0.4157980000000 1.0
C      1  0.4464410000000  0.5406960000000  0.4807990000000 1.0
C      1  0.5448250000000  0.4342440000000  0.4893800000000 1.0
C      1  0.4862650000000  0.4757710000000  0.5538280000000 1.0
C      1  0.5832410000000  0.5142660000000  0.5211070000000 1.0
C      1  0.5195020000000  0.4562370000000  0.4609650000000 1.0
C      1  0.5878460000000  0.5202110000000  0.4936640000000 1.0
C      1  0.5105140000000  0.5118180000000  0.5051600000000 1.0
C      1  0.4916670000000  0.5549070000000  0.5040500000000 1.0
C      1  0.4790320000000  0.4083780000000  0.5044480000000 1.0
C      1  0.5874640000000  0.5057320000000  0.4467780000000 1.0
C      1  0.4254100000000  0.5408330000000  0.5294400000000 1.0
C      1  0.5732780000000  0.4860840000000  0.4322990000000 1.0
C      1  0.5382490000000  0.4526410000000  0.4386780000000 1.0
C      1  0.5345720000000  0.4866240000000  0.5463000000000 1.0
END
