TITL C-951344-124-105 9.24298972672213e-07 125000 -228.220695614563 0 0 39 (C1) n - 1
REM
REM in /home/bkarasulu/work/CARBON/AIRSS/Generating-Clusters/EDIP-Nigel-Params/with-SteepDescent/Only-C1/SD-CG/HFTN-CG
REM
REM
REM
REM
REM
REM ./C.cell (11c1c37f851c82e70ff6c80c92926a4b)
REM
REM compiler GCC version 9.2.1 20190827 (Red Hat 9.2.1-1)
REM options -cpp -mtune=generic -march=x86-64 -g -O0 -fpre-include=/usr/include/finclude/math-vector-fortran.h
REM seed -279131701 -1089130426 952910199 -723582878 239464657 1723803253 646091535 1396119988 -7230598 -103714681 -404605922 627714083 1293236662 1094790713 -1802147564 -1977541994 873843398 1540791976 1157308367 -73498455 1940821229 120895399 -1927917767 -364756533 555104490 1981677760 -1920814836 -1441425986 1157145321 315146851 -1615292019 -920121463 -1864714620
REM
CELL 1.54180   50.00000   50.00000   50.00000   90.00000   90.00000   90.00000
LATT -1
SFAC C  
C      1  0.4896390000000  0.4639180000000  0.4548430000000 1.0
C      1  0.4922880000000  0.5279790000000  0.4662790000000 1.0
C      1  0.4493650000000  0.4905760000000  0.5359290000000 1.0
C      1  0.5224860000000  0.4872130000000  0.5556240000000 1.0
C      1  0.4792360000000  0.4534260000000  0.5302540000000 1.0
C      1  0.5069300000000  0.4398960000000  0.4934030000000 1.0
C      1  0.5178370000000  0.4810470000000  0.4540310000000 1.0
C      1  0.5344860000000  0.4431570000000  0.4880280000000 1.0
C      1  0.5271890000000  0.5727010000000  0.4730230000000 1.0
C      1  0.5549200000000  0.5098570000000  0.4911940000000 1.0
C      1  0.4567330000000  0.4513890000000  0.5100620000000 1.0
C      1  0.4727670000000  0.4763050000000  0.5493730000000 1.0
C      1  0.5464360000000  0.4993950000000  0.5615590000000 1.0
C      1  0.4966110000000  0.4870160000000  0.5034350000000 1.0
C      1  0.5031520000000  0.5840630000000  0.4804540000000 1.0
C      1  0.5514780000000  0.5453540000000  0.5072480000000 1.0
C      1  0.4418360000000  0.5311270000000  0.5114190000000 1.0
C      1  0.4654410000000  0.5157670000000  0.4629050000000 1.0
C      1  0.4426000000000  0.4779240000000  0.5095180000000 1.0
C      1  0.4759230000000  0.4404190000000  0.4618660000000 1.0
C      1  0.5426000000000  0.5238280000000  0.4692790000000 1.0
C      1  0.5561660000000  0.4812300000000  0.4915700000000 1.0
C      1  0.4958320000000  0.4968350000000  0.5503350000000 1.0
C      1  0.5049080000000  0.4607210000000  0.5147450000000 1.0
C      1  0.5434370000000  0.4612530000000  0.5111400000000 1.0
C      1  0.4631180000000  0.4389960000000  0.4856760000000 1.0
C      1  0.4974550000000  0.5466780000000  0.4896110000000 1.0
C      1  0.5323820000000  0.5307370000000  0.5231030000000 1.0
C      1  0.4809930000000  0.5706760000000  0.4904500000000 1.0
C      1  0.5416190000000  0.4665860000000  0.4679520000000 1.0
C      1  0.5376500000000  0.5227020000000  0.5500740000000 1.0
C      1  0.5448370000000  0.5516920000000  0.4794780000000 1.0
C      1  0.4890820000000  0.5096710000000  0.5233440000000 1.0
C      1  0.4295610000000  0.5116430000000  0.4961020000000 1.0
C      1  0.5045500000000  0.5342110000000  0.5165620000000 1.0
C      1  0.4593970000000  0.5170530000000  0.5284030000000 1.0
C      1  0.4459860000000  0.4990150000000  0.4769240000000 1.0
C      1  0.5169940000000  0.5122390000000  0.4590000000000 1.0
C      1  0.4860800000000  0.4857060000000  0.4758060000000 1.0
END
