TITL C-950532-2784-553 9.79212234972946e-07 125000 -303.053361346986 0 0 51 (C1) n - 1
REM
REM in /home/bkarasulu/work/CARBON/AIRSS/Generating-Clusters/EDIP-Nigel-Params/with-SteepDescent/Only-C1/SD-CG/HFTN-CG
REM
REM
REM
REM
REM
REM ./C.cell (11c1c37f851c82e70ff6c80c92926a4b)
REM
REM compiler GCC version 9.2.1 20190827 (Red Hat 9.2.1-1)
REM options -cpp -mtune=generic -march=x86-64 -g -O0 -fpre-include=/usr/include/finclude/math-vector-fortran.h
REM seed 177684293 923217160 654099741 -1529931054 750130781 -175230767 -280297784 -2104627510 149612351 -1157662361 1988438546 728760440 477797643 739738393 -1373536082 -1101947742 -1972810539 -2052362429 -969610612 1590119745 -229315435 1394471580 -1640203899 -891021666 637176257 2032453347 -396477865 267818583 384795630 1225451352 929182955 1142034630 -865963822
REM
CELL 1.54180   50.00000   50.00000   50.00000   90.00000   90.00000   90.00000
LATT -1
SFAC C  
C      1  0.5309100000000  0.5410420000000  0.4590330000000 1.0
C      1  0.4170630000000  0.4779220000000  0.5078120000000 1.0
C      1  0.4913010000000  0.5529680000000  0.5428600000000 1.0
C      1  0.5401150000000  0.5559360000000  0.4827670000000 1.0
C      1  0.5000120000000  0.5051630000000  0.4810120000000 1.0
C      1  0.4829960000000  0.5336100000000  0.5216630000000 1.0
C      1  0.5392780000000  0.4488020000000  0.5033850000000 1.0
C      1  0.4488310000000  0.5148120000000  0.4514660000000 1.0
C      1  0.4929770000000  0.4412440000000  0.4968170000000 1.0
C      1  0.4225750000000  0.5112410000000  0.4628940000000 1.0
C      1  0.5101310000000  0.4437690000000  0.5435030000000 1.0
C      1  0.5084920000000  0.5369450000000  0.5600070000000 1.0
C      1  0.5153800000000  0.5578720000000  0.4969810000000 1.0
C      1  0.4648480000000  0.4897930000000  0.4522740000000 1.0
C      1  0.5024310000000  0.5283050000000  0.4610270000000 1.0
C      1  0.5362820000000  0.5346160000000  0.5517910000000 1.0
C      1  0.4865800000000  0.4802830000000  0.5294960000000 1.0
C      1  0.4698070000000  0.5466640000000  0.4951960000000 1.0
C      1  0.4451960000000  0.5050740000000  0.5379540000000 1.0
C      1  0.5082460000000  0.5079940000000  0.4374170000000 1.0
C      1  0.5601780000000  0.5338250000000  0.5043990000000 1.0
C      1  0.4925520000000  0.5533790000000  0.4781560000000 1.0
C      1  0.5374650000000  0.4488470000000  0.4734360000000 1.0
C      1  0.5209950000000  0.5077800000000  0.5011280000000 1.0
C      1  0.5156520000000  0.4636270000000  0.4609740000000 1.0
C      1  0.5073150000000  0.4865260000000  0.5687930000000 1.0
C      1  0.4745570000000  0.4870020000000  0.4806870000000 1.0
C      1  0.4363510000000  0.4769030000000  0.5296830000000 1.0
C      1  0.5200340000000  0.4837850000000  0.5205060000000 1.0
C      1  0.4883810000000  0.4860080000000  0.4339070000000 1.0
C      1  0.5644800000000  0.4863280000000  0.4870160000000 1.0
C      1  0.5140400000000  0.4404540000000  0.5155670000000 1.0
C      1  0.4393620000000  0.5215250000000  0.5144560000000 1.0
C      1  0.4228540000000  0.4875770000000  0.4809710000000 1.0
C      1  0.4934860000000  0.4641760000000  0.5538950000000 1.0
C      1  0.5277380000000  0.4916460000000  0.5487870000000 1.0
C      1  0.5538120000000  0.5230570000000  0.5316780000000 1.0
C      1  0.4714210000000  0.4587920000000  0.4935180000000 1.0
C      1  0.4440780000000  0.5385860000000  0.4799890000000 1.0
C      1  0.4755140000000  0.5073540000000  0.5388720000000 1.0
C      1  0.5496620000000  0.5115440000000  0.4867280000000 1.0
C      1  0.5357100000000  0.4977240000000  0.4408750000000 1.0
C      1  0.5627590000000  0.4947320000000  0.5345980000000 1.0
C      1  0.5484150000000  0.5182630000000  0.4570130000000 1.0
C      1  0.4630140000000  0.4635580000000  0.5213130000000 1.0
C      1  0.4914140000000  0.5118150000000  0.5650670000000 1.0
C      1  0.4493110000000  0.4996580000000  0.4943620000000 1.0
C      1  0.5568220000000  0.4739380000000  0.5123960000000 1.0
C      1  0.5016390000000  0.4608090000000  0.4370520000000 1.0
C      1  0.5138710000000  0.5344380000000  0.5159100000000 1.0
C      1  0.5536670000000  0.4722850000000  0.4629090000000 1.0
END
