TITL C-950535-5962-764 3.20818292993304e-06 125000 -1077.98816991514 0 0 169 (C1) n - 1
REM
REM in /home/bkarasulu/work/CARBON/AIRSS/Generating-Clusters/EDIP-Nigel-Params/with-SteepDescent/Only-C1/SD-CG/HFTN-CG
REM
REM
REM
REM
REM
REM ./C.cell (11c1c37f851c82e70ff6c80c92926a4b)
REM
REM compiler GCC version 9.2.1 20190827 (Red Hat 9.2.1-1)
REM options -cpp -mtune=generic -march=x86-64 -g -O0 -fpre-include=/usr/include/finclude/math-vector-fortran.h
REM seed 1944039386 -2057682623 -1936087029 1152314396 505142498 -284238075 -1321078047 316344126 -710817190 1690495746 1320915335 1621886075 441691221 1485071286 702685619 2126526481 489728990 301152716 971326126 241582567 492167900 -694935498 -689355654 1553628557 407064479 -1287721050 539479579 -1424200272 -1122782864 -642143667 -1296274066 -1597372466 692101287
REM
CELL 1.54180   50.00000   50.00000   50.00000   90.00000   90.00000   90.00000
LATT -1
SFAC C  
C      1  0.5042890000000  0.5642170000000  0.5886890000000 1.0
C      1  0.4532230000000  0.4710810000000  0.5899920000000 1.0
C      1  0.4949320000000  0.5625780000000  0.4670850000000 1.0
C      1  0.4931560000000  0.5141660000000  0.4812230000000 1.0
C      1  0.5880660000000  0.5536770000000  0.4718340000000 1.0
C      1  0.5357550000000  0.4725500000000  0.4618240000000 1.0
C      1  0.5533850000000  0.4103260000000  0.5379600000000 1.0
C      1  0.4786150000000  0.4579240000000  0.5957950000000 1.0
C      1  0.4988510000000  0.4351750000000  0.5403880000000 1.0
C      1  0.5218390000000  0.5906450000000  0.5189220000000 1.0
C      1  0.4655670000000  0.5849310000000  0.4427380000000 1.0
C      1  0.5036100000000  0.3928760000000  0.5142300000000 1.0
C      1  0.4917400000000  0.4405190000000  0.4356900000000 1.0
C      1  0.5377730000000  0.4619270000000  0.5118970000000 1.0
C      1  0.5242840000000  0.5904480000000  0.4528680000000 1.0
C      1  0.5456780000000  0.5094510000000  0.4181830000000 1.0
C      1  0.4364710000000  0.5810610000000  0.4419340000000 1.0
C      1  0.4512590000000  0.4657890000000  0.4956200000000 1.0
C      1  0.5502840000000  0.5278900000000  0.5374830000000 1.0
C      1  0.6025530000000  0.5518610000000  0.5179910000000 1.0
C      1  0.5917880000000  0.4570330000000  0.5119930000000 1.0
C      1  0.4372920000000  0.5225060000000  0.5605800000000 1.0
C      1  0.5272170000000  0.4931500000000  0.4039540000000 1.0
C      1  0.5810630000000  0.4474990000000  0.4864680000000 1.0
C      1  0.5975990000000  0.4954540000000  0.4680040000000 1.0
C      1  0.4118330000000  0.4367160000000  0.4939710000000 1.0
C      1  0.5004730000000  0.6011120000000  0.4721780000000 1.0
C      1  0.5135810000000  0.5305760000000  0.4932920000000 1.0
C      1  0.4920900000000  0.4051280000000  0.5409810000000 1.0
C      1  0.4952980000000  0.4418040000000  0.4943300000000 1.0
C      1  0.5854600000000  0.5107180000000  0.4457390000000 1.0
C      1  0.5316650000000  0.4359210000000  0.5783800000000 1.0
C      1  0.5526660000000  0.5540160000000  0.5898700000000 1.0
C      1  0.4478730000000  0.6043960000000  0.5081080000000 1.0
C      1  0.5880310000000  0.5542390000000  0.5420820000000 1.0
C      1  0.4120830000000  0.5178000000000  0.4113980000000 1.0
C      1  0.4740380000000  0.5934120000000  0.5149230000000 1.0
C      1  0.4249020000000  0.4486330000000  0.5507650000000 1.0
C      1  0.4792290000000  0.5227600000000  0.5308800000000 1.0
C      1  0.4951280000000  0.5154150000000  0.4522120000000 1.0
C      1  0.4800220000000  0.4898250000000  0.4419240000000 1.0
C      1  0.4022990000000  0.4861470000000  0.4774510000000 1.0
C      1  0.4891690000000  0.3965340000000  0.4868390000000 1.0
C      1  0.4595990000000  0.4027740000000  0.4823080000000 1.0
C      1  0.4620920000000  0.4350040000000  0.4376470000000 1.0
C      1  0.4684760000000  0.5225560000000  0.5596740000000 1.0
C      1  0.4805450000000  0.5418030000000  0.4466030000000 1.0
C      1  0.4509970000000  0.4999090000000  0.5963530000000 1.0
C      1  0.5138900000000  0.5786950000000  0.4278940000000 1.0
C      1  0.4244660000000  0.4598090000000  0.5086450000000 1.0
C      1  0.4267950000000  0.5898500000000  0.5201920000000 1.0
C      1  0.5538860000000  0.4320570000000  0.5585110000000 1.0
C      1  0.4368400000000  0.5524330000000  0.5515800000000 1.0
C      1  0.5235010000000  0.5494750000000  0.4702510000000 1.0
C      1  0.5510680000000  0.4843430000000  0.5615110000000 1.0
C      1  0.4621870000000  0.4027840000000  0.5486930000000 1.0
C      1  0.5800790000000  0.4120320000000  0.5235980000000 1.0
C      1  0.5521320000000  0.5790250000000  0.4546100000000 1.0
C      1  0.5021260000000  0.4195620000000  0.4741200000000 1.0
C      1  0.5687720000000  0.5754050000000  0.4796910000000 1.0
C      1  0.4520970000000  0.5384750000000  0.4578040000000 1.0
C      1  0.4735850000000  0.4966640000000  0.5179480000000 1.0
C      1  0.5939020000000  0.5042200000000  0.5508950000000 1.0
C      1  0.5483860000000  0.5701230000000  0.5656050000000 1.0
C      1  0.5230670000000  0.4662500000000  0.4140330000000 1.0
C      1  0.5075800000000  0.3947320000000  0.5636590000000 1.0
C      1  0.5212640000000  0.5185520000000  0.5905470000000 1.0
C      1  0.4722740000000  0.6049240000000  0.4618230000000 1.0
C      1  0.5272420000000  0.5210340000000  0.4492680000000 1.0
C      1  0.5117380000000  0.5157640000000  0.5605100000000 1.0
C      1  0.4790440000000  0.4922130000000  0.4093050000000 1.0
C      1  0.4291050000000  0.5427730000000  0.4147920000000 1.0
C      1  0.5817610000000  0.5035730000000  0.5080700000000 1.0
C      1  0.5772610000000  0.4782830000000  0.5498770000000 1.0
C      1  0.5171290000000  0.4385230000000  0.5162480000000 1.0
C      1  0.5770200000000  0.5388240000000  0.4494050000000 1.0
C      1  0.5522860000000  0.4774120000000  0.5909460000000 1.0
C      1  0.4780210000000  0.5853070000000  0.5431240000000 1.0
C      1  0.5766640000000  0.5287950000000  0.5554740000000 1.0
C      1  0.4025630000000  0.5048690000000  0.4371300000000 1.0
C      1  0.4819160000000  0.4288380000000  0.5886590000000 1.0
C      1  0.5641450000000  0.5712560000000  0.5407390000000 1.0
C      1  0.5034890000000  0.5079960000000  0.4008190000000 1.0
C      1  0.5089200000000  0.4182060000000  0.4432430000000 1.0
C      1  0.5729140000000  0.4770010000000  0.5203680000000 1.0
C      1  0.5491770000000  0.5076340000000  0.5929740000000 1.0
C      1  0.4022870000000  0.5478950000000  0.5124180000000 1.0
C      1  0.4466780000000  0.6078470000000  0.4787390000000 1.0
C      1  0.4068960000000  0.4839750000000  0.5057030000000 1.0
C      1  0.6034610000000  0.5403310000000  0.4922940000000 1.0
C      1  0.5365400000000  0.5104990000000  0.4958890000000 1.0
C      1  0.5798280000000  0.4476240000000  0.5570820000000 1.0
C      1  0.4987100000000  0.4670940000000  0.4510860000000 1.0
C      1  0.4989160000000  0.5427440000000  0.5186930000000 1.0
C      1  0.5199340000000  0.5756580000000  0.5664970000000 1.0
C      1  0.5284790000000  0.5538360000000  0.4202820000000 1.0
C      1  0.4219360000000  0.4368690000000  0.4669550000000 1.0
C      1  0.5918740000000  0.4562510000000  0.4399990000000 1.0
C      1  0.4624910000000  0.5657620000000  0.5599480000000 1.0
C      1  0.4529380000000  0.5481880000000  0.4881040000000 1.0
C      1  0.4291050000000  0.5529540000000  0.4420730000000 1.0
C      1  0.4299160000000  0.4969890000000  0.3980860000000 1.0
C      1  0.5409810000000  0.5013690000000  0.4675400000000 1.0
C      1  0.4518140000000  0.4471750000000  0.5618970000000 1.0
C      1  0.4209470000000  0.5082970000000  0.5156110000000 1.0
C      1  0.4508120000000  0.4798180000000  0.4650890000000 1.0
C      1  0.4204780000000  0.5639260000000  0.5295670000000 1.0
C      1  0.5320250000000  0.4094700000000  0.5148480000000 1.0
C      1  0.4568810000000  0.5086110000000  0.3988720000000 1.0
C      1  0.5684050000000  0.5296550000000  0.5845290000000 1.0
C      1  0.4438980000000  0.3942420000000  0.5036930000000 1.0
C      1  0.5423320000000  0.4573080000000  0.4348780000000 1.0
C      1  0.4811340000000  0.5512510000000  0.4085040000000 1.0
C      1  0.4805420000000  0.5607980000000  0.4951530000000 1.0
C      1  0.4292610000000  0.5157970000000  0.5878700000000 1.0
C      1  0.4574030000000  0.4196880000000  0.5729010000000 1.0
C      1  0.4282380000000  0.4712200000000  0.4129580000000 1.0
C      1  0.4796960000000  0.4794340000000  0.5410610000000 1.0
C      1  0.4490940000000  0.4247560000000  0.4629020000000 1.0
C      1  0.4031710000000  0.5416230000000  0.4827040000000 1.0
C      1  0.4209420000000  0.4672950000000  0.4608260000000 1.0
C      1  0.5014830000000  0.4759830000000  0.5898190000000 1.0
C      1  0.5698400000000  0.4667270000000  0.4268090000000 1.0
C      1  0.4846970000000  0.5776070000000  0.4220590000000 1.0
C      1  0.4199450000000  0.4277150000000  0.5305180000000 1.0
C      1  0.4260590000000  0.5890210000000  0.4680790000000 1.0
C      1  0.4166990000000  0.4751600000000  0.5481980000000 1.0
C      1  0.5499000000000  0.5562280000000  0.4941560000000 1.0
C      1  0.5085290000000  0.4180300000000  0.5800520000000 1.0
C      1  0.4964760000000  0.4890760000000  0.5625300000000 1.0
C      1  0.4992740000000  0.4495190000000  0.4082890000000 1.0
C      1  0.6060350000000  0.5087910000000  0.5252770000000 1.0
C      1  0.4107580000000  0.5132850000000  0.4670160000000 1.0
C      1  0.4263100000000  0.5635560000000  0.4862350000000 1.0
C      1  0.4250920000000  0.5015140000000  0.5427070000000 1.0
C      1  0.5773640000000  0.4150900000000  0.4938050000000 1.0
C      1  0.4094870000000  0.4754880000000  0.4347870000000 1.0
C      1  0.5487490000000  0.4549590000000  0.4839590000000 1.0
C      1  0.5060480000000  0.5357450000000  0.4106960000000 1.0
C      1  0.4956620000000  0.4900960000000  0.4981060000000 1.0
C      1  0.5506830000000  0.5803880000000  0.5142710000000 1.0
C      1  0.5246970000000  0.4895500000000  0.5146480000000 1.0
C      1  0.5381570000000  0.4274210000000  0.4431740000000 1.0
C      1  0.5004970000000  0.5022680000000  0.6048290000000 1.0
C      1  0.4776640000000  0.5523010000000  0.5826580000000 1.0
C      1  0.5942900000000  0.4365550000000  0.5334330000000 1.0
C      1  0.5342210000000  0.5026610000000  0.5435470000000 1.0
C      1  0.5285000000000  0.4610070000000  0.5932340000000 1.0
C      1  0.5535270000000  0.5542360000000  0.4382470000000 1.0
C      1  0.4526570000000  0.4541790000000  0.4160910000000 1.0
C      1  0.6137070000000  0.5122970000000  0.4872070000000 1.0
C      1  0.4405570000000  0.4061920000000  0.5286230000000 1.0
C      1  0.5970310000000  0.4650200000000  0.4658080000000 1.0
C      1  0.4754660000000  0.5163570000000  0.5973890000000 1.0
C      1  0.5701900000000  0.4962900000000  0.4255170000000 1.0
C      1  0.4470730000000  0.5140590000000  0.5014880000000 1.0
C      1  0.4736200000000  0.4513480000000  0.5382400000000 1.0
C      1  0.4963190000000  0.4664200000000  0.4804400000000 1.0
C      1  0.5210140000000  0.5451050000000  0.5420610000000 1.0
C      1  0.5591270000000  0.5259720000000  0.5084630000000 1.0
C      1  0.4415880000000  0.5092890000000  0.4703650000000 1.0
C      1  0.4564980000000  0.5345530000000  0.4104410000000 1.0
C      1  0.5071280000000  0.5865190000000  0.5437340000000 1.0
C      1  0.4687010000000  0.4459670000000  0.5085080000000 1.0
C      1  0.5247420000000  0.5467150000000  0.6003520000000 1.0
C      1  0.5496950000000  0.4061200000000  0.4896500000000 1.0
C      1  0.5381930000000  0.4277480000000  0.4744750000000 1.0
C      1  0.4754730000000  0.4640840000000  0.3993120000000 1.0
C      1  0.5004020000000  0.5998940000000  0.5016330000000 1.0
END
