TITL C-951336-9012-695 -2.22828866305661e-06 125000 -760.960940689633 0 0 121 (C1) n - 1
REM
REM in /home/bkarasulu/work/CARBON/AIRSS/Generating-Clusters/EDIP-Nigel-Params/with-SteepDescent/Only-C1/SD-CG/HFTN-CG
REM
REM
REM
REM
REM
REM ./C.cell (11c1c37f851c82e70ff6c80c92926a4b)
REM
REM compiler GCC version 9.2.1 20190827 (Red Hat 9.2.1-1)
REM options -cpp -mtune=generic -march=x86-64 -g -O0 -fpre-include=/usr/include/finclude/math-vector-fortran.h
REM seed 138311573 -332458662 1727731726 -568604093 939939824 -110771782 1834974992 1833581913 625890774 1094127956 -2032124366 -1265303635 -2029302547 -1222372686 -1640716453 449403651 2145783580 -1719633498 1768467165 -1745055442 -818264701 -2016395514 797966123 1845324509 -1934477264 -287387310 547582693 890439596 -64243195 682133523 -877626184 -1892229816 -531936474
REM
CELL 1.54180   50.00000   50.00000   50.00000   90.00000   90.00000   90.00000
LATT -1
SFAC C  
C      1  0.6024010000000  0.4932320000000  0.5147940000000 1.0
C      1  0.4769560000000  0.5409780000000  0.5697300000000 1.0
C      1  0.4921660000000  0.4649610000000  0.5225660000000 1.0
C      1  0.5262820000000  0.4217470000000  0.5324560000000 1.0
C      1  0.5247930000000  0.4855330000000  0.5932250000000 1.0
C      1  0.5657190000000  0.4610570000000  0.5389880000000 1.0
C      1  0.5416380000000  0.4221880000000  0.4605170000000 1.0
C      1  0.5139910000000  0.5680440000000  0.5525240000000 1.0
C      1  0.4632350000000  0.5631480000000  0.4894430000000 1.0
C      1  0.4891590000000  0.5596960000000  0.4238910000000 1.0
C      1  0.5007840000000  0.5925420000000  0.5011370000000 1.0
C      1  0.4148260000000  0.4883970000000  0.5365190000000 1.0
C      1  0.4061250000000  0.5030660000000  0.4825180000000 1.0
C      1  0.5218460000000  0.5260310000000  0.4251850000000 1.0
C      1  0.5024580000000  0.5248120000000  0.6101950000000 1.0
C      1  0.5235110000000  0.5532100000000  0.5769400000000 1.0
C      1  0.4599720000000  0.4954860000000  0.4129520000000 1.0
C      1  0.5274830000000  0.4541490000000  0.4954230000000 1.0
C      1  0.5270990000000  0.5129240000000  0.6032530000000 1.0
C      1  0.4335440000000  0.5171310000000  0.5698420000000 1.0
C      1  0.5078150000000  0.5429000000000  0.4732650000000 1.0
C      1  0.4767760000000  0.5389450000000  0.4772400000000 1.0
C      1  0.5158020000000  0.5715150000000  0.4321960000000 1.0
C      1  0.4986080000000  0.4760790000000  0.5814880000000 1.0
C      1  0.5259140000000  0.5222480000000  0.4559330000000 1.0
C      1  0.4994120000000  0.5054940000000  0.5392130000000 1.0
C      1  0.5595680000000  0.4432210000000  0.4950580000000 1.0
C      1  0.5188980000000  0.5339980000000  0.5023210000000 1.0
C      1  0.4260570000000  0.5157100000000  0.4375160000000 1.0
C      1  0.5364340000000  0.5681710000000  0.5303580000000 1.0
C      1  0.4656330000000  0.4335030000000  0.4847500000000 1.0
C      1  0.5771270000000  0.4636110000000  0.4838020000000 1.0
C      1  0.5144370000000  0.5718660000000  0.4623510000000 1.0
C      1  0.4474370000000  0.4511040000000  0.5309640000000 1.0
C      1  0.5481530000000  0.5031310000000  0.4095270000000 1.0
C      1  0.4813500000000  0.5704500000000  0.5587930000000 1.0
C      1  0.5403200000000  0.4529450000000  0.4515950000000 1.0
C      1  0.5768260000000  0.5511600000000  0.5349510000000 1.0
C      1  0.5365070000000  0.5525310000000  0.4209130000000 1.0
C      1  0.4349100000000  0.5634140000000  0.5026120000000 1.0
C      1  0.4799540000000  0.4837670000000  0.5425390000000 1.0
C      1  0.4819550000000  0.5716130000000  0.5117700000000 1.0
C      1  0.5489090000000  0.4564340000000  0.5619110000000 1.0
C      1  0.4342810000000  0.4335340000000  0.4865830000000 1.0
C      1  0.5600210000000  0.5438190000000  0.4385020000000 1.0
C      1  0.5295450000000  0.4576280000000  0.4242040000000 1.0
C      1  0.4351080000000  0.4889250000000  0.4274540000000 1.0
C      1  0.5126530000000  0.4255920000000  0.5038090000000 1.0
C      1  0.4710080000000  0.4712350000000  0.4602090000000 1.0
C      1  0.4508360000000  0.5328360000000  0.4423790000000 1.0
C      1  0.5293060000000  0.5824960000000  0.5044230000000 1.0
C      1  0.4728710000000  0.4750050000000  0.3990840000000 1.0
C      1  0.4776270000000  0.4234970000000  0.4584400000000 1.0
C      1  0.5632630000000  0.4196000000000  0.4781500000000 1.0
C      1  0.5126910000000  0.4960150000000  0.4686810000000 1.0
C      1  0.5006240000000  0.4484110000000  0.5696990000000 1.0
C      1  0.4602970000000  0.5176180000000  0.5821820000000 1.0
C      1  0.5634060000000  0.5138540000000  0.4326310000000 1.0
C      1  0.4690740000000  0.5154420000000  0.4915850000000 1.0
C      1  0.4087800000000  0.5241360000000  0.5011210000000 1.0
C      1  0.4964740000000  0.4610850000000  0.3942130000000 1.0
C      1  0.5528630000000  0.5475070000000  0.4683990000000 1.0
C      1  0.5368640000000  0.4770730000000  0.4037680000000 1.0
C      1  0.4760130000000  0.4398970000000  0.5298080000000 1.0
C      1  0.6058220000000  0.5196260000000  0.5246430000000 1.0
C      1  0.4991070000000  0.5443420000000  0.5899020000000 1.0
C      1  0.5627760000000  0.4980520000000  0.4566900000000 1.0
C      1  0.4827310000000  0.4989190000000  0.4596930000000 1.0
C      1  0.4060090000000  0.5118900000000  0.4563380000000 1.0
C      1  0.5237850000000  0.4442250000000  0.5523500000000 1.0
C      1  0.4991020000000  0.5483360000000  0.5222160000000 1.0
C      1  0.4121990000000  0.5503880000000  0.4927210000000 1.0
C      1  0.4668320000000  0.5814040000000  0.4661950000000 1.0
C      1  0.4769790000000  0.4337310000000  0.5592670000000 1.0
C      1  0.5546060000000  0.4853130000000  0.5231170000000 1.0
C      1  0.4614830000000  0.5195660000000  0.5193260000000 1.0
C      1  0.5237680000000  0.5059910000000  0.5539090000000 1.0
C      1  0.4484110000000  0.4780570000000  0.5034570000000 1.0
C      1  0.4838250000000  0.4429950000000  0.4380200000000 1.0
C      1  0.5201550000000  0.4655250000000  0.4690540000000 1.0
C      1  0.4720680000000  0.4631330000000  0.4894870000000 1.0
C      1  0.5242120000000  0.4786740000000  0.5138510000000 1.0
C      1  0.5908250000000  0.5290860000000  0.5514170000000 1.0
C      1  0.4971410000000  0.4040570000000  0.4619140000000 1.0
C      1  0.5183890000000  0.4750260000000  0.3826310000000 1.0
C      1  0.4249000000000  0.4392150000000  0.5152090000000 1.0
C      1  0.4712270000000  0.4884820000000  0.5850850000000 1.0
C      1  0.5670480000000  0.4365020000000  0.5226550000000 1.0
C      1  0.4819760000000  0.4222930000000  0.5072430000000 1.0
C      1  0.5495100000000  0.5401810000000  0.5251590000000 1.0
C      1  0.4264460000000  0.4885360000000  0.5643980000000 1.0
C      1  0.4529710000000  0.4937440000000  0.5295660000000 1.0
C      1  0.5405590000000  0.5745190000000  0.4767740000000 1.0
C      1  0.4078590000000  0.4648560000000  0.5159790000000 1.0
C      1  0.5712620000000  0.5341630000000  0.4880130000000 1.0
C      1  0.5152180000000  0.5032520000000  0.4978960000000 1.0
C      1  0.4934500000000  0.5310310000000  0.4187320000000 1.0
C      1  0.5779730000000  0.4880730000000  0.5007100000000 1.0
C      1  0.5691860000000  0.5108890000000  0.5631680000000 1.0
C      1  0.5532970000000  0.4139630000000  0.5323300000000 1.0
C      1  0.5904000000000  0.5429410000000  0.5093890000000 1.0
C      1  0.4287210000000  0.5342030000000  0.5451820000000 1.0
C      1  0.4944870000000  0.5925570000000  0.4717280000000 1.0
C      1  0.4647880000000  0.5774900000000  0.5358340000000 1.0
C      1  0.4387640000000  0.5616960000000  0.5321860000000 1.0
C      1  0.4730110000000  0.5143830000000  0.4327120000000 1.0
C      1  0.5197520000000  0.4100410000000  0.4772870000000 1.0
C      1  0.5492880000000  0.5109430000000  0.5407570000000 1.0
C      1  0.5757620000000  0.5079380000000  0.4798240000000 1.0
C      1  0.5660220000000  0.4691350000000  0.4567150000000 1.0
C      1  0.4114320000000  0.5171740000000  0.5286440000000 1.0
C      1  0.4645580000000  0.5621930000000  0.4415060000000 1.0
C      1  0.4833110000000  0.5291230000000  0.5377630000000 1.0
C      1  0.4515210000000  0.4443780000000  0.5688620000000 1.0
C      1  0.4424360000000  0.4689300000000  0.4497570000000 1.0
C      1  0.5398730000000  0.5284270000000  0.5809960000000 1.0
C      1  0.5487320000000  0.4809120000000  0.5773400000000 1.0
C      1  0.4516460000000  0.4735090000000  0.5685700000000 1.0
C      1  0.4192020000000  0.4769940000000  0.4907720000000 1.0
C      1  0.4225080000000  0.4563930000000  0.4690450000000 1.0
C      1  0.5042850000000  0.4452600000000  0.4175280000000 1.0
END
