TITL C-951347-9520-611 -1.82638311648789e-06 125000 -835.427478729843 0 0 135 (C1) n - 1
REM
REM in /home/bkarasulu/work/CARBON/AIRSS/Generating-Clusters/EDIP-Nigel-Params/with-SteepDescent/Only-C1/SD-CG/HFTN-CG
REM
REM
REM
REM
REM
REM ./C.cell (11c1c37f851c82e70ff6c80c92926a4b)
REM
REM compiler GCC version 9.2.1 20190827 (Red Hat 9.2.1-1)
REM options -cpp -mtune=generic -march=x86-64 -g -O0 -fpre-include=/usr/include/finclude/math-vector-fortran.h
REM seed 1903374121 -1365568082 215845375 -932876967 791381708 1367442415 1476307528 1053246695 -991853232 1649774845 -1485419651 1593793 968851375 1617701353 -733312150 790587461 -1747510113 1933273465 1458833742 1650066442 -802312843 2089458757 1647426022 1705706830 154504278 1131205629 473174896 -649225686 1448053608 -588972030 1002804550 -1910543676 -2137807107
REM
CELL 1.54180   50.00000   50.00000   50.00000   90.00000   90.00000   90.00000
LATT -1
SFAC C  
C      1  0.4551320000000  0.5488580000000  0.4243480000000 1.0
C      1  0.5778620000000  0.5558760000000  0.5334520000000 1.0
C      1  0.5397940000000  0.5199070000000  0.5966180000000 1.0
C      1  0.5528100000000  0.5346280000000  0.4031660000000 1.0
C      1  0.5300180000000  0.5414000000000  0.5281880000000 1.0
C      1  0.4224220000000  0.4716470000000  0.5757110000000 1.0
C      1  0.4724040000000  0.4184450000000  0.4757040000000 1.0
C      1  0.5878350000000  0.5275100000000  0.5370840000000 1.0
C      1  0.4952600000000  0.5461370000000  0.4916990000000 1.0
C      1  0.4437230000000  0.5712310000000  0.5319260000000 1.0
C      1  0.3957860000000  0.4833230000000  0.4832890000000 1.0
C      1  0.4185170000000  0.5067130000000  0.4417070000000 1.0
C      1  0.4856340000000  0.5597370000000  0.4563110000000 1.0
C      1  0.5462410000000  0.5704480000000  0.4680140000000 1.0
C      1  0.4681460000000  0.5481030000000  0.5700940000000 1.0
C      1  0.4508260000000  0.5289630000000  0.4682850000000 1.0
C      1  0.4779850000000  0.4509210000000  0.4457480000000 1.0
C      1  0.4997570000000  0.4868310000000  0.5938110000000 1.0
C      1  0.4340730000000  0.4361390000000  0.5099320000000 1.0
C      1  0.5649940000000  0.5122160000000  0.4177390000000 1.0
C      1  0.3938700000000  0.5313010000000  0.4909720000000 1.0
C      1  0.4841970000000  0.4659540000000  0.5076630000000 1.0
C      1  0.5751730000000  0.4542830000000  0.4433740000000 1.0
C      1  0.4342010000000  0.5107130000000  0.4852900000000 1.0
C      1  0.4570540000000  0.5679820000000  0.4475080000000 1.0
C      1  0.4935990000000  0.5337390000000  0.4394420000000 1.0
C      1  0.5371680000000  0.4869900000000  0.4961960000000 1.0
C      1  0.5765080000000  0.4291580000000  0.4840890000000 1.0
C      1  0.4973920000000  0.4108310000000  0.5473950000000 1.0
C      1  0.5369430000000  0.4369410000000  0.4630100000000 1.0
C      1  0.4078930000000  0.4902000000000  0.5565310000000 1.0
C      1  0.4957650000000  0.4126790000000  0.4591690000000 1.0
C      1  0.5290870000000  0.5750700000000  0.5615230000000 1.0
C      1  0.5331620000000  0.4400520000000  0.5773160000000 1.0
C      1  0.5656590000000  0.4299070000000  0.4572790000000 1.0
C      1  0.4667960000000  0.5683890000000  0.5495380000000 1.0
C      1  0.5768440000000  0.5546690000000  0.5038700000000 1.0
C      1  0.5570590000000  0.4859250000000  0.4126840000000 1.0
C      1  0.4859370000000  0.5479990000000  0.4122470000000 1.0
C      1  0.5249400000000  0.4113500000000  0.5013010000000 1.0
C      1  0.4559250000000  0.5095280000000  0.5923730000000 1.0
C      1  0.4909210000000  0.4067580000000  0.5753020000000 1.0
C      1  0.5136400000000  0.4903550000000  0.4590280000000 1.0
C      1  0.4056480000000  0.5108450000000  0.4743700000000 1.0
C      1  0.5381930000000  0.5513020000000  0.4240580000000 1.0
C      1  0.5583020000000  0.5618700000000  0.4436480000000 1.0
C      1  0.4328640000000  0.4484840000000  0.5583060000000 1.0
C      1  0.5123720000000  0.5686200000000  0.4194110000000 1.0
C      1  0.5798840000000  0.4652870000000  0.5150390000000 1.0
C      1  0.3896200000000  0.4809770000000  0.5099930000000 1.0
C      1  0.5090460000000  0.4718310000000  0.4362720000000 1.0
C      1  0.4606230000000  0.5062440000000  0.5200130000000 1.0
C      1  0.4511650000000  0.5317860000000  0.5126950000000 1.0
C      1  0.5230140000000  0.5261440000000  0.4347250000000 1.0
C      1  0.5179430000000  0.4147010000000  0.5705000000000 1.0
C      1  0.5391470000000  0.5055700000000  0.4623010000000 1.0
C      1  0.4430010000000  0.4964460000000  0.5408730000000 1.0
C      1  0.4331810000000  0.4597960000000  0.4273730000000 1.0
C      1  0.5110590000000  0.4504510000000  0.5149800000000 1.0
C      1  0.4194930000000  0.4493560000000  0.5319040000000 1.0
C      1  0.4852500000000  0.4974100000000  0.4642730000000 1.0
C      1  0.4511510000000  0.4409670000000  0.4376000000000 1.0
C      1  0.4503150000000  0.5886250000000  0.5104620000000 1.0
C      1  0.5698320000000  0.4920440000000  0.5668010000000 1.0
C      1  0.4782480000000  0.5231510000000  0.4791380000000 1.0
C      1  0.4086990000000  0.5513980000000  0.5034310000000 1.0
C      1  0.4717330000000  0.4723720000000  0.4772230000000 1.0
C      1  0.5163970000000  0.4644680000000  0.6018820000000 1.0
C      1  0.5529710000000  0.4949110000000  0.5908150000000 1.0
C      1  0.4462230000000  0.4259430000000  0.4633080000000 1.0
C      1  0.4738440000000  0.4422400000000  0.5270490000000 1.0
C      1  0.4916260000000  0.5780890000000  0.5381990000000 1.0
C      1  0.5895250000000  0.5016810000000  0.4641370000000 1.0
C      1  0.4179490000000  0.4762820000000  0.4434210000000 1.0
C      1  0.5032880000000  0.5809820000000  0.4456120000000 1.0
C      1  0.4934700000000  0.5239660000000  0.3955270000000 1.0
C      1  0.5407920000000  0.5869480000000  0.5123630000000 1.0
C      1  0.5068540000000  0.4844180000000  0.4096980000000 1.0
C      1  0.5648680000000  0.5081240000000  0.5415700000000 1.0
C      1  0.5222930000000  0.4124380000000  0.4718770000000 1.0
C      1  0.5136350000000  0.5028780000000  0.5078370000000 1.0
C      1  0.5097710000000  0.4726440000000  0.5593600000000 1.0
C      1  0.5602990000000  0.5764770000000  0.4925850000000 1.0
C      1  0.5441330000000  0.4690360000000  0.6008630000000 1.0
C      1  0.5686950000000  0.5261930000000  0.4943400000000 1.0
C      1  0.5218880000000  0.5117580000000  0.4066350000000 1.0
C      1  0.5259430000000  0.4618010000000  0.5393360000000 1.0
C      1  0.5638130000000  0.4925010000000  0.5132470000000 1.0
C      1  0.4259810000000  0.4386040000000  0.4814260000000 1.0
C      1  0.5544690000000  0.4601990000000  0.4234220000000 1.0
C      1  0.5820280000000  0.4733140000000  0.4650500000000 1.0
C      1  0.4293310000000  0.5453100000000  0.5259330000000 1.0
C      1  0.4434190000000  0.4821620000000  0.4826010000000 1.0
C      1  0.5200300000000  0.5308580000000  0.5020030000000 1.0
C      1  0.5418260000000  0.5284560000000  0.4814600000000 1.0
C      1  0.5211030000000  0.5519310000000  0.5818320000000 1.0
C      1  0.4437940000000  0.5576550000000  0.4714260000000 1.0
C      1  0.4620780000000  0.4523340000000  0.5537190000000 1.0
C      1  0.5498200000000  0.4483510000000  0.5514690000000 1.0
C      1  0.5885320000000  0.4563470000000  0.4880980000000 1.0
C      1  0.4992950000000  0.4092810000000  0.5173210000000 1.0
C      1  0.4201220000000  0.5677170000000  0.4834450000000 1.0
C      1  0.5818400000000  0.5468520000000  0.4456080000000 1.0
C      1  0.4467870000000  0.5216760000000  0.4388750000000 1.0
C      1  0.5395570000000  0.5223990000000  0.5478500000000 1.0
C      1  0.5804700000000  0.5192470000000  0.4419420000000 1.0
C      1  0.4274840000000  0.5229380000000  0.5521010000000 1.0
C      1  0.4450910000000  0.5311010000000  0.5753220000000 1.0
C      1  0.5431560000000  0.5348390000000  0.5737750000000 1.0
C      1  0.4501990000000  0.4136490000000  0.5174180000000 1.0
C      1  0.4735800000000  0.4069740000000  0.5022430000000 1.0
C      1  0.4060010000000  0.4749370000000  0.5311860000000 1.0
C      1  0.4625820000000  0.4819000000000  0.5595190000000 1.0
C      1  0.6043420000000  0.5123780000000  0.4871370000000 1.0
C      1  0.5277040000000  0.4472280000000  0.4352300000000 1.0
C      1  0.4877730000000  0.4928460000000  0.5209250000000 1.0
C      1  0.5537670000000  0.4273560000000  0.5041430000000 1.0
C      1  0.4854220000000  0.5126290000000  0.5957310000000 1.0
C      1  0.4740910000000  0.5932120000000  0.4969170000000 1.0
C      1  0.5439160000000  0.5666520000000  0.5355880000000 1.0
C      1  0.4803690000000  0.4983750000000  0.4068850000000 1.0
C      1  0.4985140000000  0.4301370000000  0.4359380000000 1.0
C      1  0.4437570000000  0.4829110000000  0.5929910000000 1.0
C      1  0.4897440000000  0.4900030000000  0.5504120000000 1.0
C      1  0.5661460000000  0.4405240000000  0.5270690000000 1.0
C      1  0.4933440000000  0.5757530000000  0.5074320000000 1.0
C      1  0.5145370000000  0.5934310000000  0.4961730000000 1.0
C      1  0.4931510000000  0.5377360000000  0.5812540000000 1.0
C      1  0.5309800000000  0.4564940000000  0.4917230000000 1.0
C      1  0.5702570000000  0.4650640000000  0.5630880000000 1.0
C      1  0.4196970000000  0.4675450000000  0.4723990000000 1.0
C      1  0.5085880000000  0.5925910000000  0.5553000000000 1.0
C      1  0.6045130000000  0.5184270000000  0.5151600000000 1.0
C      1  0.4706000000000  0.5029150000000  0.4355600000000 1.0
C      1  0.5231960000000  0.5874980000000  0.4669210000000 1.0
END
