TITL C-950533-5798-86 -9.22395504512264e-07 125000 -504.303013269984 0 0 81 (C1) n - 1
REM
REM in /home/bkarasulu/work/CARBON/AIRSS/Generating-Clusters/EDIP-Nigel-Params/with-SteepDescent/Only-C1/SD-CG/HFTN-CG
REM
REM
REM
REM
REM
REM ./C.cell (11c1c37f851c82e70ff6c80c92926a4b)
REM
REM compiler GCC version 9.2.1 20190827 (Red Hat 9.2.1-1)
REM options -cpp -mtune=generic -march=x86-64 -g -O0 -fpre-include=/usr/include/finclude/math-vector-fortran.h
REM seed 1088181446 -1653645201 397959245 -63465339 -1997324993 -221126518 -37210511 -1188617933 806691824 -1663801316 1201362370 1773646550 1584691272 -89523380 980916319 -98138996 1757113997 -528690627 -545556262 -1784912080 -1175808106 -1635150146 404674373 1722560372 -1767906027 1574040046 -1602008085 832687881 1334837496 1591118610 504014841 496747699 1441825297
REM
CELL 1.54180   50.00000   50.00000   50.00000   90.00000   90.00000   90.00000
LATT -1
SFAC C  
C      1  0.5184930000000  0.5641750000000  0.4569310000000 1.0
C      1  0.5445570000000  0.4499580000000  0.5167920000000 1.0
C      1  0.4369600000000  0.4852700000000  0.4736570000000 1.0
C      1  0.4875980000000  0.5728390000000  0.5309400000000 1.0
C      1  0.4401960000000  0.5588240000000  0.4904290000000 1.0
C      1  0.4687200000000  0.4668600000000  0.5662560000000 1.0
C      1  0.4341040000000  0.4565160000000  0.4724160000000 1.0
C      1  0.4768360000000  0.5192320000000  0.5689490000000 1.0
C      1  0.5198110000000  0.4707160000000  0.5714110000000 1.0
C      1  0.5082950000000  0.4231940000000  0.4952870000000 1.0
C      1  0.5022250000000  0.5276870000000  0.4195640000000 1.0
C      1  0.4975140000000  0.5047520000000  0.5224470000000 1.0
C      1  0.5231760000000  0.5389840000000  0.5440840000000 1.0
C      1  0.4918420000000  0.4388830000000  0.5138800000000 1.0
C      1  0.5835650000000  0.4780640000000  0.4982610000000 1.0
C      1  0.5665160000000  0.5110240000000  0.4582300000000 1.0
C      1  0.4899940000000  0.4596290000000  0.4502940000000 1.0
C      1  0.4674570000000  0.5500910000000  0.5329800000000 1.0
C      1  0.4236080000000  0.5125840000000  0.5250650000000 1.0
C      1  0.4710180000000  0.5203410000000  0.5222510000000 1.0
C      1  0.5017730000000  0.4758580000000  0.5084710000000 1.0
C      1  0.4581300000000  0.4781500000000  0.5160660000000 1.0
C      1  0.4640350000000  0.4890550000000  0.4880310000000 1.0
C      1  0.5031850000000  0.4382270000000  0.5423500000000 1.0
C      1  0.4942510000000  0.5632900000000  0.4797780000000 1.0
C      1  0.4505530000000  0.5011010000000  0.5334540000000 1.0
C      1  0.4608910000000  0.5431520000000  0.5611240000000 1.0
C      1  0.4702160000000  0.4975520000000  0.4401780000000 1.0
C      1  0.4197020000000  0.5105160000000  0.4958890000000 1.0
C      1  0.4503050000000  0.4500590000000  0.5527860000000 1.0
C      1  0.4472300000000  0.4528930000000  0.5248620000000 1.0
C      1  0.4377230000000  0.5278270000000  0.4535910000000 1.0
C      1  0.5146550000000  0.4957320000000  0.4660190000000 1.0
C      1  0.5789680000000  0.5214400000000  0.5051610000000 1.0
C      1  0.4971060000000  0.5340190000000  0.4890160000000 1.0
C      1  0.5058230000000  0.5227410000000  0.4632120000000 1.0
C      1  0.4420410000000  0.4987560000000  0.4472020000000 1.0
C      1  0.5635030000000  0.5074310000000  0.5461780000000 1.0
C      1  0.5007040000000  0.4180400000000  0.4672860000000 1.0
C      1  0.5853250000000  0.5031870000000  0.5270920000000 1.0
C      1  0.5605530000000  0.5418090000000  0.5155440000000 1.0
C      1  0.5592230000000  0.5381530000000  0.4578420000000 1.0
C      1  0.4390760000000  0.5298560000000  0.4834950000000 1.0
C      1  0.4601240000000  0.4946500000000  0.5695700000000 1.0
C      1  0.4623530000000  0.4345370000000  0.5080690000000 1.0
C      1  0.4327030000000  0.5404350000000  0.5631360000000 1.0
C      1  0.5227530000000  0.4986870000000  0.5753010000000 1.0
C      1  0.5313930000000  0.4768020000000  0.5145310000000 1.0
C      1  0.5421220000000  0.5573950000000  0.4991230000000 1.0
C      1  0.5275940000000  0.5782270000000  0.5134760000000 1.0
C      1  0.4765570000000  0.4339880000000  0.4587450000000 1.0
C      1  0.5260820000000  0.4855530000000  0.4403260000000 1.0
C      1  0.4232690000000  0.5410130000000  0.5360490000000 1.0
C      1  0.5444250000000  0.5588630000000  0.4702320000000 1.0
C      1  0.4417160000000  0.5602540000000  0.5205820000000 1.0
C      1  0.4824520000000  0.5240460000000  0.4425240000000 1.0
C      1  0.4650660000000  0.5651180000000  0.4697950000000 1.0
C      1  0.4611320000000  0.5455140000000  0.4469210000000 1.0
C      1  0.5352830000000  0.4315700000000  0.4959620000000 1.0
C      1  0.5336940000000  0.4389270000000  0.5436520000000 1.0
C      1  0.4935260000000  0.4778120000000  0.4768760000000 1.0
C      1  0.5710650000000  0.5017340000000  0.4852140000000 1.0
C      1  0.4669150000000  0.5194820000000  0.4922530000000 1.0
C      1  0.5068200000000  0.5194090000000  0.5631300000000 1.0
C      1  0.5354340000000  0.4959970000000  0.5387610000000 1.0
C      1  0.5544840000000  0.4240890000000  0.4763010000000 1.0
C      1  0.5159830000000  0.5682450000000  0.5411610000000 1.0
C      1  0.4988930000000  0.5820760000000  0.5030670000000 1.0
C      1  0.5252180000000  0.4278230000000  0.4530150000000 1.0
C      1  0.5188020000000  0.4541650000000  0.4415130000000 1.0
C      1  0.5539880000000  0.4935990000000  0.4401570000000 1.0
C      1  0.5196130000000  0.5242110000000  0.5171280000000 1.0
C      1  0.4548810000000  0.4381740000000  0.4791130000000 1.0
C      1  0.5216180000000  0.5441030000000  0.4349970000000 1.0
C      1  0.5084520000000  0.4972100000000  0.4168020000000 1.0
C      1  0.5535920000000  0.5358010000000  0.5436150000000 1.0
C      1  0.4961470000000  0.4620390000000  0.5576350000000 1.0
C      1  0.5794990000000  0.4327830000000  0.4848460000000 1.0
C      1  0.4830710000000  0.4813830000000  0.4202400000000 1.0
C      1  0.5420160000000  0.4541700000000  0.5661160000000 1.0
C      1  0.5738040000000  0.4516500000000  0.5053180000000 1.0
END
