TITL C-950524-1808-528 1.56970748714731e-06 125000 -605.343484679684 0 0 99 (C1) n - 1
REM
REM in /home/bkarasulu/work/CARBON/AIRSS/Generating-Clusters/EDIP-Nigel-Params/with-SteepDescent/Only-C1/SD-CG/HFTN-CG
REM
REM
REM
REM
REM
REM ./C.cell (11c1c37f851c82e70ff6c80c92926a4b)
REM
REM compiler GCC version 9.2.1 20190827 (Red Hat 9.2.1-1)
REM options -cpp -mtune=generic -march=x86-64 -g -O0 -fpre-include=/usr/include/finclude/math-vector-fortran.h
REM seed 1515307968 -1131862998 -1353556929 1819890312 -1297775819 497529989 -7691149 1543342843 2002903371 211140578 -1685276973 -553887856 -49168906 1902416939 353232526 -873423024 521997481 1692558175 -1468043988 -1955008297 134901318 784606648 -738557729 -1669404037 -850820373 931463898 -788366771 1962915131 287426288 -1995241578 -2091402467 131780676 1312302449
REM
CELL 1.54180   50.00000   50.00000   50.00000   90.00000   90.00000   90.00000
LATT -1
SFAC C  
C      1  0.4523820000000  0.5115740000000  0.4443630000000 1.0
C      1  0.4708030000000  0.4658670000000  0.4291620000000 1.0
C      1  0.5471750000000  0.5221800000000  0.5828510000000 1.0
C      1  0.5110770000000  0.4956510000000  0.4042080000000 1.0
C      1  0.5878080000000  0.4865280000000  0.5060960000000 1.0
C      1  0.5071170000000  0.4140670000000  0.4635300000000 1.0
C      1  0.4414440000000  0.5330530000000  0.5496190000000 1.0
C      1  0.5121000000000  0.4761660000000  0.5271740000000 1.0
C      1  0.4989030000000  0.4540120000000  0.4296550000000 1.0
C      1  0.4780670000000  0.4412760000000  0.5736320000000 1.0
C      1  0.5339220000000  0.5192530000000  0.5290830000000 1.0
C      1  0.5790430000000  0.4735950000000  0.4583880000000 1.0
C      1  0.5019010000000  0.4944560000000  0.5470280000000 1.0
C      1  0.4519580000000  0.4870020000000  0.5724100000000 1.0
C      1  0.5211780000000  0.4975440000000  0.4540740000000 1.0
C      1  0.5027390000000  0.4789540000000  0.4989040000000 1.0
C      1  0.4506080000000  0.4677140000000  0.4512630000000 1.0
C      1  0.4701900000000  0.5742270000000  0.4757240000000 1.0
C      1  0.4687110000000  0.4874280000000  0.4865360000000 1.0
C      1  0.4662820000000  0.4871420000000  0.4104130000000 1.0
C      1  0.5527880000000  0.4405070000000  0.5202740000000 1.0
C      1  0.4607890000000  0.5137690000000  0.5611290000000 1.0
C      1  0.4867460000000  0.5060260000000  0.4189900000000 1.0
C      1  0.5666880000000  0.4871590000000  0.4348390000000 1.0
C      1  0.5504120000000  0.4610370000000  0.5439390000000 1.0
C      1  0.4857210000000  0.5313240000000  0.5193340000000 1.0
C      1  0.4972170000000  0.5763060000000  0.4652620000000 1.0
C      1  0.5041760000000  0.5392580000000  0.4080540000000 1.0
C      1  0.5026600000000  0.5255000000000  0.5890980000000 1.0
C      1  0.5766290000000  0.4705870000000  0.5522220000000 1.0
C      1  0.4845050000000  0.5213770000000  0.4719540000000 1.0
C      1  0.4778980000000  0.5069540000000  0.5365620000000 1.0
C      1  0.5157300000000  0.4345180000000  0.4458840000000 1.0
C      1  0.4413590000000  0.5379130000000  0.4571220000000 1.0
C      1  0.4980610000000  0.5506610000000  0.4499730000000 1.0
C      1  0.4588010000000  0.4444760000000  0.4915130000000 1.0
C      1  0.5329460000000  0.5136840000000  0.4065220000000 1.0
C      1  0.5115380000000  0.4191910000000  0.5150790000000 1.0
C      1  0.5799030000000  0.5192330000000  0.5428190000000 1.0
C      1  0.4143540000000  0.5346910000000  0.5060930000000 1.0
C      1  0.5485440000000  0.4542830000000  0.4940440000000 1.0
C      1  0.5844020000000  0.4913920000000  0.5344130000000 1.0
C      1  0.4520530000000  0.4297570000000  0.5152660000000 1.0
C      1  0.5231560000000  0.5471420000000  0.4339950000000 1.0
C      1  0.4320900000000  0.4740840000000  0.5544060000000 1.0
C      1  0.4970420000000  0.4350510000000  0.5343180000000 1.0
C      1  0.4762480000000  0.4694940000000  0.5795680000000 1.0
C      1  0.5408120000000  0.5014120000000  0.6008650000000 1.0
C      1  0.5040050000000  0.4807670000000  0.5739630000000 1.0
C      1  0.4162810000000  0.4960880000000  0.4715480000000 1.0
C      1  0.5201010000000  0.5537820000000  0.5514380000000 1.0
C      1  0.5254120000000  0.4576470000000  0.5677170000000 1.0
C      1  0.4632790000000  0.5441430000000  0.4767380000000 1.0
C      1  0.4637760000000  0.4882710000000  0.5173950000000 1.0
C      1  0.5239060000000  0.4970280000000  0.4858380000000 1.0
C      1  0.5387510000000  0.4744330000000  0.4390880000000 1.0
C      1  0.5040880000000  0.4279680000000  0.4879250000000 1.0
C      1  0.5125090000000  0.4988580000000  0.5974660000000 1.0
C      1  0.4326020000000  0.4903630000000  0.4476590000000 1.0
C      1  0.4764830000000  0.5267110000000  0.5806700000000 1.0
C      1  0.5860830000000  0.4948830000000  0.4783620000000 1.0
C      1  0.5496160000000  0.4830780000000  0.4989040000000 1.0
C      1  0.5454760000000  0.5559520000000  0.5372620000000 1.0
C      1  0.4901060000000  0.4999960000000  0.4499340000000 1.0
C      1  0.5719640000000  0.5441440000000  0.4831760000000 1.0
C      1  0.4576910000000  0.5396820000000  0.5055200000000 1.0
C      1  0.5612170000000  0.5339590000000  0.5247790000000 1.0
C      1  0.5737500000000  0.5197540000000  0.4694240000000 1.0
C      1  0.5055970000000  0.4359290000000  0.5623150000000 1.0
C      1  0.5654620000000  0.5168170000000  0.4415930000000 1.0
C      1  0.5362070000000  0.5205630000000  0.4350610000000 1.0
C      1  0.5710130000000  0.5217210000000  0.5691360000000 1.0
C      1  0.4930210000000  0.5570270000000  0.5357130000000 1.0
C      1  0.4870230000000  0.4529670000000  0.4852700000000 1.0
C      1  0.4699310000000  0.5850040000000  0.5035580000000 1.0
C      1  0.5199020000000  0.4696600000000  0.4154000000000 1.0
C      1  0.4141200000000  0.4932870000000  0.5367510000000 1.0
C      1  0.4688940000000  0.4300360000000  0.5380620000000 1.0
C      1  0.5253850000000  0.5472950000000  0.4882490000000 1.0
C      1  0.4252840000000  0.5612960000000  0.5057360000000 1.0
C      1  0.4132460000000  0.4740230000000  0.5141610000000 1.0
C      1  0.5505410000000  0.5600700000000  0.4907060000000 1.0
C      1  0.4575480000000  0.5578280000000  0.5441270000000 1.0
C      1  0.5618900000000  0.4494840000000  0.4675920000000 1.0
C      1  0.4409500000000  0.4477600000000  0.4697330000000 1.0
C      1  0.4474070000000  0.5738150000000  0.5208130000000 1.0
C      1  0.4795960000000  0.5493720000000  0.4255280000000 1.0
C      1  0.5407240000000  0.4859380000000  0.5276770000000 1.0
C      1  0.4265040000000  0.5190460000000  0.5282170000000 1.0
C      1  0.5146680000000  0.5751810000000  0.4899780000000 1.0
C      1  0.4308330000000  0.4785020000000  0.4902390000000 1.0
C      1  0.4472480000000  0.4657440000000  0.5283540000000 1.0
C      1  0.5387490000000  0.4163400000000  0.5219730000000 1.0
C      1  0.5232080000000  0.5318550000000  0.5699090000000 1.0
C      1  0.5448790000000  0.4381070000000  0.4459150000000 1.0
C      1  0.5158210000000  0.5236830000000  0.5034760000000 1.0
C      1  0.4133190000000  0.5243360000000  0.4784130000000 1.0
C      1  0.4965030000000  0.5786140000000  0.5146430000000 1.0
C      1  0.4507550000000  0.5467220000000  0.4292490000000 1.0
END
