TITL C-950523-3027-334 -1.61429163843701e-06 125000 -270.01381329232 0 0 45 (C1) n - 1
REM
REM in /home/bkarasulu/work/CARBON/AIRSS/Generating-Clusters/EDIP-Nigel-Params/with-SteepDescent/Only-C1/SD-CG/HFTN-CG
REM
REM
REM
REM
REM
REM ./C.cell (11c1c37f851c82e70ff6c80c92926a4b)
REM
REM compiler GCC version 9.2.1 20190827 (Red Hat 9.2.1-1)
REM options -cpp -mtune=generic -march=x86-64 -g -O0 -fpre-include=/usr/include/finclude/math-vector-fortran.h
REM seed -1060074586 -988799929 1221069530 -1156594045 -786570354 1300772140 209263796 62709597 1788803576 -2062362523 248496313 263891982 1734251809 1563122407 342383251 1183395530 -172541535 -17886632 -908001311 835615715 745978624 -1838679052 195256405 -2034550746 1818176185 -1931814868 1019211483 -754007391 -1432677473 221485456 858977125 1549173118 -1007802110
REM
CELL 1.54180   50.00000   50.00000   50.00000   90.00000   90.00000   90.00000
LATT -1
SFAC C  
C      1  0.5355330000000  0.5046550000000  0.5460090000000 1.0
C      1  0.5532180000000  0.5246850000000  0.5371040000000 1.0
C      1  0.4693590000000  0.5013000000000  0.4723860000000 1.0
C      1  0.4637220000000  0.5547730000000  0.5176160000000 1.0
C      1  0.5323580000000  0.5465680000000  0.4960960000000 1.0
C      1  0.5484930000000  0.5264910000000  0.5096560000000 1.0
C      1  0.4815210000000  0.4942070000000  0.4180980000000 1.0
C      1  0.4915820000000  0.5296460000000  0.5470600000000 1.0
C      1  0.4850660000000  0.5437010000000  0.4576920000000 1.0
C      1  0.5492420000000  0.4416750000000  0.5057420000000 1.0
C      1  0.5122820000000  0.5143210000000  0.5618860000000 1.0
C      1  0.4998210000000  0.4935660000000  0.5767570000000 1.0
C      1  0.5362830000000  0.5422320000000  0.4673320000000 1.0
C      1  0.4200560000000  0.4954730000000  0.5146150000000 1.0
C      1  0.4273000000000  0.4854650000000  0.4906470000000 1.0
C      1  0.4914950000000  0.5510210000000  0.5272000000000 1.0
C      1  0.5041280000000  0.5474940000000  0.5016920000000 1.0
C      1  0.4980930000000  0.4940490000000  0.4648960000000 1.0
C      1  0.4563000000000  0.4984120000000  0.5534510000000 1.0
C      1  0.4810660000000  0.4829410000000  0.5582790000000 1.0
C      1  0.5059520000000  0.4855310000000  0.5114950000000 1.0
C      1  0.4632620000000  0.5236920000000  0.4534430000000 1.0
C      1  0.5505130000000  0.4691770000000  0.5103630000000 1.0
C      1  0.5149920000000  0.4778940000000  0.4852660000000 1.0
C      1  0.5248650000000  0.5082880000000  0.4342770000000 1.0
C      1  0.5291560000000  0.4313600000000  0.4910630000000 1.0
C      1  0.4998070000000  0.4386790000000  0.5417810000000 1.0
C      1  0.4427640000000  0.5064690000000  0.5265270000000 1.0
C      1  0.5032880000000  0.4881860000000  0.4346080000000 1.0
C      1  0.4495480000000  0.4798700000000  0.4749950000000 1.0
C      1  0.4466620000000  0.5365690000000  0.5333680000000 1.0
C      1  0.4642960000000  0.5128700000000  0.4273710000000 1.0
C      1  0.5589520000000  0.5230350000000  0.4635790000000 1.0
C      1  0.5125100000000  0.5287120000000  0.4546660000000 1.0
C      1  0.4812520000000  0.4545690000000  0.5545570000000 1.0
C      1  0.4643410000000  0.5279260000000  0.5580200000000 1.0
C      1  0.5525130000000  0.4844400000000  0.4840580000000 1.0
C      1  0.4831320000000  0.5560960000000  0.4840320000000 1.0
C      1  0.5491810000000  0.5004300000000  0.4481890000000 1.0
C      1  0.5101030000000  0.4487890000000  0.4808120000000 1.0
C      1  0.4837150000000  0.4413280000000  0.4784720000000 1.0
C      1  0.5641660000000  0.5115500000000  0.4901660000000 1.0
C      1  0.4608240000000  0.4548780000000  0.4781970000000 1.0
C      1  0.5282190000000  0.4793190000000  0.5289800000000 1.0
C      1  0.5190670000000  0.4576650000000  0.5475010000000 1.0
END
