TITL C-951339-9237-387 -2.95812843396105e-06 125000 -494.122313987184 0 0 80 (C1) n - 1
REM
REM in /home/bkarasulu/work/CARBON/AIRSS/Generating-Clusters/EDIP-Nigel-Params/with-SteepDescent/Only-C1/SD-CG/HFTN-CG
REM
REM
REM
REM
REM
REM ./C.cell (11c1c37f851c82e70ff6c80c92926a4b)
REM
REM compiler GCC version 9.2.1 20190827 (Red Hat 9.2.1-1)
REM options -cpp -mtune=generic -march=x86-64 -g -O0 -fpre-include=/usr/include/finclude/math-vector-fortran.h
REM seed 876861550 1076679533 -1773251949 -2082735261 -1756327224 223210457 -1878399591 2009130303 768547 1852973967 -56738688 1963396017 -1494532670 1061540853 -239821680 -1385901057 -1038016561 1523342393 -1573821658 358027760 1735190350 1004966434 -617531744 1513749180 -1993966736 -1775801390 -1514641372 1075961566 1969273190 -1346839353 -1079104128 -78980855 -1677255874
REM
CELL 1.54180   50.00000   50.00000   50.00000   90.00000   90.00000   90.00000
LATT -1
SFAC C  
C      1  0.4708870000000  0.5407200000000  0.4703410000000 1.0
C      1  0.4350520000000  0.4661590000000  0.5440050000000 1.0
C      1  0.4739820000000  0.5455710000000  0.5515680000000 1.0
C      1  0.4641100000000  0.5158180000000  0.4274500000000 1.0
C      1  0.5078140000000  0.4344490000000  0.4973550000000 1.0
C      1  0.5501390000000  0.4736370000000  0.5598620000000 1.0
C      1  0.4759140000000  0.5066370000000  0.5033350000000 1.0
C      1  0.5321790000000  0.4248440000000  0.4870070000000 1.0
C      1  0.4804500000000  0.4893370000000  0.4630760000000 1.0
C      1  0.5486900000000  0.5142020000000  0.4449440000000 1.0
C      1  0.5464240000000  0.4517420000000  0.5396430000000 1.0
C      1  0.5147480000000  0.5273350000000  0.4883530000000 1.0
C      1  0.4174610000000  0.5300500000000  0.5095540000000 1.0
C      1  0.4744460000000  0.5822320000000  0.4976660000000 1.0
C      1  0.4309150000000  0.4835880000000  0.5110440000000 1.0
C      1  0.5178800000000  0.5771330000000  0.5407370000000 1.0
C      1  0.5211560000000  0.5552450000000  0.5622280000000 1.0
C      1  0.4514870000000  0.4837930000000  0.4581690000000 1.0
C      1  0.4560020000000  0.4739950000000  0.5635970000000 1.0
C      1  0.5382720000000  0.4904550000000  0.4309840000000 1.0
C      1  0.5559500000000  0.5540090000000  0.5122790000000 1.0
C      1  0.4504620000000  0.4629090000000  0.5024420000000 1.0
C      1  0.4474410000000  0.5677250000000  0.5203220000000 1.0
C      1  0.4899160000000  0.4746260000000  0.5350340000000 1.0
C      1  0.5034610000000  0.4585530000000  0.5595290000000 1.0
C      1  0.5248320000000  0.5885730000000  0.4940010000000 1.0
C      1  0.4515970000000  0.5256730000000  0.5485380000000 1.0
C      1  0.4926560000000  0.5134230000000  0.5757510000000 1.0
C      1  0.4690700000000  0.4327350000000  0.5413220000000 1.0
C      1  0.5138200000000  0.5727330000000  0.4737700000000 1.0
C      1  0.5136540000000  0.4597680000000  0.4566130000000 1.0
C      1  0.4495090000000  0.5305570000000  0.4513920000000 1.0
C      1  0.5317550000000  0.5384640000000  0.4424140000000 1.0
C      1  0.4835140000000  0.5694660000000  0.4731090000000 1.0
C      1  0.4950740000000  0.5193450000000  0.4263910000000 1.0
C      1  0.5137850000000  0.4343300000000  0.4442930000000 1.0
C      1  0.4779700000000  0.4580930000000  0.4243240000000 1.0
C      1  0.4507410000000  0.4330320000000  0.4625300000000 1.0
C      1  0.5293610000000  0.5344390000000  0.5423570000000 1.0
C      1  0.4684110000000  0.5713340000000  0.5398370000000 1.0
C      1  0.4376670000000  0.5408040000000  0.5257920000000 1.0
C      1  0.4916690000000  0.5739510000000  0.5222220000000 1.0
C      1  0.5776770000000  0.5016460000000  0.5270690000000 1.0
C      1  0.5095460000000  0.4942680000000  0.4235620000000 1.0
C      1  0.4944590000000  0.5440210000000  0.5734730000000 1.0
C      1  0.5325230000000  0.5045890000000  0.4894870000000 1.0
C      1  0.5293420000000  0.5478350000000  0.4706600000000 1.0
C      1  0.4683060000000  0.4188750000000  0.4480590000000 1.0
C      1  0.5501310000000  0.4635120000000  0.5120480000000 1.0
C      1  0.5240230000000  0.4772790000000  0.5732540000000 1.0
C      1  0.5624520000000  0.4986310000000  0.5506650000000 1.0
C      1  0.5112530000000  0.5419710000000  0.4230360000000 1.0
C      1  0.4950540000000  0.4759100000000  0.4407780000000 1.0
C      1  0.5529020000000  0.4435440000000  0.4900710000000 1.0
C      1  0.4536430000000  0.4867190000000  0.4280200000000 1.0
C      1  0.4783890000000  0.4760650000000  0.5057320000000 1.0
C      1  0.5178330000000  0.5042510000000  0.5624880000000 1.0
C      1  0.4678110000000  0.5026080000000  0.5608770000000 1.0
C      1  0.5044300000000  0.4636680000000  0.4903880000000 1.0
C      1  0.5621030000000  0.4607500000000  0.4673390000000 1.0
C      1  0.4873310000000  0.5166830000000  0.4781060000000 1.0
C      1  0.5081110000000  0.4968140000000  0.5341140000000 1.0
C      1  0.4890950000000  0.5196310000000  0.5263890000000 1.0
C      1  0.4444280000000  0.4577390000000  0.4731160000000 1.0
C      1  0.5577390000000  0.5450150000000  0.4839950000000 1.0
C      1  0.5015760000000  0.4267620000000  0.5249800000000 1.0
C      1  0.5357860000000  0.5758190000000  0.5166780000000 1.0
C      1  0.4298150000000  0.5085630000000  0.4964550000000 1.0
C      1  0.4740060000000  0.4488830000000  0.5667070000000 1.0
C      1  0.5750370000000  0.4801320000000  0.5085170000000 1.0
C      1  0.5254490000000  0.4812980000000  0.5060050000000 1.0
C      1  0.5410090000000  0.4632790000000  0.4454220000000 1.0
C      1  0.5198690000000  0.4375530000000  0.5459350000000 1.0
C      1  0.4875190000000  0.4315880000000  0.4322750000000 1.0
C      1  0.4353990000000  0.5077360000000  0.4671250000000 1.0
C      1  0.5748820000000  0.4859600000000  0.4791100000000 1.0
C      1  0.5572460000000  0.5108660000000  0.4743260000000 1.0
C      1  0.5584400000000  0.5340260000000  0.5345550000000 1.0
C      1  0.4456970000000  0.4437870000000  0.5266320000000 1.0
C      1  0.5093700000000  0.5402380000000  0.5173710000000 1.0
END
