TITL C-950521-2237-368 -1.12404264221998e-06 125000 -539.151152770854 0 0 88 (C1) n - 1
REM
REM in /home/bkarasulu/work/CARBON/AIRSS/Generating-Clusters/EDIP-Nigel-Params/with-SteepDescent/Only-C1/SD-CG/HFTN-CG
REM
REM
REM
REM
REM
REM ./C.cell (11c1c37f851c82e70ff6c80c92926a4b)
REM
REM compiler GCC version 9.2.1 20190827 (Red Hat 9.2.1-1)
REM options -cpp -mtune=generic -march=x86-64 -g -O0 -fpre-include=/usr/include/finclude/math-vector-fortran.h
REM seed 1999293696 345522143 524620849 1602552289 -1634296830 -799627179 -1792438764 -500605662 1807561721 -100225450 -2024809240 -1674910582 -1259715194 -1385848538 -2101871396 -227669809 -1164519947 -231610191 -393623845 -228210667 955143349 -210795574 1051537442 1512658241 -819334780 -2058746029 1124156294 -187157298 1660421072 -277783320 907693584 -2133417855 -229170936
REM
CELL 1.54180   50.00000   50.00000   50.00000   90.00000   90.00000   90.00000
LATT -1
SFAC C  
C      1  0.4921260000000  0.5543930000000  0.5593800000000 1.0
C      1  0.4750410000000  0.5188860000000  0.5254250000000 1.0
C      1  0.5260390000000  0.4638830000000  0.4272250000000 1.0
C      1  0.5414630000000  0.4967950000000  0.5319810000000 1.0
C      1  0.4879240000000  0.5299660000000  0.5769220000000 1.0
C      1  0.4194410000000  0.5081470000000  0.5088130000000 1.0
C      1  0.4408660000000  0.5615490000000  0.4674580000000 1.0
C      1  0.4658100000000  0.5040050000000  0.5695800000000 1.0
C      1  0.4775140000000  0.5071570000000  0.4331400000000 1.0
C      1  0.5539950000000  0.4640570000000  0.4660690000000 1.0
C      1  0.4341580000000  0.5271120000000  0.4943340000000 1.0
C      1  0.5852010000000  0.4604630000000  0.5158680000000 1.0
C      1  0.4864000000000  0.4997310000000  0.5450890000000 1.0
C      1  0.5892140000000  0.4822070000000  0.4983350000000 1.0
C      1  0.4894090000000  0.5334160000000  0.4857600000000 1.0
C      1  0.5129130000000  0.4961690000000  0.5647180000000 1.0
C      1  0.5656310000000  0.5374700000000  0.5297230000000 1.0
C      1  0.5065340000000  0.5847120000000  0.5206560000000 1.0
C      1  0.4746830000000  0.4213950000000  0.5221080000000 1.0
C      1  0.5562360000000  0.4986710000000  0.5572090000000 1.0
C      1  0.5446570000000  0.5544230000000  0.4652070000000 1.0
C      1  0.5826380000000  0.4751760000000  0.4705610000000 1.0
C      1  0.5379560000000  0.5682300000000  0.4901810000000 1.0
C      1  0.4404940000000  0.5111450000000  0.5518120000000 1.0
C      1  0.4457050000000  0.4255500000000  0.5314700000000 1.0
C      1  0.5478160000000  0.5050380000000  0.4384710000000 1.0
C      1  0.5138590000000  0.4537330000000  0.5536280000000 1.0
C      1  0.5386910000000  0.5248300000000  0.4968560000000 1.0
C      1  0.5649050000000  0.5351730000000  0.4703560000000 1.0
C      1  0.4751520000000  0.4392310000000  0.4987200000000 1.0
C      1  0.4835620000000  0.4806600000000  0.4678480000000 1.0
C      1  0.5602750000000  0.5268640000000  0.5581570000000 1.0
C      1  0.5038920000000  0.4700570000000  0.5782500000000 1.0
C      1  0.4840280000000  0.5280310000000  0.4147270000000 1.0
C      1  0.4744590000000  0.4688570000000  0.5100800000000 1.0
C      1  0.4576140000000  0.5663580000000  0.5159730000000 1.0
C      1  0.5245610000000  0.4246660000000  0.5221850000000 1.0
C      1  0.4541740000000  0.5169070000000  0.4503640000000 1.0
C      1  0.4511930000000  0.5332720000000  0.5346360000000 1.0
C      1  0.5804410000000  0.5171160000000  0.5129100000000 1.0
C      1  0.5383510000000  0.4629730000000  0.4928780000000 1.0
C      1  0.4360690000000  0.4767460000000  0.4702170000000 1.0
C      1  0.4678050000000  0.4653470000000  0.5478970000000 1.0
C      1  0.5316780000000  0.5760710000000  0.5359420000000 1.0
C      1  0.5382240000000  0.4801760000000  0.4463510000000 1.0
C      1  0.5705340000000  0.5164910000000  0.4495730000000 1.0
C      1  0.4851400000000  0.5637010000000  0.5276740000000 1.0
C      1  0.4957650000000  0.4369970000000  0.4526800000000 1.0
C      1  0.4745250000000  0.4593940000000  0.4490460000000 1.0
C      1  0.5013060000000  0.4804590000000  0.5085540000000 1.0
C      1  0.4333770000000  0.4947540000000  0.4460830000000 1.0
C      1  0.5219650000000  0.5512030000000  0.5500210000000 1.0
C      1  0.5220540000000  0.5300310000000  0.5253990000000 1.0
C      1  0.4898620000000  0.5710000000000  0.4757010000000 1.0
C      1  0.4981270000000  0.4316420000000  0.4811460000000 1.0
C      1  0.4993500000000  0.4221390000000  0.5371890000000 1.0
C      1  0.5229270000000  0.4390250000000  0.4405780000000 1.0
C      1  0.4765110000000  0.5511980000000  0.4303170000000 1.0
C      1  0.5159410000000  0.5201260000000  0.5833550000000 1.0
C      1  0.4278600000000  0.4934920000000  0.5309730000000 1.0
C      1  0.5256580000000  0.4327310000000  0.4917820000000 1.0
C      1  0.5224680000000  0.5442970000000  0.4496160000000 1.0
C      1  0.4295430000000  0.4352400000000  0.5078280000000 1.0
C      1  0.5448580000000  0.4402290000000  0.5356320000000 1.0
C      1  0.5896380000000  0.4968500000000  0.4545170000000 1.0
C      1  0.4621350000000  0.5682610000000  0.4868000000000 1.0
C      1  0.4466850000000  0.4506540000000  0.4612640000000 1.0
C      1  0.4693140000000  0.4789730000000  0.4254080000000 1.0
C      1  0.5196660000000  0.4756750000000  0.5309610000000 1.0
C      1  0.4603330000000  0.5176180000000  0.4810210000000 1.0
C      1  0.5373820000000  0.5396650000000  0.5726010000000 1.0
C      1  0.5445660000000  0.4342860000000  0.4611120000000 1.0
C      1  0.5155770000000  0.5180030000000  0.4769750000000 1.0
C      1  0.4425360000000  0.4502160000000  0.5473050000000 1.0
C      1  0.4235350000000  0.4647390000000  0.5316170000000 1.0
C      1  0.5572200000000  0.4582420000000  0.5168440000000 1.0
C      1  0.4939360000000  0.5368280000000  0.5151290000000 1.0
C      1  0.5105310000000  0.4868690000000  0.4803610000000 1.0
C      1  0.4608800000000  0.4869530000000  0.4857660000000 1.0
C      1  0.4408550000000  0.4803730000000  0.4225910000000 1.0
C      1  0.5124600000000  0.5822940000000  0.4920650000000 1.0
C      1  0.4488790000000  0.5463390000000  0.4423120000000 1.0
C      1  0.4742270000000  0.4728360000000  0.5771700000000 1.0
C      1  0.5561220000000  0.5013010000000  0.5058900000000 1.0
C      1  0.4972990000000  0.5581290000000  0.4500620000000 1.0
C      1  0.4490550000000  0.4338820000000  0.4856780000000 1.0
C      1  0.5505360000000  0.5623810000000  0.5170280000000 1.0
C      1  0.4200630000000  0.5476750000000  0.4809000000000 1.0
END
