TITL C-950523-3027-26 6.4935973588675e-07 125000 -603.669533531629 0 0 98 (C1) n - 1
REM
REM in /home/bkarasulu/work/CARBON/AIRSS/Generating-Clusters/EDIP-Nigel-Params/with-SteepDescent/Only-C1/SD-CG/HFTN-CG
REM
REM
REM
REM
REM
REM ./C.cell (11c1c37f851c82e70ff6c80c92926a4b)
REM
REM compiler GCC version 9.2.1 20190827 (Red Hat 9.2.1-1)
REM options -cpp -mtune=generic -march=x86-64 -g -O0 -fpre-include=/usr/include/finclude/math-vector-fortran.h
REM seed 299274863 -972619978 1828633010 945660103 -1272715381 -1843555690 -1243191204 -33819024 -964331981 -2009968014 -1652467314 1493578960 -20760412 1880090948 -1175008754 -1855047760 -1862431615 -1170043839 -1600200511 1830257135 725708467 -230374957 -765799317 -2042724795 1716775495 1439957512 812497150 1666330401 1111091293 1324612647 1285092868 558226565 108038395
REM
CELL 1.54180   50.00000   50.00000   50.00000   90.00000   90.00000   90.00000
LATT -1
SFAC C  
C      1  0.5340190000000  0.4923450000000  0.5046330000000 1.0
C      1  0.5125210000000  0.4503440000000  0.4319440000000 1.0
C      1  0.5542100000000  0.4904050000000  0.5807090000000 1.0
C      1  0.5878080000000  0.4909460000000  0.4845360000000 1.0
C      1  0.5443030000000  0.4421060000000  0.5203730000000 1.0
C      1  0.4748550000000  0.4708420000000  0.4715060000000 1.0
C      1  0.5475200000000  0.4733490000000  0.4582150000000 1.0
C      1  0.5727400000000  0.5225790000000  0.5182440000000 1.0
C      1  0.5129170000000  0.4946740000000  0.4266610000000 1.0
C      1  0.5924150000000  0.5193220000000  0.4954030000000 1.0
C      1  0.5814150000000  0.5384450000000  0.4749380000000 1.0
C      1  0.5629530000000  0.4475590000000  0.4978960000000 1.0
C      1  0.4667090000000  0.4375650000000  0.4439280000000 1.0
C      1  0.5107290000000  0.5479500000000  0.5407360000000 1.0
C      1  0.4530650000000  0.4811370000000  0.5816460000000 1.0
C      1  0.4401530000000  0.4426560000000  0.5146410000000 1.0
C      1  0.4790140000000  0.5372590000000  0.4100080000000 1.0
C      1  0.5128020000000  0.4841690000000  0.5265040000000 1.0
C      1  0.5546750000000  0.4575950000000  0.5443210000000 1.0
C      1  0.4491810000000  0.5722120000000  0.4822350000000 1.0
C      1  0.4618640000000  0.5080030000000  0.5873190000000 1.0
C      1  0.5719580000000  0.5481690000000  0.5335090000000 1.0
C      1  0.5453100000000  0.5722640000000  0.4682680000000 1.0
C      1  0.4120190000000  0.4840240000000  0.4591470000000 1.0
C      1  0.5388260000000  0.4723240000000  0.5658280000000 1.0
C      1  0.4566860000000  0.5223240000000  0.5626110000000 1.0
C      1  0.4896940000000  0.5103440000000  0.5905020000000 1.0
C      1  0.4833010000000  0.4592270000000  0.4308820000000 1.0
C      1  0.5316530000000  0.4727890000000  0.4317500000000 1.0
C      1  0.5749710000000  0.4752380000000  0.5321260000000 1.0
C      1  0.4967070000000  0.5036760000000  0.5134610000000 1.0
C      1  0.5548810000000  0.4452150000000  0.4698210000000 1.0
C      1  0.4655720000000  0.5798320000000  0.5073140000000 1.0
C      1  0.4844890000000  0.4234070000000  0.4646680000000 1.0
C      1  0.4261350000000  0.5568600000000  0.4943560000000 1.0
C      1  0.4593870000000  0.4532070000000  0.5354680000000 1.0
C      1  0.5248160000000  0.4201240000000  0.5157450000000 1.0
C      1  0.5018540000000  0.5420470000000  0.4252640000000 1.0
C      1  0.5427100000000  0.5534980000000  0.5767190000000 1.0
C      1  0.4861270000000  0.5475630000000  0.5001270000000 1.0
C      1  0.5193780000000  0.5411730000000  0.5665450000000 1.0
C      1  0.4683970000000  0.4832580000000  0.5306290000000 1.0
C      1  0.4955720000000  0.5778050000000  0.5001790000000 1.0
C      1  0.4530780000000  0.5081230000000  0.4915810000000 1.0
C      1  0.5102780000000  0.4392670000000  0.4606160000000 1.0
C      1  0.4945310000000  0.4483550000000  0.5663250000000 1.0
C      1  0.5634150000000  0.5208700000000  0.4583250000000 1.0
C      1  0.5648330000000  0.5618020000000  0.4861010000000 1.0
C      1  0.4759360000000  0.4939130000000  0.4507340000000 1.0
C      1  0.4155950000000  0.5331480000000  0.4796530000000 1.0
C      1  0.5377090000000  0.5226700000000  0.4748740000000 1.0
C      1  0.5144540000000  0.4863010000000  0.5550220000000 1.0
C      1  0.4137410000000  0.4824950000000  0.4877160000000 1.0
C      1  0.4549000000000  0.5268980000000  0.4193460000000 1.0
C      1  0.4451830000000  0.5025570000000  0.5436010000000 1.0
C      1  0.4325570000000  0.4755720000000  0.4413420000000 1.0
C      1  0.5420040000000  0.5863510000000  0.5227460000000 1.0
C      1  0.4280240000000  0.5287820000000  0.4544200000000 1.0
C      1  0.4769620000000  0.4189050000000  0.4944070000000 1.0
C      1  0.4615170000000  0.4816600000000  0.4980850000000 1.0
C      1  0.5266390000000  0.5511390000000  0.4665830000000 1.0
C      1  0.4498410000000  0.4189450000000  0.5025200000000 1.0
C      1  0.4317660000000  0.5481280000000  0.5227660000000 1.0
C      1  0.4453410000000  0.4527640000000  0.4539780000000 1.0
C      1  0.5205780000000  0.5209590000000  0.4234510000000 1.0
C      1  0.5722140000000  0.4924990000000  0.4587530000000 1.0
C      1  0.4633840000000  0.5177700000000  0.4658620000000 1.0
C      1  0.5156140000000  0.5868050000000  0.5173820000000 1.0
C      1  0.5135810000000  0.4367460000000  0.5835590000000 1.0
C      1  0.5040800000000  0.4637110000000  0.4775330000000 1.0
C      1  0.4865780000000  0.5342120000000  0.4734550000000 1.0
C      1  0.5327340000000  0.4558870000000  0.5872360000000 1.0
C      1  0.5251990000000  0.4853990000000  0.4758900000000 1.0
C      1  0.5625550000000  0.5690480000000  0.5150120000000 1.0
C      1  0.4578270000000  0.5599650000000  0.5305920000000 1.0
C      1  0.5446800000000  0.5201420000000  0.5057740000000 1.0
C      1  0.4822100000000  0.4352610000000  0.5423210000000 1.0
C      1  0.4960770000000  0.4935210000000  0.4044100000000 1.0
C      1  0.5737230000000  0.4732720000000  0.5036590000000 1.0
C      1  0.4724600000000  0.4785970000000  0.4097400000000 1.0
C      1  0.4612210000000  0.5645470000000  0.4553530000000 1.0
C      1  0.4977300000000  0.5536810000000  0.4530370000000 1.0
C      1  0.4542210000000  0.4946130000000  0.4282520000000 1.0
C      1  0.5319810000000  0.4085530000000  0.4911510000000 1.0
C      1  0.4258780000000  0.5182970000000  0.5254370000000 1.0
C      1  0.5346550000000  0.4241240000000  0.4679340000000 1.0
C      1  0.5633330000000  0.5406020000000  0.5619100000000 1.0
C      1  0.4243230000000  0.5099680000000  0.4966880000000 1.0
C      1  0.4322010000000  0.4836250000000  0.5622750000000 1.0
C      1  0.5672720000000  0.5111640000000  0.5657280000000 1.0
C      1  0.4986310000000  0.5318950000000  0.5205850000000 1.0
C      1  0.4956020000000  0.4257100000000  0.5170710000000 1.0
C      1  0.4946940000000  0.5370260000000  0.5804110000000 1.0
C      1  0.4373410000000  0.4649430000000  0.4952420000000 1.0
C      1  0.4878780000000  0.4785670000000  0.5683340000000 1.0
C      1  0.4439970000000  0.5462340000000  0.4392460000000 1.0
C      1  0.4742740000000  0.5455420000000  0.5546240000000 1.0
C      1  0.5766560000000  0.5026370000000  0.5400390000000 1.0
END
