TITL C-950521-2237-182 -6.36736945400937e-07 125000 -638.996127166228 0 0 102 (C1) n - 1
REM
REM in /home/bkarasulu/work/CARBON/AIRSS/Generating-Clusters/EDIP-Nigel-Params/with-SteepDescent/Only-C1/SD-CG/HFTN-CG
REM
REM
REM
REM
REM
REM ./C.cell (11c1c37f851c82e70ff6c80c92926a4b)
REM
REM compiler GCC version 9.2.1 20190827 (Red Hat 9.2.1-1)
REM options -cpp -mtune=generic -march=x86-64 -g -O0 -fpre-include=/usr/include/finclude/math-vector-fortran.h
REM seed -2027552702 1964870932 -823470459 729882078 1121357860 -934723095 -541573545 -1932278342 -142854023 -588746583 -1137735878 -1024540822 2128052412 -997145748 -1749523128 497512774 934568078 -960241239 -1840178739 -1157682253 1785694893 1947600764 407804565 -214018689 -1770287854 1957472627 1545376945 -339321860 1465970931 1061362220 -1604171606 -657731793 -1400461351
REM
CELL 1.54180   50.00000   50.00000   50.00000   90.00000   90.00000   90.00000
LATT -1
SFAC C  
C      1  0.5161390000000  0.5209870000000  0.4781360000000 1.0
C      1  0.5808910000000  0.5048520000000  0.5435900000000 1.0
C      1  0.4624840000000  0.4845570000000  0.4857560000000 1.0
C      1  0.4893020000000  0.4782960000000  0.5829800000000 1.0
C      1  0.5166470000000  0.5595520000000  0.5607010000000 1.0
C      1  0.5079870000000  0.4843510000000  0.5016140000000 1.0
C      1  0.5228730000000  0.4564770000000  0.5564870000000 1.0
C      1  0.5402150000000  0.4938120000000  0.5826780000000 1.0
C      1  0.4154870000000  0.4877350000000  0.5373010000000 1.0
C      1  0.5473590000000  0.4576990000000  0.4387710000000 1.0
C      1  0.4350430000000  0.5317230000000  0.4775350000000 1.0
C      1  0.4326280000000  0.4772990000000  0.4395960000000 1.0
C      1  0.4303150000000  0.5520360000000  0.4992990000000 1.0
C      1  0.4684700000000  0.5208030000000  0.5163950000000 1.0
C      1  0.5756690000000  0.5413000000000  0.5117020000000 1.0
C      1  0.4774440000000  0.4617310000000  0.4739390000000 1.0
C      1  0.4891980000000  0.4173020000000  0.4721790000000 1.0
C      1  0.4652410000000  0.5670400000000  0.4766460000000 1.0
C      1  0.5602370000000  0.5376520000000  0.4859180000000 1.0
C      1  0.5226480000000  0.5126530000000  0.5394090000000 1.0
C      1  0.5117730000000  0.5494470000000  0.4822540000000 1.0
C      1  0.4932770000000  0.4763600000000  0.5238410000000 1.0
C      1  0.4035640000000  0.5132160000000  0.5104210000000 1.0
C      1  0.5117390000000  0.5140720000000  0.4262100000000 1.0
C      1  0.5612300000000  0.5479070000000  0.5365990000000 1.0
C      1  0.4191490000000  0.5197620000000  0.5338960000000 1.0
C      1  0.5671750000000  0.5276600000000  0.5570640000000 1.0
C      1  0.5400130000000  0.5603380000000  0.4769330000000 1.0
C      1  0.4253230000000  0.4629400000000  0.4650150000000 1.0
C      1  0.5881530000000  0.5042040000000  0.4668470000000 1.0
C      1  0.4239820000000  0.4701180000000  0.5139470000000 1.0
C      1  0.4888720000000  0.4465140000000  0.4269710000000 1.0
C      1  0.4832620000000  0.5237720000000  0.5652010000000 1.0
C      1  0.4959990000000  0.5331080000000  0.5316610000000 1.0
C      1  0.4973530000000  0.4516040000000  0.5733240000000 1.0
C      1  0.5249060000000  0.5396580000000  0.5798040000000 1.0
C      1  0.5114900000000  0.4954700000000  0.5941730000000 1.0
C      1  0.5047740000000  0.4234410000000  0.5216670000000 1.0
C      1  0.5638550000000  0.5358320000000  0.4380710000000 1.0
C      1  0.5034890000000  0.4675940000000  0.4112910000000 1.0
C      1  0.4505820000000  0.5642480000000  0.5364550000000 1.0
C      1  0.5402660000000  0.5186140000000  0.5654690000000 1.0
C      1  0.4643510000000  0.5428710000000  0.4247720000000 1.0
C      1  0.5207130000000  0.4791020000000  0.4578690000000 1.0
C      1  0.4634930000000  0.5633610000000  0.5619360000000 1.0
C      1  0.5021830000000  0.5238490000000  0.5890730000000 1.0
C      1  0.5256880000000  0.5763920000000  0.5160200000000 1.0
C      1  0.4514360000000  0.4574560000000  0.4295570000000 1.0
C      1  0.5276460000000  0.4364740000000  0.5340970000000 1.0
C      1  0.4907500000000  0.5704290000000  0.5627160000000 1.0
C      1  0.5320590000000  0.4710790000000  0.4161480000000 1.0
C      1  0.5362500000000  0.4293680000000  0.4860830000000 1.0
C      1  0.4586370000000  0.4364490000000  0.5123060000000 1.0
C      1  0.5043370000000  0.5052000000000  0.4557120000000 1.0
C      1  0.5106460000000  0.4155260000000  0.4936140000000 1.0
C      1  0.4321480000000  0.4815970000000  0.4876150000000 1.0
C      1  0.5152590000000  0.5437940000000  0.4259390000000 1.0
C      1  0.5429740000000  0.5830790000000  0.4944510000000 1.0
C      1  0.4645340000000  0.4354460000000  0.4822120000000 1.0
C      1  0.4455400000000  0.5008440000000  0.5745950000000 1.0
C      1  0.4719990000000  0.4954970000000  0.5628940000000 1.0
C      1  0.5372250000000  0.5657620000000  0.5404130000000 1.0
C      1  0.4498140000000  0.5047560000000  0.4423280000000 1.0
C      1  0.4358860000000  0.5318160000000  0.4467280000000 1.0
C      1  0.4712430000000  0.5051230000000  0.4655600000000 1.0
C      1  0.5872850000000  0.4682690000000  0.5005440000000 1.0
C      1  0.5688970000000  0.4879910000000  0.4493170000000 1.0
C      1  0.5863620000000  0.4956450000000  0.4948880000000 1.0
C      1  0.4655780000000  0.5287050000000  0.4846300000000 1.0
C      1  0.4494240000000  0.5740210000000  0.4993880000000 1.0
C      1  0.5644200000000  0.4795700000000  0.5425020000000 1.0
C      1  0.5341660000000  0.4943640000000  0.5150020000000 1.0
C      1  0.4306440000000  0.4789050000000  0.5632910000000 1.0
C      1  0.5364460000000  0.5002910000000  0.4153950000000 1.0
C      1  0.5794020000000  0.5326690000000  0.4634350000000 1.0
C      1  0.4636400000000  0.5137070000000  0.4164540000000 1.0
C      1  0.4895050000000  0.5543980000000  0.4360930000000 1.0
C      1  0.5045160000000  0.4282400000000  0.4476080000000 1.0
C      1  0.4386330000000  0.4373230000000  0.4677330000000 1.0
C      1  0.4900080000000  0.5017720000000  0.4099680000000 1.0
C      1  0.4745360000000  0.4642880000000  0.4446370000000 1.0
C      1  0.5478330000000  0.4705420000000  0.5658530000000 1.0
C      1  0.4420420000000  0.5377290000000  0.5242710000000 1.0
C      1  0.5463070000000  0.4423710000000  0.5123830000000 1.0
C      1  0.4775950000000  0.4272730000000  0.5323690000000 1.0
C      1  0.5315910000000  0.4374150000000  0.4566630000000 1.0
C      1  0.5056140000000  0.5553190000000  0.5109340000000 1.0
C      1  0.5463800000000  0.4891630000000  0.4691980000000 1.0
C      1  0.5657320000000  0.4636890000000  0.5178570000000 1.0
C      1  0.5619370000000  0.5077340000000  0.4276220000000 1.0
C      1  0.4183870000000  0.5081410000000  0.4860300000000 1.0
C      1  0.4486130000000  0.4620890000000  0.5264880000000 1.0
C      1  0.5065380000000  0.4658610000000  0.4798810000000 1.0
C      1  0.4733350000000  0.4427060000000  0.5577500000000 1.0
C      1  0.5892070000000  0.5152230000000  0.5165860000000 1.0
C      1  0.5108520000000  0.4832170000000  0.5451920000000 1.0
C      1  0.4584550000000  0.5373950000000  0.5730120000000 1.0
C      1  0.4455690000000  0.4529510000000  0.5636090000000 1.0
C      1  0.4680120000000  0.4882220000000  0.5297260000000 1.0
C      1  0.4897930000000  0.5595770000000  0.4649200000000 1.0
C      1  0.5396380000000  0.5529780000000  0.4398420000000 1.0
C      1  0.5417920000000  0.5112410000000  0.4885420000000 1.0
END
