TITL C-950523-3027-96 -3.13745997805631e-06 125000 -1036.20807661196 0 0 165 (C1) n - 1
REM
REM in /home/bkarasulu/work/CARBON/AIRSS/Generating-Clusters/EDIP-Nigel-Params/with-SteepDescent/Only-C1/SD-CG/HFTN-CG
REM
REM
REM
REM
REM
REM ./C.cell (11c1c37f851c82e70ff6c80c92926a4b)
REM
REM compiler GCC version 9.2.1 20190827 (Red Hat 9.2.1-1)
REM options -cpp -mtune=generic -march=x86-64 -g -O0 -fpre-include=/usr/include/finclude/math-vector-fortran.h
REM seed -2086204025 -571269989 1829743988 283757138 226461443 178716261 -1286762988 -1011352768 -425385696 984868730 -1349874658 -101772483 639157856 876667867 1244433323 1525013225 -1071207054 -165205634 -428157762 1218995058 -1464203362 -899787903 -772086390 -1750851583 -1385796282 -231033626 427772886 108404895 -1080265014 -1861944896 -1737263262 980170528 1486437074
REM
CELL 1.54180   50.00000   50.00000   50.00000   90.00000   90.00000   90.00000
LATT -1
SFAC C  
C      1  0.4976890000000  0.5125210000000  0.6072140000000 1.0
C      1  0.4736380000000  0.4486570000000  0.4672570000000 1.0
C      1  0.5102780000000  0.4368860000000  0.4148050000000 1.0
C      1  0.6082440000000  0.5291140000000  0.4867910000000 1.0
C      1  0.3924120000000  0.4995000000000  0.4459260000000 1.0
C      1  0.5386330000000  0.5060920000000  0.4405930000000 1.0
C      1  0.4812890000000  0.5836080000000  0.4286980000000 1.0
C      1  0.4606310000000  0.4904400000000  0.3999960000000 1.0
C      1  0.5687080000000  0.5050920000000  0.4091070000000 1.0
C      1  0.5218970000000  0.4691020000000  0.4992700000000 1.0
C      1  0.4390490000000  0.4423980000000  0.4293820000000 1.0
C      1  0.6049700000000  0.4924620000000  0.4693940000000 1.0
C      1  0.5101890000000  0.5390690000000  0.5291730000000 1.0
C      1  0.5353630000000  0.4344180000000  0.4301250000000 1.0
C      1  0.4226070000000  0.4678490000000  0.4260060000000 1.0
C      1  0.4309220000000  0.5815680000000  0.4941000000000 1.0
C      1  0.5787150000000  0.4875280000000  0.4563970000000 1.0
C      1  0.5191580000000  0.4680330000000  0.5559090000000 1.0
C      1  0.5177270000000  0.4974560000000  0.5927820000000 1.0
C      1  0.4999940000000  0.4261140000000  0.4649080000000 1.0
C      1  0.5424320000000  0.5352460000000  0.5301760000000 1.0
C      1  0.4900530000000  0.5521720000000  0.5534360000000 1.0
C      1  0.3998080000000  0.4834490000000  0.5041490000000 1.0
C      1  0.4969130000000  0.5510150000000  0.5835940000000 1.0
C      1  0.5518430000000  0.5755750000000  0.4327410000000 1.0
C      1  0.4730610000000  0.5271140000000  0.5512070000000 1.0
C      1  0.5181140000000  0.5261530000000  0.4318560000000 1.0
C      1  0.4629810000000  0.4405070000000  0.4118770000000 1.0
C      1  0.4317610000000  0.4473160000000  0.5887580000000 1.0
C      1  0.5028190000000  0.5667320000000  0.4397980000000 1.0
C      1  0.4898820000000  0.6026630000000  0.4718290000000 1.0
C      1  0.4849230000000  0.4241900000000  0.5820740000000 1.0
C      1  0.4114290000000  0.5338410000000  0.4970930000000 1.0
C      1  0.4391380000000  0.4968180000000  0.4747770000000 1.0
C      1  0.5958060000000  0.4310170000000  0.4873360000000 1.0
C      1  0.5695540000000  0.5653390000000  0.4547740000000 1.0
C      1  0.5090080000000  0.4230680000000  0.5375540000000 1.0
C      1  0.5781040000000  0.5671500000000  0.5052630000000 1.0
C      1  0.5504500000000  0.4216410000000  0.4764730000000 1.0
C      1  0.4071010000000  0.5107020000000  0.5152420000000 1.0
C      1  0.5523310000000  0.4258420000000  0.5073140000000 1.0
C      1  0.4169910000000  0.4646380000000  0.5438240000000 1.0
C      1  0.5770570000000  0.5369610000000  0.4467280000000 1.0
C      1  0.4752580000000  0.4645090000000  0.3981030000000 1.0
C      1  0.4962660000000  0.5898600000000  0.5184380000000 1.0
C      1  0.4722950000000  0.5178620000000  0.4473860000000 1.0
C      1  0.4799550000000  0.5165280000000  0.4852990000000 1.0
C      1  0.4668330000000  0.4782070000000  0.5831250000000 1.0
C      1  0.3978320000000  0.4624350000000  0.5238540000000 1.0
C      1  0.5262510000000  0.5945260000000  0.5143660000000 1.0
C      1  0.5540910000000  0.4548680000000  0.4196320000000 1.0
C      1  0.5575700000000  0.5807010000000  0.5790940000000 1.0
C      1  0.5786170000000  0.4827050000000  0.4260930000000 1.0
C      1  0.5534000000000  0.4135630000000  0.5528970000000 1.0
C      1  0.5617510000000  0.5619240000000  0.5305380000000 1.0
C      1  0.4935860000000  0.5069940000000  0.5433710000000 1.0
C      1  0.5148430000000  0.4676080000000  0.5996800000000 1.0
C      1  0.4803950000000  0.5322270000000  0.5978690000000 1.0
C      1  0.4664320000000  0.5047460000000  0.5086960000000 1.0
C      1  0.5439750000000  0.5850280000000  0.5351740000000 1.0
C      1  0.5376910000000  0.5909630000000  0.4876920000000 1.0
C      1  0.4847880000000  0.4250760000000  0.4237420000000 1.0
C      1  0.5340040000000  0.4638820000000  0.4701750000000 1.0
C      1  0.4168150000000  0.4211270000000  0.4961440000000 1.0
C      1  0.4798380000000  0.4332190000000  0.5362910000000 1.0
C      1  0.5957140000000  0.4942070000000  0.5196020000000 1.0
C      1  0.4653040000000  0.4245960000000  0.5609330000000 1.0
C      1  0.5452920000000  0.5402040000000  0.6007990000000 1.0
C      1  0.5341320000000  0.4237940000000  0.5741810000000 1.0
C      1  0.4993280000000  0.3962270000000  0.4965070000000 1.0
C      1  0.5297120000000  0.4987800000000  0.5018710000000 1.0
C      1  0.5077510000000  0.3777340000000  0.4769830000000 1.0
C      1  0.4875910000000  0.5951790000000  0.5470580000000 1.0
C      1  0.4629060000000  0.4300410000000  0.5106040000000 1.0
C      1  0.4945540000000  0.5577240000000  0.4033130000000 1.0
C      1  0.4388810000000  0.4743150000000  0.5925450000000 1.0
C      1  0.5539510000000  0.5024430000000  0.5470240000000 1.0
C      1  0.4369690000000  0.5388480000000  0.5748860000000 1.0
C      1  0.4636320000000  0.5803460000000  0.5562610000000 1.0
C      1  0.5976840000000  0.5047730000000  0.4929080000000 1.0
C      1  0.5552020000000  0.5159640000000  0.4971670000000 1.0
C      1  0.5795920000000  0.5588470000000  0.5549990000000 1.0
C      1  0.5746750000000  0.4377820000000  0.4698750000000 1.0
C      1  0.5055970000000  0.4656960000000  0.4079410000000 1.0
C      1  0.4934450000000  0.5599000000000  0.5111160000000 1.0
C      1  0.4938080000000  0.5097930000000  0.4282950000000 1.0
C      1  0.4284550000000  0.5205160000000  0.4242880000000 1.0
C      1  0.4233500000000  0.4390190000000  0.4760670000000 1.0
C      1  0.4192020000000  0.5168970000000  0.5654040000000 1.0
C      1  0.5916100000000  0.5315900000000  0.5529340000000 1.0
C      1  0.4928620000000  0.4691410000000  0.5087040000000 1.0
C      1  0.4897330000000  0.4629630000000  0.5381840000000 1.0
C      1  0.5190570000000  0.5982640000000  0.4666830000000 1.0
C      1  0.5066920000000  0.3927860000000  0.4533030000000 1.0
C      1  0.4467610000000  0.4336950000000  0.4582670000000 1.0
C      1  0.4022210000000  0.4732540000000  0.4472680000000 1.0
C      1  0.4396230000000  0.4819520000000  0.5358940000000 1.0
C      1  0.4285640000000  0.5102630000000  0.5369410000000 1.0
C      1  0.4221460000000  0.5587400000000  0.5098600000000 1.0
C      1  0.4686380000000  0.4572310000000  0.4959810000000 1.0
C      1  0.4769070000000  0.4725210000000  0.4512480000000 1.0
C      1  0.5209860000000  0.5529020000000  0.5971160000000 1.0
C      1  0.4716150000000  0.5456970000000  0.4818870000000 1.0
C      1  0.5248390000000  0.5867010000000  0.4402640000000 1.0
C      1  0.4721320000000  0.4071660000000  0.4925580000000 1.0
C      1  0.5088830000000  0.5165880000000  0.4910390000000 1.0
C      1  0.4455780000000  0.5485940000000  0.4640930000000 1.0
C      1  0.5911280000000  0.4666280000000  0.5258470000000 1.0
C      1  0.4374440000000  0.4318120000000  0.5659760000000 1.0
C      1  0.5901290000000  0.5173430000000  0.5770540000000 1.0
C      1  0.4717630000000  0.6015290000000  0.4486390000000 1.0
C      1  0.4327790000000  0.5757330000000  0.4662220000000 1.0
C      1  0.4980220000000  0.5599240000000  0.4727890000000 1.0
C      1  0.4602630000000  0.4065320000000  0.4642430000000 1.0
C      1  0.5094780000000  0.5987170000000  0.5648530000000 1.0
C      1  0.5665220000000  0.5566280000000  0.5909980000000 1.0
C      1  0.5347150000000  0.4504940000000  0.5864320000000 1.0
C      1  0.5291120000000  0.4357430000000  0.4600960000000 1.0
C      1  0.5400510000000  0.4801990000000  0.4110580000000 1.0
C      1  0.5465550000000  0.4694890000000  0.5394000000000 1.0
C      1  0.4447130000000  0.5974680000000  0.4534460000000 1.0
C      1  0.5451280000000  0.5431150000000  0.4875120000000 1.0
C      1  0.5652610000000  0.5037640000000  0.5752900000000 1.0
C      1  0.5498990000000  0.5547780000000  0.4102180000000 1.0
C      1  0.4805980000000  0.4010520000000  0.4417970000000 1.0
C      1  0.4407420000000  0.4923680000000  0.4235300000000 1.0
C      1  0.4339070000000  0.4260010000000  0.5171800000000 1.0
C      1  0.5215530000000  0.5427840000000  0.4086290000000 1.0
C      1  0.5082600000000  0.4149230000000  0.5668350000000 1.0
C      1  0.4511250000000  0.5998950000000  0.5017730000000 1.0
C      1  0.6005050000000  0.5520130000000  0.4993110000000 1.0
C      1  0.5738970000000  0.4580370000000  0.5470730000000 1.0
C      1  0.5770310000000  0.4297700000000  0.5511300000000 1.0
C      1  0.5642970000000  0.4652480000000  0.4708210000000 1.0
C      1  0.4253850000000  0.5252670000000  0.4715830000000 1.0
C      1  0.4612190000000  0.5217420000000  0.5785720000000 1.0
C      1  0.5586330000000  0.5686150000000  0.4831510000000 1.0
C      1  0.5185110000000  0.5404150000000  0.4805740000000 1.0
C      1  0.4868480000000  0.4595260000000  0.5952380000000 1.0
C      1  0.4095030000000  0.4645100000000  0.4741700000000 1.0
C      1  0.5000090000000  0.4808280000000  0.4349740000000 1.0
C      1  0.4541970000000  0.5237490000000  0.5281080000000 1.0
C      1  0.5331940000000  0.4482770000000  0.5194200000000 1.0
C      1  0.5781270000000  0.5148020000000  0.5316870000000 1.0
C      1  0.5821710000000  0.4318210000000  0.5127830000000 1.0
C      1  0.4483520000000  0.4815140000000  0.5010080000000 1.0
C      1  0.5443570000000  0.4010960000000  0.5239530000000 1.0
C      1  0.4215820000000  0.4943780000000  0.5824580000000 1.0
C      1  0.4200710000000  0.4356460000000  0.5418070000000 1.0
C      1  0.4533910000000  0.5373320000000  0.4303470000000 1.0
C      1  0.5234730000000  0.4837680000000  0.4515780000000 1.0
C      1  0.5133460000000  0.4962510000000  0.5628500000000 1.0
C      1  0.5623240000000  0.5133840000000  0.4602360000000 1.0
C      1  0.4672940000000  0.4802170000000  0.5520590000000 1.0
C      1  0.5348110000000  0.5863870000000  0.5618230000000 1.0
C      1  0.5140590000000  0.3985240000000  0.5218040000000 1.0
C      1  0.4788370000000  0.6044980000000  0.4988800000000 1.0
C      1  0.4703950000000  0.5395570000000  0.4034280000000 1.0
C      1  0.4562510000000  0.4930060000000  0.4502200000000 1.0
C      1  0.4085500000000  0.5223350000000  0.4462770000000 1.0
C      1  0.5712530000000  0.5334350000000  0.4176070000000 1.0
C      1  0.4410120000000  0.5610040000000  0.5550400000000 1.0
C      1  0.4197060000000  0.5639100000000  0.5371240000000 1.0
C      1  0.5453730000000  0.5108350000000  0.5959890000000 1.0
C      1  0.4811590000000  0.5120940000000  0.4008870000000 1.0
END
