TITL C-950534-5965-8 1.69741500048761e-06 125000 -1213.73872956331 0 0 194 (C1) n - 1
REM
REM in /home/bkarasulu/work/CARBON/AIRSS/Generating-Clusters/EDIP-Nigel-Params/with-SteepDescent/Only-C1/SD-CG/HFTN-CG
REM
REM
REM
REM
REM
REM ./C.cell (11c1c37f851c82e70ff6c80c92926a4b)
REM
REM compiler GCC version 9.2.1 20190827 (Red Hat 9.2.1-1)
REM options -cpp -mtune=generic -march=x86-64 -g -O0 -fpre-include=/usr/include/finclude/math-vector-fortran.h
REM seed -297133752 1941088387 1596806539 -1761534456 182467228 1952157358 104480216 -703440940 -335993865 404823464 -618798936 -197186718 1743368484 1994100518 1257734514 1661398964 1498645412 818566129 795425000 1421292109 1265993582 -1236301274 -1171853375 -1394398156 1025422056 1000234075 -1873175377 1043183503 -1236667359 -1463079476 -856039970 -428252814 -1405322196
REM
CELL 1.54180   50.00000   50.00000   50.00000   90.00000   90.00000   90.00000
LATT -1
SFAC C  
C      1  0.5043620000000  0.5944530000000  0.4289890000000 1.0
C      1  0.5547280000000  0.4610210000000  0.5866010000000 1.0
C      1  0.4352610000000  0.4849370000000  0.5421400000000 1.0
C      1  0.4772290000000  0.5466160000000  0.5857500000000 1.0
C      1  0.5375980000000  0.5340400000000  0.5483810000000 1.0
C      1  0.4962510000000  0.4401520000000  0.5114450000000 1.0
C      1  0.4809910000000  0.4835700000000  0.5468250000000 1.0
C      1  0.4010440000000  0.4863590000000  0.4244560000000 1.0
C      1  0.3973380000000  0.4761190000000  0.5142220000000 1.0
C      1  0.5388540000000  0.4763750000000  0.5053910000000 1.0
C      1  0.5219360000000  0.5680170000000  0.5720460000000 1.0
C      1  0.4162130000000  0.4607810000000  0.4235570000000 1.0
C      1  0.5504020000000  0.5555260000000  0.5643140000000 1.0
C      1  0.5306610000000  0.4288400000000  0.5143910000000 1.0
C      1  0.4838590000000  0.5404870000000  0.5368840000000 1.0
C      1  0.4619380000000  0.4397070000000  0.5465630000000 1.0
C      1  0.4751910000000  0.4438690000000  0.4601360000000 1.0
C      1  0.5435680000000  0.4322920000000  0.5779950000000 1.0
C      1  0.4841740000000  0.4965850000000  0.4224040000000 1.0
C      1  0.5130180000000  0.5249010000000  0.6044640000000 1.0
C      1  0.4858790000000  0.4465390000000  0.4307800000000 1.0
C      1  0.5969380000000  0.5480310000000  0.5596220000000 1.0
C      1  0.5792260000000  0.4803860000000  0.4550600000000 1.0
C      1  0.4176870000000  0.4431610000000  0.5714380000000 1.0
C      1  0.4100060000000  0.4788630000000  0.4672840000000 1.0
C      1  0.5381460000000  0.5103320000000  0.6112370000000 1.0
C      1  0.4768590000000  0.5938680000000  0.5689850000000 1.0
C      1  0.6260680000000  0.4876630000000  0.4638940000000 1.0
C      1  0.4490970000000  0.5007800000000  0.5212110000000 1.0
C      1  0.4518920000000  0.4138870000000  0.5597230000000 1.0
C      1  0.3882390000000  0.5473860000000  0.5018520000000 1.0
C      1  0.4132470000000  0.5115200000000  0.4158500000000 1.0
C      1  0.4139170000000  0.4395310000000  0.5435880000000 1.0
C      1  0.3981140000000  0.5485320000000  0.4517750000000 1.0
C      1  0.5114960000000  0.4868830000000  0.5115320000000 1.0
C      1  0.4883980000000  0.4240250000000  0.5912390000000 1.0
C      1  0.5523450000000  0.4799510000000  0.4403670000000 1.0
C      1  0.5327580000000  0.4662450000000  0.6068820000000 1.0
C      1  0.5550610000000  0.3985570000000  0.4691440000000 1.0
C      1  0.5241390000000  0.4383930000000  0.4027410000000 1.0
C      1  0.4118090000000  0.4084690000000  0.5068830000000 1.0
C      1  0.4644210000000  0.4702500000000  0.5995590000000 1.0
C      1  0.5113070000000  0.4672510000000  0.5870160000000 1.0
C      1  0.5899600000000  0.5542810000000  0.4513390000000 1.0
C      1  0.4410340000000  0.5120210000000  0.4080510000000 1.0
C      1  0.5363060000000  0.4899850000000  0.5478590000000 1.0
C      1  0.4085370000000  0.5671760000000  0.5072880000000 1.0
C      1  0.5603790000000  0.5526970000000  0.4584820000000 1.0
C      1  0.5345130000000  0.4830590000000  0.3926660000000 1.0
C      1  0.3778820000000  0.5074560000000  0.4784180000000 1.0
C      1  0.5441560000000  0.4035570000000  0.5396310000000 1.0
C      1  0.4684070000000  0.5549510000000  0.4056490000000 1.0
C      1  0.4783490000000  0.6058730000000  0.5430200000000 1.0
C      1  0.4552760000000  0.4887450000000  0.4707110000000 1.0
C      1  0.4408040000000  0.5683580000000  0.5599730000000 1.0
C      1  0.5456870000000  0.6026760000000  0.4493410000000 1.0
C      1  0.4206160000000  0.4634080000000  0.5259960000000 1.0
C      1  0.4478620000000  0.5752910000000  0.4817070000000 1.0
C      1  0.5505350000000  0.6000690000000  0.5393450000000 1.0
C      1  0.4943580000000  0.4004380000000  0.4617700000000 1.0
C      1  0.5281490000000  0.5110050000000  0.3972130000000 1.0
C      1  0.6236250000000  0.5237490000000  0.5221470000000 1.0
C      1  0.3881300000000  0.5254730000000  0.5225290000000 1.0
C      1  0.5020300000000  0.4724040000000  0.4259470000000 1.0
C      1  0.4667260000000  0.4142090000000  0.4586620000000 1.0
C      1  0.4223400000000  0.4557540000000  0.4530720000000 1.0
C      1  0.4232660000000  0.4130190000000  0.5329170000000 1.0
C      1  0.5563150000000  0.4730360000000  0.4108540000000 1.0
C      1  0.5458330000000  0.6058520000000  0.5100560000000 1.0
C      1  0.4649610000000  0.4424320000000  0.5908070000000 1.0
C      1  0.5128070000000  0.4654550000000  0.3986220000000 1.0
C      1  0.4392140000000  0.5483020000000  0.4671800000000 1.0
C      1  0.5342460000000  0.4870030000000  0.6260050000000 1.0
C      1  0.5170640000000  0.4173410000000  0.4489350000000 1.0
C      1  0.4190230000000  0.5831130000000  0.4845960000000 1.0
C      1  0.5714130000000  0.5599200000000  0.4113830000000 1.0
C      1  0.4141130000000  0.5290350000000  0.5387920000000 1.0
C      1  0.4962410000000  0.5538110000000  0.4786180000000 1.0
C      1  0.6086200000000  0.5533100000000  0.4747180000000 1.0
C      1  0.4609400000000  0.4377430000000  0.4167300000000 1.0
C      1  0.5856600000000  0.5123990000000  0.5497170000000 1.0
C      1  0.5052620000000  0.6102790000000  0.5327040000000 1.0
C      1  0.4572570000000  0.4885740000000  0.4114710000000 1.0
C      1  0.4527620000000  0.4142930000000  0.4319150000000 1.0
C      1  0.5531580000000  0.4409670000000  0.4093940000000 1.0
C      1  0.5445840000000  0.4536770000000  0.5241060000000 1.0
C      1  0.4941380000000  0.5274860000000  0.4895290000000 1.0
C      1  0.5931750000000  0.5684200000000  0.4274040000000 1.0
C      1  0.5651450000000  0.4926950000000  0.5366350000000 1.0
C      1  0.5230500000000  0.4429890000000  0.4664870000000 1.0
C      1  0.6010590000000  0.4721380000000  0.5015960000000 1.0
C      1  0.4371600000000  0.5277390000000  0.5158220000000 1.0
C      1  0.5191330000000  0.3879870000000  0.5072190000000 1.0
C      1  0.3840190000000  0.4867740000000  0.4587950000000 1.0
C      1  0.5754950000000  0.5435100000000  0.5791530000000 1.0
C      1  0.4632740000000  0.5808820000000  0.4144840000000 1.0
C      1  0.4777740000000  0.5279630000000  0.5624980000000 1.0
C      1  0.5509740000000  0.5804940000000  0.4656320000000 1.0
C      1  0.5602990000000  0.4155540000000  0.5605790000000 1.0
C      1  0.4335730000000  0.5935310000000  0.5440990000000 1.0
C      1  0.5712030000000  0.5316950000000  0.4064850000000 1.0
C      1  0.5037900000000  0.4008130000000  0.5570260000000 1.0
C      1  0.5983220000000  0.5653580000000  0.5104580000000 1.0
C      1  0.5274790000000  0.5375500000000  0.5197700000000 1.0
C      1  0.4982330000000  0.5470380000000  0.4081330000000 1.0
C      1  0.4547970000000  0.4082910000000  0.5104960000000 1.0
C      1  0.5433360000000  0.4308480000000  0.4863610000000 1.0
C      1  0.5764330000000  0.4133150000000  0.4802290000000 1.0
C      1  0.4949240000000  0.5755360000000  0.4977950000000 1.0
C      1  0.4103240000000  0.5732790000000  0.4582970000000 1.0
C      1  0.5016030000000  0.5687200000000  0.5463180000000 1.0
C      1  0.5233830000000  0.4638180000000  0.5556570000000 1.0
C      1  0.5697900000000  0.5628170000000  0.5031500000000 1.0
C      1  0.4774710000000  0.4008660000000  0.5729770000000 1.0
C      1  0.5916810000000  0.4213710000000  0.5256700000000 1.0
C      1  0.4992120000000  0.4808360000000  0.4859510000000 1.0
C      1  0.4984060000000  0.3842220000000  0.4861090000000 1.0
C      1  0.4572080000000  0.4692910000000  0.5568250000000 1.0
C      1  0.5657140000000  0.4576920000000  0.5495730000000 1.0
C      1  0.4373420000000  0.5099020000000  0.5846000000000 1.0
C      1  0.4621550000000  0.5718260000000  0.5789760000000 1.0
C      1  0.5171140000000  0.6126780000000  0.5050570000000 1.0
C      1  0.4639520000000  0.5749250000000  0.5070050000000 1.0
C      1  0.5511640000000  0.5005180000000  0.5863880000000 1.0
C      1  0.5046080000000  0.6069400000000  0.4788400000000 1.0
C      1  0.4435540000000  0.4616300000000  0.4104220000000 1.0
C      1  0.6219000000000  0.4945560000000  0.4377270000000 1.0
C      1  0.5004390000000  0.5062530000000  0.4705280000000 1.0
C      1  0.5450630000000  0.5205880000000  0.4938070000000 1.0
C      1  0.4514110000000  0.4616600000000  0.4602820000000 1.0
C      1  0.4293550000000  0.5005180000000  0.4696940000000 1.0
C      1  0.4212290000000  0.5065480000000  0.5586350000000 1.0
C      1  0.4123870000000  0.4306670000000  0.4630760000000 1.0
C      1  0.5062210000000  0.4264030000000  0.4234900000000 1.0
C      1  0.4560700000000  0.5994100000000  0.5247590000000 1.0
C      1  0.4445480000000  0.4565660000000  0.5064860000000 1.0
C      1  0.4390570000000  0.4286510000000  0.5829250000000 1.0
C      1  0.3956950000000  0.5324720000000  0.4774950000000 1.0
C      1  0.5826550000000  0.4320040000000  0.5498450000000 1.0
C      1  0.5081220000000  0.5434610000000  0.4367420000000 1.0
C      1  0.5637360000000  0.5744710000000  0.5452500000000 1.0
C      1  0.4644870000000  0.4363260000000  0.5175510000000 1.0
C      1  0.4576170000000  0.4822940000000  0.5001060000000 1.0
C      1  0.5311340000000  0.5096980000000  0.4649200000000 1.0
C      1  0.5022660000000  0.5216630000000  0.5173860000000 1.0
C      1  0.5553510000000  0.3922120000000  0.5161120000000 1.0
C      1  0.5011260000000  0.4672460000000  0.5327050000000 1.0
C      1  0.6131350000000  0.5404190000000  0.5019080000000 1.0
C      1  0.4763110000000  0.3888640000000  0.5157650000000 1.0
C      1  0.4757550000000  0.5071460000000  0.4518260000000 1.0
C      1  0.5064030000000  0.5519420000000  0.5933530000000 1.0
C      1  0.4996000000000  0.5167400000000  0.4026480000000 1.0
C      1  0.4858690000000  0.5559440000000  0.4513090000000 1.0
C      1  0.5800190000000  0.4043300000000  0.5069530000000 1.0
C      1  0.4788460000000  0.5833900000000  0.4378190000000 1.0
C      1  0.4069840000000  0.5790420000000  0.5337740000000 1.0
C      1  0.5592740000000  0.4970800000000  0.5065760000000 1.0
C      1  0.4483380000000  0.4067290000000  0.4814670000000 1.0
C      1  0.4134120000000  0.5555470000000  0.5538270000000 1.0
C      1  0.4487540000000  0.5384120000000  0.4210630000000 1.0
C      1  0.5179350000000  0.6064360000000  0.4522080000000 1.0
C      1  0.4593650000000  0.5484630000000  0.5213900000000 1.0
C      1  0.5796600000000  0.4942460000000  0.4085360000000 1.0
C      1  0.5773870000000  0.5138910000000  0.5800920000000 1.0
C      1  0.5437570000000  0.4049130000000  0.4439970000000 1.0
C      1  0.3829440000000  0.4997110000000  0.5076370000000 1.0
C      1  0.5464480000000  0.5732110000000  0.4096080000000 1.0
C      1  0.4201740000000  0.4102850000000  0.4801760000000 1.0
C      1  0.4411470000000  0.4817820000000  0.5891390000000 1.0
C      1  0.6099100000000  0.4799790000000  0.5256620000000 1.0
C      1  0.4621070000000  0.5364970000000  0.4487060000000 1.0
C      1  0.5365140000000  0.5316940000000  0.4436460000000 1.0
C      1  0.5924460000000  0.5689650000000  0.5407210000000 1.0
C      1  0.5246470000000  0.6015740000000  0.5532400000000 1.0
C      1  0.5488340000000  0.5167210000000  0.4182210000000 1.0
C      1  0.5278860000000  0.5109880000000  0.5650250000000 1.0
C      1  0.4252650000000  0.5263920000000  0.4837980000000 1.0
C      1  0.5008270000000  0.3992170000000  0.5276350000000 1.0
C      1  0.4927220000000  0.5025700000000  0.5664920000000 1.0
C      1  0.6123800000000  0.5042520000000  0.5387100000000 1.0
C      1  0.5601130000000  0.4209920000000  0.4278380000000 1.0
C      1  0.5245400000000  0.4742790000000  0.4505110000000 1.0
C      1  0.4105650000000  0.5379440000000  0.4277830000000 1.0
C      1  0.5143540000000  0.4250940000000  0.5738620000000 1.0
C      1  0.4638910000000  0.5268520000000  0.6044360000000 1.0
C      1  0.5153170000000  0.5662250000000  0.5192680000000 1.0
C      1  0.4974650000000  0.4511280000000  0.4812940000000 1.0
C      1  0.4887080000000  0.4869330000000  0.5941020000000 1.0
C      1  0.6015820000000  0.4799070000000  0.4750710000000 1.0
C      1  0.5952960000000  0.4879890000000  0.4320360000000 1.0
C      1  0.5182100000000  0.5757330000000  0.4087330000000 1.0
C      1  0.5603520000000  0.5875130000000  0.4914610000000 1.0
C      1  0.4882430000000  0.5107910000000  0.6126900000000 1.0
C      1  0.5649080000000  0.5402970000000  0.4850180000000 1.0
END
