TITL C-950528-5794-543 1.19185455519822e-06 125000 -705.556835325623 0 0 115 (C1) n - 1
REM
REM in /home/bkarasulu/work/CARBON/AIRSS/Generating-Clusters/EDIP-Nigel-Params/with-SteepDescent/Only-C1/SD-CG/HFTN-CG
REM
REM
REM
REM
REM
REM ./C.cell (11c1c37f851c82e70ff6c80c92926a4b)
REM
REM compiler GCC version 9.2.1 20190827 (Red Hat 9.2.1-1)
REM options -cpp -mtune=generic -march=x86-64 -g -O0 -fpre-include=/usr/include/finclude/math-vector-fortran.h
REM seed 1610820190 -2068242610 244204369 -1668323400 1421784414 961117256 -932445823 826850626 518786735 -1733996910 -740587402 -1494253166 1169878585 624079281 -2052375345 -1846691178 129605398 1880315809 79767649 -2078636587 -1978229634 -924218594 1129864509 119338952 -421330815 981943388 -164678432 -1905832712 -1046619730 -880359759 -794931173 -137051265 -341180154
REM
CELL 1.54180   50.00000   50.00000   50.00000   90.00000   90.00000   90.00000
LATT -1
SFAC C  
C      1  0.4514370000000  0.5674870000000  0.5114850000000 1.0
C      1  0.5123080000000  0.4953070000000  0.5267360000000 1.0
C      1  0.4677470000000  0.4063370000000  0.4719850000000 1.0
C      1  0.5516390000000  0.5422990000000  0.4453970000000 1.0
C      1  0.4327120000000  0.4472980000000  0.5351240000000 1.0
C      1  0.4688510000000  0.4894440000000  0.5880220000000 1.0
C      1  0.5560990000000  0.5704650000000  0.4474360000000 1.0
C      1  0.4249970000000  0.5545880000000  0.5102350000000 1.0
C      1  0.4432240000000  0.4150850000000  0.4865560000000 1.0
C      1  0.5050370000000  0.4506710000000  0.4898410000000 1.0
C      1  0.5468060000000  0.5385930000000  0.5698270000000 1.0
C      1  0.4091990000000  0.5145700000000  0.4880830000000 1.0
C      1  0.4613840000000  0.4289330000000  0.5633150000000 1.0
C      1  0.4668890000000  0.5673370000000  0.5351890000000 1.0
C      1  0.5260810000000  0.5380870000000  0.5934290000000 1.0
C      1  0.4423690000000  0.5572900000000  0.4440010000000 1.0
C      1  0.5683980000000  0.5556100000000  0.5184710000000 1.0
C      1  0.4812900000000  0.5354460000000  0.5081330000000 1.0
C      1  0.4424920000000  0.4968150000000  0.4475240000000 1.0
C      1  0.4767520000000  0.4615410000000  0.4845870000000 1.0
C      1  0.5313990000000  0.4839490000000  0.4581320000000 1.0
C      1  0.5162050000000  0.5737580000000  0.5142680000000 1.0
C      1  0.5031640000000  0.4684940000000  0.4226060000000 1.0
C      1  0.4171560000000  0.4618380000000  0.4895010000000 1.0
C      1  0.5028680000000  0.5525420000000  0.5830270000000 1.0
C      1  0.5128150000000  0.5951090000000  0.4926580000000 1.0
C      1  0.5268390000000  0.4688330000000  0.5278870000000 1.0
C      1  0.5742790000000  0.4666540000000  0.5184920000000 1.0
C      1  0.5438910000000  0.5683390000000  0.5275830000000 1.0
C      1  0.5703300000000  0.5222850000000  0.5586010000000 1.0
C      1  0.4196080000000  0.5257860000000  0.5133050000000 1.0
C      1  0.5469240000000  0.4758800000000  0.5065550000000 1.0
C      1  0.5259990000000  0.4977690000000  0.5751700000000 1.0
C      1  0.4865920000000  0.5294240000000  0.4605860000000 1.0
C      1  0.5060720000000  0.5512020000000  0.4948070000000 1.0
C      1  0.4725070000000  0.4242210000000  0.4494850000000 1.0
C      1  0.5603710000000  0.5074060000000  0.4314410000000 1.0
C      1  0.5936890000000  0.5152060000000  0.5081740000000 1.0
C      1  0.5306530000000  0.5848380000000  0.4497050000000 1.0
C      1  0.4873000000000  0.4106210000000  0.4939100000000 1.0
C      1  0.5993290000000  0.4776850000000  0.4781900000000 1.0
C      1  0.5514160000000  0.5061370000000  0.5108850000000 1.0
C      1  0.4931760000000  0.5458570000000  0.4378040000000 1.0
C      1  0.4664400000000  0.4106440000000  0.5157700000000 1.0
C      1  0.4574020000000  0.5310780000000  0.5587800000000 1.0
C      1  0.4564760000000  0.4716110000000  0.4392190000000 1.0
C      1  0.4770710000000  0.5059440000000  0.4132340000000 1.0
C      1  0.4861680000000  0.4897450000000  0.4800770000000 1.0
C      1  0.4521950000000  0.5589030000000  0.5576070000000 1.0
C      1  0.5030960000000  0.5075390000000  0.4996590000000 1.0
C      1  0.4980760000000  0.4576600000000  0.5783860000000 1.0
C      1  0.5729950000000  0.4945130000000  0.5626290000000 1.0
C      1  0.4857710000000  0.5114340000000  0.5933420000000 1.0
C      1  0.4606280000000  0.4502520000000  0.4605690000000 1.0
C      1  0.5062670000000  0.5686850000000  0.4539950000000 1.0
C      1  0.5250320000000  0.4247880000000  0.4424820000000 1.0
C      1  0.5676240000000  0.5779030000000  0.4731760000000 1.0
C      1  0.5692340000000  0.4696640000000  0.5495250000000 1.0
C      1  0.4646750000000  0.5329350000000  0.4813080000000 1.0
C      1  0.4540700000000  0.4827430000000  0.5088270000000 1.0
C      1  0.5413050000000  0.4592990000000  0.5526380000000 1.0
C      1  0.5361660000000  0.4390020000000  0.4212110000000 1.0
C      1  0.5115450000000  0.4925970000000  0.4380210000000 1.0
C      1  0.4380550000000  0.4579310000000  0.5632030000000 1.0
C      1  0.5139510000000  0.5115130000000  0.5969540000000 1.0
C      1  0.5578190000000  0.4188460000000  0.5173400000000 1.0
C      1  0.5414050000000  0.5284910000000  0.4222610000000 1.0
C      1  0.4098580000000  0.4876230000000  0.4755820000000 1.0
C      1  0.5358780000000  0.5990940000000  0.4749280000000 1.0
C      1  0.4136080000000  0.4894060000000  0.4474440000000 1.0
C      1  0.4808370000000  0.4666770000000  0.5985870000000 1.0
C      1  0.5251630000000  0.4691500000000  0.5752980000000 1.0
C      1  0.4355480000000  0.5109650000000  0.5599290000000 1.0
C      1  0.5897090000000  0.5318080000000  0.4841260000000 1.0
C      1  0.4219700000000  0.5365760000000  0.4423810000000 1.0
C      1  0.5236930000000  0.5270520000000  0.4844350000000 1.0
C      1  0.5740300000000  0.4716280000000  0.4675340000000 1.0
C      1  0.5536540000000  0.5187730000000  0.4821810000000 1.0
C      1  0.4490770000000  0.5601030000000  0.4734420000000 1.0
C      1  0.4179350000000  0.5142840000000  0.5385870000000 1.0
C      1  0.4896330000000  0.4329440000000  0.5679810000000 1.0
C      1  0.4705860000000  0.4857960000000  0.5360980000000 1.0
C      1  0.5114720000000  0.5221230000000  0.4217470000000 1.0
C      1  0.4080260000000  0.5365740000000  0.4681250000000 1.0
C      1  0.4755800000000  0.4764880000000  0.4169090000000 1.0
C      1  0.5262730000000  0.4714140000000  0.4832010000000 1.0
C      1  0.5322060000000  0.4298300000000  0.4709720000000 1.0
C      1  0.4791040000000  0.5203340000000  0.5406090000000 1.0
C      1  0.4840830000000  0.4552110000000  0.5368850000000 1.0
C      1  0.5303940000000  0.5165090000000  0.5352520000000 1.0
C      1  0.4928750000000  0.5816570000000  0.4755340000000 1.0
C      1  0.5768950000000  0.5292640000000  0.5298670000000 1.0
C      1  0.4862550000000  0.5012130000000  0.4521830000000 1.0
C      1  0.4645330000000  0.5483000000000  0.4268590000000 1.0
C      1  0.5068580000000  0.5254470000000  0.5561090000000 1.0
C      1  0.4956500000000  0.5737440000000  0.5366280000000 1.0
C      1  0.5569560000000  0.4962400000000  0.4591660000000 1.0
C      1  0.5389400000000  0.5636060000000  0.5557480000000 1.0
C      1  0.5108540000000  0.5690490000000  0.5611600000000 1.0
C      1  0.4193430000000  0.5600810000000  0.4819660000000 1.0
C      1  0.5182730000000  0.4094330000000  0.4904840000000 1.0
C      1  0.5941680000000  0.4855060000000  0.5045850000000 1.0
C      1  0.4980050000000  0.4205260000000  0.4391670000000 1.0
C      1  0.4518570000000  0.5198600000000  0.4228880000000 1.0
C      1  0.5614250000000  0.4451710000000  0.4778480000000 1.0
C      1  0.5210680000000  0.4551480000000  0.4052750000000 1.0
C      1  0.4346180000000  0.4408590000000  0.4740430000000 1.0
C      1  0.4507950000000  0.5040560000000  0.4801980000000 1.0
C      1  0.5342620000000  0.4064530000000  0.5133140000000 1.0
C      1  0.5721050000000  0.4392650000000  0.5049030000000 1.0
C      1  0.5751450000000  0.5559760000000  0.4905610000000 1.0
C      1  0.4286170000000  0.4691900000000  0.5157990000000 1.0
C      1  0.4609190000000  0.4343760000000  0.5333590000000 1.0
C      1  0.5073170000000  0.4491290000000  0.5193280000000 1.0
C      1  0.4521900000000  0.4853330000000  0.5624300000000 1.0
END
