TITL C-950525-1983-441 6.25079011202667e-07 125000 -261.708511671326 0 0 44 (C1) n - 1
REM
REM in /home/bkarasulu/work/CARBON/AIRSS/Generating-Clusters/EDIP-Nigel-Params/with-SteepDescent/Only-C1/SD-CG/HFTN-CG
REM
REM
REM
REM
REM
REM ./C.cell (11c1c37f851c82e70ff6c80c92926a4b)
REM
REM compiler GCC version 9.2.1 20190827 (Red Hat 9.2.1-1)
REM options -cpp -mtune=generic -march=x86-64 -g -O0 -fpre-include=/usr/include/finclude/math-vector-fortran.h
REM seed -1488019490 158611487 -1788388455 -976949184 -992525572 784977101 76592823 -143251231 1492508810 -89675620 630391219 1516371855 -832994171 1055256268 -1951936018 846673843 992502898 1320470693 1978633326 180483947 1385509188 -1860730301 2042242082 -1577514004 256873152 -1578768720 -363454506 672501330 -1341004467 1795867267 -915693056 -1589944301 -987400544
REM
CELL 1.54180   50.00000   50.00000   50.00000   90.00000   90.00000   90.00000
LATT -1
SFAC C  
C      1  0.4544020000000  0.4688660000000  0.4546910000000 1.0
C      1  0.5060180000000  0.5151160000000  0.5696620000000 1.0
C      1  0.5315940000000  0.5239230000000  0.5616510000000 1.0
C      1  0.4693030000000  0.4624710000000  0.5357200000000 1.0
C      1  0.5011780000000  0.5378550000000  0.4882390000000 1.0
C      1  0.5011250000000  0.5103100000000  0.5043150000000 1.0
C      1  0.4739600000000  0.4792600000000  0.4317800000000 1.0
C      1  0.4535310000000  0.5179100000000  0.5086420000000 1.0
C      1  0.5177770000000  0.5194010000000  0.4425990000000 1.0
C      1  0.5282710000000  0.5448180000000  0.4776460000000 1.0
C      1  0.5209030000000  0.4830170000000  0.5369720000000 1.0
C      1  0.4919620000000  0.4230740000000  0.4998590000000 1.0
C      1  0.4855390000000  0.5640370000000  0.5306290000000 1.0
C      1  0.5012680000000  0.4723350000000  0.4421320000000 1.0
C      1  0.4698110000000  0.4928420000000  0.4688080000000 1.0
C      1  0.4890680000000  0.5284000000000  0.4403590000000 1.0
C      1  0.4980490000000  0.4540620000000  0.4643940000000 1.0
C      1  0.4963460000000  0.4945120000000  0.5498490000000 1.0
C      1  0.4938620000000  0.5591440000000  0.5056750000000 1.0
C      1  0.4794550000000  0.5147770000000  0.5262510000000 1.0
C      1  0.5179850000000  0.4926390000000  0.4550300000000 1.0
C      1  0.5392920000000  0.5257590000000  0.5347680000000 1.0
C      1  0.4617340000000  0.4426120000000  0.4656530000000 1.0
C      1  0.4686880000000  0.4386010000000  0.4938640000000 1.0
C      1  0.5358080000000  0.5386120000000  0.4519970000000 1.0
C      1  0.5348470000000  0.4806380000000  0.4765090000000 1.0
C      1  0.5329760000000  0.4332320000000  0.5251550000000 1.0
C      1  0.4730990000000  0.5078310000000  0.4293100000000 1.0
C      1  0.5474760000000  0.5523590000000  0.4959530000000 1.0
C      1  0.4791230000000  0.5359790000000  0.4678310000000 1.0
C      1  0.4805500000000  0.5397930000000  0.5431180000000 1.0
C      1  0.5476930000000  0.4940960000000  0.4974020000000 1.0
C      1  0.4782320000000  0.4736450000000  0.5586610000000 1.0
C      1  0.4564900000000  0.5183940000000  0.4785460000000 1.0
C      1  0.4301460000000  0.5093270000000  0.5181420000000 1.0
C      1  0.4875340000000  0.5360750000000  0.5700180000000 1.0
C      1  0.5595080000000  0.5690630000000  0.5382960000000 1.0
C      1  0.5181780000000  0.4333500000000  0.5015520000000 1.0
C      1  0.5289060000000  0.5036940000000  0.5174180000000 1.0
C      1  0.5212830000000  0.4549970000000  0.4822030000000 1.0
C      1  0.5488650000000  0.5500420000000  0.5233290000000 1.0
C      1  0.4700790000000  0.4645150000000  0.5078500000000 1.0
C      1  0.4885600000000  0.4818900000000  0.4899690000000 1.0
C      1  0.5295260000000  0.4567260000000  0.5375540000000 1.0
END
