TITL C-950533-5798-299 6.3286946833857e-07 125000 -918.025161343003 0 0 148 (C1) n - 1
REM
REM in /home/bkarasulu/work/CARBON/AIRSS/Generating-Clusters/EDIP-Nigel-Params/with-SteepDescent/Only-C1/SD-CG/HFTN-CG
REM
REM
REM
REM
REM
REM ./C.cell (11c1c37f851c82e70ff6c80c92926a4b)
REM
REM compiler GCC version 9.2.1 20190827 (Red Hat 9.2.1-1)
REM options -cpp -mtune=generic -march=x86-64 -g -O0 -fpre-include=/usr/include/finclude/math-vector-fortran.h
REM seed 1675952529 -174838583 -1859995060 -1522793700 -1858923888 731110426 -1845754376 -380449929 -2022169790 -203514850 43557991 1237616171 -1495754610 -212522580 789851282 1539159931 1590224415 -1143109874 858903787 -1122355292 611889201 1325124825 -840713213 137019478 1695104249 293596665 -1585016446 -1078021136 -1970552491 24736266 -138072437 -559738941 -1040083207
REM
CELL 1.54180   50.00000   50.00000   50.00000   90.00000   90.00000   90.00000
LATT -1
SFAC C  
C      1  0.5167810000000  0.5374680000000  0.4017380000000 1.0
C      1  0.3991730000000  0.5320080000000  0.5061150000000 1.0
C      1  0.4428130000000  0.4293900000000  0.5477260000000 1.0
C      1  0.5643930000000  0.4144660000000  0.4551040000000 1.0
C      1  0.5901650000000  0.5332310000000  0.4805620000000 1.0
C      1  0.5452000000000  0.5868010000000  0.5103730000000 1.0
C      1  0.5922010000000  0.5073510000000  0.5519840000000 1.0
C      1  0.4730330000000  0.4623670000000  0.5723350000000 1.0
C      1  0.4963560000000  0.4726480000000  0.5903750000000 1.0
C      1  0.4869210000000  0.5325320000000  0.3943430000000 1.0
C      1  0.4815220000000  0.5855920000000  0.4457190000000 1.0
C      1  0.5138920000000  0.5875240000000  0.5496780000000 1.0
C      1  0.5931030000000  0.5271940000000  0.5297220000000 1.0
C      1  0.5322740000000  0.5221420000000  0.5916780000000 1.0
C      1  0.4858680000000  0.4527760000000  0.5302340000000 1.0
C      1  0.5439650000000  0.3981680000000  0.5254300000000 1.0
C      1  0.5787540000000  0.5784690000000  0.4651910000000 1.0
C      1  0.5205460000000  0.5866400000000  0.4907910000000 1.0
C      1  0.5517220000000  0.4768600000000  0.4293410000000 1.0
C      1  0.5314620000000  0.5117040000000  0.3993200000000 1.0
C      1  0.5921250000000  0.4602570000000  0.4529570000000 1.0
C      1  0.4283360000000  0.5200550000000  0.4246240000000 1.0
C      1  0.5137460000000  0.4716670000000  0.4964210000000 1.0
C      1  0.4321530000000  0.4279380000000  0.5193540000000 1.0
C      1  0.5543890000000  0.4097500000000  0.5025010000000 1.0
C      1  0.4339590000000  0.4568170000000  0.4332060000000 1.0
C      1  0.4514330000000  0.5403180000000  0.5801400000000 1.0
C      1  0.5076630000000  0.5686050000000  0.4486420000000 1.0
C      1  0.4271870000000  0.5466530000000  0.4367960000000 1.0
C      1  0.5012250000000  0.3992630000000  0.5136790000000 1.0
C      1  0.4668890000000  0.5464140000000  0.4168130000000 1.0
C      1  0.5185050000000  0.5241920000000  0.4755140000000 1.0
C      1  0.4549880000000  0.5634440000000  0.4388830000000 1.0
C      1  0.4586100000000  0.4717480000000  0.4669900000000 1.0
C      1  0.4302400000000  0.4536470000000  0.5608540000000 1.0
C      1  0.5564390000000  0.4866130000000  0.4663610000000 1.0
C      1  0.5833530000000  0.5612060000000  0.4869680000000 1.0
C      1  0.5690510000000  0.5144790000000  0.5678450000000 1.0
C      1  0.4918270000000  0.4108420000000  0.4347770000000 1.0
C      1  0.5237240000000  0.5532080000000  0.4258430000000 1.0
C      1  0.4409980000000  0.4503020000000  0.4611310000000 1.0
C      1  0.4736740000000  0.4519300000000  0.5039800000000 1.0
C      1  0.5961870000000  0.4791770000000  0.5469840000000 1.0
C      1  0.4382940000000  0.5371350000000  0.4795600000000 1.0
C      1  0.4095130000000  0.5521450000000  0.4600790000000 1.0
C      1  0.5367630000000  0.5469480000000  0.5744030000000 1.0
C      1  0.5158080000000  0.4903560000000  0.4340550000000 1.0
C      1  0.5505770000000  0.4546460000000  0.4671120000000 1.0
C      1  0.5020930000000  0.4559260000000  0.4677600000000 1.0
C      1  0.5538320000000  0.5704040000000  0.4554920000000 1.0
C      1  0.5073360000000  0.5214610000000  0.6079630000000 1.0
C      1  0.5111310000000  0.4912970000000  0.3960320000000 1.0
C      1  0.4535300000000  0.4967540000000  0.4539950000000 1.0
C      1  0.4001760000000  0.4676140000000  0.5066400000000 1.0
C      1  0.4409700000000  0.4922190000000  0.4261010000000 1.0
C      1  0.4203400000000  0.5066820000000  0.5677450000000 1.0
C      1  0.5050060000000  0.5029890000000  0.4602310000000 1.0
C      1  0.4635530000000  0.4854180000000  0.4054020000000 1.0
C      1  0.4855380000000  0.5317910000000  0.4325360000000 1.0
C      1  0.5296120000000  0.4816000000000  0.5629810000000 1.0
C      1  0.5651430000000  0.5644070000000  0.5098190000000 1.0
C      1  0.5172520000000  0.5190800000000  0.5066960000000 1.0
C      1  0.5291070000000  0.5837460000000  0.4622170000000 1.0
C      1  0.4627030000000  0.5522170000000  0.4679530000000 1.0
C      1  0.5155040000000  0.5053740000000  0.5541360000000 1.0
C      1  0.5884650000000  0.4413650000000  0.5215190000000 1.0
C      1  0.4754920000000  0.5984480000000  0.4729420000000 1.0
C      1  0.4940410000000  0.5461710000000  0.6063310000000 1.0
C      1  0.4605150000000  0.5207090000000  0.5184800000000 1.0
C      1  0.4994150000000  0.5482630000000  0.4712600000000 1.0
C      1  0.5517870000000  0.5516360000000  0.4338340000000 1.0
C      1  0.4609920000000  0.4760700000000  0.4945670000000 1.0
C      1  0.4244920000000  0.5358250000000  0.5684560000000 1.0
C      1  0.5540810000000  0.5045950000000  0.4179000000000 1.0
C      1  0.5147500000000  0.5660850000000  0.5689740000000 1.0
C      1  0.5247860000000  0.4375440000000  0.4597090000000 1.0
C      1  0.4740600000000  0.4276340000000  0.5446460000000 1.0
C      1  0.4536650000000  0.4389690000000  0.4201820000000 1.0
C      1  0.4201420000000  0.5475940000000  0.5426610000000 1.0
C      1  0.4641970000000  0.5790730000000  0.5427980000000 1.0
C      1  0.5194440000000  0.3897440000000  0.5328030000000 1.0
C      1  0.5763540000000  0.4280380000000  0.4999380000000 1.0
C      1  0.4456800000000  0.4647070000000  0.5833480000000 1.0
C      1  0.5416980000000  0.4817040000000  0.4944300000000 1.0
C      1  0.4664080000000  0.5636560000000  0.5694790000000 1.0
C      1  0.5957860000000  0.4879740000000  0.4969790000000 1.0
C      1  0.4611150000000  0.5762490000000  0.4869790000000 1.0
C      1  0.5961320000000  0.5162940000000  0.5028960000000 1.0
C      1  0.4986530000000  0.4660080000000  0.4366350000000 1.0
C      1  0.5369350000000  0.5937950000000  0.5358170000000 1.0
C      1  0.4462970000000  0.5722170000000  0.5145340000000 1.0
C      1  0.5649780000000  0.4737910000000  0.5957910000000 1.0
C      1  0.5157140000000  0.4252310000000  0.4330140000000 1.0
C      1  0.5861890000000  0.5175590000000  0.4555630000000 1.0
C      1  0.4736070000000  0.4571610000000  0.4080350000000 1.0
C      1  0.5766470000000  0.4376310000000  0.4714570000000 1.0
C      1  0.5415640000000  0.4069210000000  0.4762370000000 1.0
C      1  0.5630980000000  0.4285210000000  0.4299720000000 1.0
C      1  0.4882390000000  0.4276050000000  0.5722050000000 1.0
C      1  0.5504220000000  0.4894440000000  0.5218330000000 1.0
C      1  0.4852280000000  0.4350630000000  0.4823420000000 1.0
C      1  0.5611900000000  0.4503960000000  0.5802610000000 1.0
C      1  0.5642920000000  0.5250110000000  0.4363120000000 1.0
C      1  0.4845340000000  0.5021250000000  0.3925120000000 1.0
C      1  0.5358800000000  0.5139230000000  0.5321840000000 1.0
C      1  0.5095400000000  0.4472820000000  0.4161630000000 1.0
C      1  0.4366600000000  0.4725570000000  0.5379580000000 1.0
C      1  0.4571560000000  0.4249450000000  0.4673660000000 1.0
C      1  0.4786110000000  0.5137890000000  0.4531070000000 1.0
C      1  0.4913070000000  0.5643210000000  0.5851930000000 1.0
C      1  0.4524650000000  0.4132350000000  0.5028440000000 1.0
C      1  0.4879550000000  0.5963820000000  0.5390900000000 1.0
C      1  0.4649220000000  0.4177410000000  0.4388180000000 1.0
C      1  0.5018750000000  0.5627420000000  0.4971080000000 1.0
C      1  0.5958590000000  0.4690220000000  0.5202830000000 1.0
C      1  0.5415360000000  0.4671900000000  0.5392770000000 1.0
C      1  0.4802940000000  0.5325170000000  0.5354820000000 1.0
C      1  0.3986690000000  0.5036030000000  0.5195020000000 1.0
C      1  0.4674920000000  0.5115750000000  0.5820310000000 1.0
C      1  0.5160310000000  0.4495330000000  0.5186710000000 1.0
C      1  0.4998800000000  0.4950260000000  0.5087810000000 1.0
C      1  0.5540200000000  0.5348070000000  0.5519480000000 1.0
C      1  0.5123150000000  0.4219000000000  0.4978640000000 1.0
C      1  0.4713970000000  0.4770340000000  0.5445540000000 1.0
C      1  0.4734940000000  0.5012700000000  0.5011140000000 1.0
C      1  0.3914830000000  0.4851010000000  0.4860560000000 1.0
C      1  0.5734600000000  0.4554160000000  0.4294140000000 1.0
C      1  0.4411390000000  0.5408850000000  0.5101930000000 1.0
C      1  0.4421820000000  0.4943630000000  0.5844340000000 1.0
C      1  0.4844340000000  0.5067810000000  0.5531870000000 1.0
C      1  0.4028500000000  0.5578610000000  0.5223480000000 1.0
C      1  0.5361360000000  0.4386750000000  0.5853180000000 1.0
C      1  0.4203920000000  0.4974580000000  0.5399990000000 1.0
C      1  0.4739420000000  0.4053110000000  0.5229730000000 1.0
C      1  0.5738080000000  0.5501520000000  0.5342050000000 1.0
C      1  0.4176950000000  0.5807380000000  0.5130390000000 1.0
C      1  0.5670820000000  0.4545600000000  0.5506610000000 1.0
C      1  0.5500560000000  0.4948300000000  0.5818250000000 1.0
C      1  0.5084310000000  0.4430360000000  0.5886720000000 1.0
C      1  0.5870630000000  0.4875980000000  0.4671730000000 1.0
C      1  0.4339990000000  0.5083960000000  0.4730320000000 1.0
C      1  0.4047670000000  0.5045150000000  0.4689400000000 1.0
C      1  0.4988360000000  0.6086240000000  0.4905240000000 1.0
C      1  0.4263330000000  0.4571230000000  0.5138900000000 1.0
C      1  0.4881130000000  0.4997620000000  0.6015300000000 1.0
C      1  0.3947710000000  0.5320050000000  0.4760590000000 1.0
C      1  0.4893790000000  0.6128750000000  0.5165790000000 1.0
C      1  0.5045690000000  0.5426500000000  0.5190540000000 1.0
END
