TITL C-950532-2784-513 -5.5939887599321e-07 125000 -161.988826815875 0 0 28 (C1) n - 1
REM
REM in /home/bkarasulu/work/CARBON/AIRSS/Generating-Clusters/EDIP-Nigel-Params/with-SteepDescent/Only-C1/SD-CG/HFTN-CG
REM
REM
REM
REM
REM
REM ./C.cell (11c1c37f851c82e70ff6c80c92926a4b)
REM
REM compiler GCC version 9.2.1 20190827 (Red Hat 9.2.1-1)
REM options -cpp -mtune=generic -march=x86-64 -g -O0 -fpre-include=/usr/include/finclude/math-vector-fortran.h
REM seed 285654839 481019127 -1067194285 -1564131311 1593674046 -1544487907 -52352096 -1163670062 16190989 112898255 794642898 1923066648 83876472 1029284877 -266602082 1929621104 -1048465952 1554114857 -657895222 -1157322090 -1266444998 -1354675641 -262121957 -26813465 1097429205 2077967446 -1887622012 -1898235326 -100253046 -539746503 -1911704377 887062496 -71966155
REM
CELL 1.54180   50.00000   50.00000   50.00000   90.00000   90.00000   90.00000
LATT -1
SFAC C  
C      1  0.5280770000000  0.4954470000000  0.5202950000000 1.0
C      1  0.5385540000000  0.5206680000000  0.4760500000000 1.0
C      1  0.4804940000000  0.4420480000000  0.5003640000000 1.0
C      1  0.4855880000000  0.4649760000000  0.4849100000000 1.0
C      1  0.5317010000000  0.4735360000000  0.4611010000000 1.0
C      1  0.4951510000000  0.5498190000000  0.4646600000000 1.0
C      1  0.5041020000000  0.4879040000000  0.5342660000000 1.0
C      1  0.4484740000000  0.5161190000000  0.5247000000000 1.0
C      1  0.4815400000000  0.5489460000000  0.4996000000000 1.0
C      1  0.4846730000000  0.5096300000000  0.4810770000000 1.0
C      1  0.4565890000000  0.5409970000000  0.5117490000000 1.0
C      1  0.5073750000000  0.4585980000000  0.5385670000000 1.0
C      1  0.4678590000000  0.4872440000000  0.4875970000000 1.0
C      1  0.5449390000000  0.4684040000000  0.4854580000000 1.0
C      1  0.4537580000000  0.4922810000000  0.5108470000000 1.0
C      1  0.4933840000000  0.5105060000000  0.5502710000000 1.0
C      1  0.4826020000000  0.5251290000000  0.4555370000000 1.0
C      1  0.5053080000000  0.5488760000000  0.5158590000000 1.0
C      1  0.4670300000000  0.5263530000000  0.5464990000000 1.0
C      1  0.4873020000000  0.4428670000000  0.5266870000000 1.0
C      1  0.5042510000000  0.5367580000000  0.5418890000000 1.0
C      1  0.5027020000000  0.4668880000000  0.4614070000000 1.0
C      1  0.5195440000000  0.5121840000000  0.4977220000000 1.0
C      1  0.5320370000000  0.5031570000000  0.4524420000000 1.0
C      1  0.5205650000000  0.5475300000000  0.4809760000000 1.0
C      1  0.5015380000000  0.5020560000000  0.4465750000000 1.0
C      1  0.5329830000000  0.4500730000000  0.5297640000000 1.0
C      1  0.5418810000000  0.4710050000000  0.5131320000000 1.0
END
