TITL C-950533-5798-245 -2.94060056759507e-06 125000 -824.644531810087 0 0 133 (C1) n - 1
REM
REM in /home/bkarasulu/work/CARBON/AIRSS/Generating-Clusters/EDIP-Nigel-Params/with-SteepDescent/Only-C1/SD-CG/HFTN-CG
REM
REM
REM
REM
REM
REM ./C.cell (11c1c37f851c82e70ff6c80c92926a4b)
REM
REM compiler GCC version 9.2.1 20190827 (Red Hat 9.2.1-1)
REM options -cpp -mtune=generic -march=x86-64 -g -O0 -fpre-include=/usr/include/finclude/math-vector-fortran.h
REM seed -760854548 917135202 1895864397 366574051 548995523 -179372060 1422946571 -159037293 -520491018 -160429232 1955264716 388836670 -732868908 597353398 -1529337192 -206942340 308671258 1959849735 94352180 -1364151264 -2091231226 -1484060106 -781384404 -1066037294 -1914453886 348857207 -1866385381 -767371651 1191550892 207632669 1629335343 -1106142534 -1153906633
REM
CELL 1.54180   50.00000   50.00000   50.00000   90.00000   90.00000   90.00000
LATT -1
SFAC C  
C      1  0.4519990000000  0.5066500000000  0.4774710000000 1.0
C      1  0.4567240000000  0.5513850000000  0.4293040000000 1.0
C      1  0.4889490000000  0.4281280000000  0.4598110000000 1.0
C      1  0.5207160000000  0.5154280000000  0.3998960000000 1.0
C      1  0.5058330000000  0.5539350000000  0.5838350000000 1.0
C      1  0.4262350000000  0.5207130000000  0.5359890000000 1.0
C      1  0.4355730000000  0.5499750000000  0.4498830000000 1.0
C      1  0.5166130000000  0.4835980000000  0.4847540000000 1.0
C      1  0.4464400000000  0.4793010000000  0.5761840000000 1.0
C      1  0.6031940000000  0.5328280000000  0.4842310000000 1.0
C      1  0.5598520000000  0.5748000000000  0.4573190000000 1.0
C      1  0.5397730000000  0.5051700000000  0.5817160000000 1.0
C      1  0.4991780000000  0.4837980000000  0.5922770000000 1.0
C      1  0.5544960000000  0.5310300000000  0.4371460000000 1.0
C      1  0.5005530000000  0.5602660000000  0.4176840000000 1.0
C      1  0.5734050000000  0.5072830000000  0.5219980000000 1.0
C      1  0.4832120000000  0.5377010000000  0.4558680000000 1.0
C      1  0.4628770000000  0.5903220000000  0.5041000000000 1.0
C      1  0.4194800000000  0.4693780000000  0.4332000000000 1.0
C      1  0.4702690000000  0.4838170000000  0.4715430000000 1.0
C      1  0.5316910000000  0.5477190000000  0.4777620000000 1.0
C      1  0.4823850000000  0.5405110000000  0.5913370000000 1.0
C      1  0.5030940000000  0.3856750000000  0.5133540000000 1.0
C      1  0.5569370000000  0.4799910000000  0.4448690000000 1.0
C      1  0.5102200000000  0.4667820000000  0.4395650000000 1.0
C      1  0.5276570000000  0.5869980000000  0.4499170000000 1.0
C      1  0.4034580000000  0.4834800000000  0.4976930000000 1.0
C      1  0.5850310000000  0.5492200000000  0.5271030000000 1.0
C      1  0.4692070000000  0.4710360000000  0.4979890000000 1.0
C      1  0.4971050000000  0.5293940000000  0.4140690000000 1.0
C      1  0.4970260000000  0.4310680000000  0.5401650000000 1.0
C      1  0.4784360000000  0.3887310000000  0.5287960000000 1.0
C      1  0.5539420000000  0.4907080000000  0.5602330000000 1.0
C      1  0.4652620000000  0.5272490000000  0.4951330000000 1.0
C      1  0.4210260000000  0.5291390000000  0.5075320000000 1.0
C      1  0.5534940000000  0.4225500000000  0.4929690000000 1.0
C      1  0.5122260000000  0.4139250000000  0.4692500000000 1.0
C      1  0.4091950000000  0.5164200000000  0.4313340000000 1.0
C      1  0.5272500000000  0.5357960000000  0.5720370000000 1.0
C      1  0.4808810000000  0.5578840000000  0.5359060000000 1.0
C      1  0.5161680000000  0.4949830000000  0.3814980000000 1.0
C      1  0.4334140000000  0.5698920000000  0.5406180000000 1.0
C      1  0.5595350000000  0.4881380000000  0.4161420000000 1.0
C      1  0.5773890000000  0.5072830000000  0.5507130000000 1.0
C      1  0.5075570000000  0.6048460000000  0.4914040000000 1.0
C      1  0.5040320000000  0.5203430000000  0.4439980000000 1.0
C      1  0.4923850000000  0.5746480000000  0.5564490000000 1.0
C      1  0.4970750000000  0.5335060000000  0.5291900000000 1.0
C      1  0.5332180000000  0.6059000000000  0.5027620000000 1.0
C      1  0.4536790000000  0.5052460000000  0.5363820000000 1.0
C      1  0.4637020000000  0.4181720000000  0.4676130000000 1.0
C      1  0.5176130000000  0.4625040000000  0.5064710000000 1.0
C      1  0.5295490000000  0.4716810000000  0.3785200000000 1.0
C      1  0.5819160000000  0.4560510000000  0.4724410000000 1.0
C      1  0.5276790000000  0.4805430000000  0.5948180000000 1.0
C      1  0.5747250000000  0.4414810000000  0.4953130000000 1.0
C      1  0.5472930000000  0.4149540000000  0.5217240000000 1.0
C      1  0.5766000000000  0.5315600000000  0.4751580000000 1.0
C      1  0.5426100000000  0.5675030000000  0.5310220000000 1.0
C      1  0.5986910000000  0.4854990000000  0.5527260000000 1.0
C      1  0.4905130000000  0.4449440000000  0.4362320000000 1.0
C      1  0.5480340000000  0.5517190000000  0.5558920000000 1.0
C      1  0.5494850000000  0.4702520000000  0.3968090000000 1.0
C      1  0.4713920000000  0.4412600000000  0.4976960000000 1.0
C      1  0.5304440000000  0.4769700000000  0.5321010000000 1.0
C      1  0.5596300000000  0.5557970000000  0.4821460000000 1.0
C      1  0.4237640000000  0.4349640000000  0.4880940000000 1.0
C      1  0.5781870000000  0.4499530000000  0.5226930000000 1.0
C      1  0.4648350000000  0.4552520000000  0.4259680000000 1.0
C      1  0.5443230000000  0.5005810000000  0.5182540000000 1.0
C      1  0.5745520000000  0.5386650000000  0.5528710000000 1.0
C      1  0.5380160000000  0.4266650000000  0.4676670000000 1.0
C      1  0.6000800000000  0.4877710000000  0.5033000000000 1.0
C      1  0.4885220000000  0.5391860000000  0.4839470000000 1.0
C      1  0.4631970000000  0.5024600000000  0.5656780000000 1.0
C      1  0.5647250000000  0.5644770000000  0.5120700000000 1.0
C      1  0.4188750000000  0.4775130000000  0.5643660000000 1.0
C      1  0.4511360000000  0.4790370000000  0.5204730000000 1.0
C      1  0.4415950000000  0.5645070000000  0.4746870000000 1.0
C      1  0.4235040000000  0.5045690000000  0.4907810000000 1.0
C      1  0.4069530000000  0.4988060000000  0.5450380000000 1.0
C      1  0.5018040000000  0.4788460000000  0.5442570000000 1.0
C      1  0.5616570000000  0.5040830000000  0.4713060000000 1.0
C      1  0.5981120000000  0.4710250000000  0.5270700000000 1.0
C      1  0.4640010000000  0.5840620000000  0.4751510000000 1.0
C      1  0.5611140000000  0.4340310000000  0.5404280000000 1.0
C      1  0.4367890000000  0.5415160000000  0.5780620000000 1.0
C      1  0.3923120000000  0.4877530000000  0.5232690000000 1.0
C      1  0.4593890000000  0.4517350000000  0.5784900000000 1.0
C      1  0.4549160000000  0.5668970000000  0.5216200000000 1.0
C      1  0.4103230000000  0.5400020000000  0.4438040000000 1.0
C      1  0.5825200000000  0.4828040000000  0.4807960000000 1.0
C      1  0.5708180000000  0.4687420000000  0.5719760000000 1.0
C      1  0.4995340000000  0.4882660000000  0.4594620000000 1.0
C      1  0.4264110000000  0.5456180000000  0.5529560000000 1.0
C      1  0.4214790000000  0.4514040000000  0.5519900000000 1.0
C      1  0.5286210000000  0.3928980000000  0.5275220000000 1.0
C      1  0.4901080000000  0.4543700000000  0.5544430000000 1.0
C      1  0.4396960000000  0.4545260000000  0.5299680000000 1.0
C      1  0.5298780000000  0.5935870000000  0.5282580000000 1.0
C      1  0.5109070000000  0.4122400000000  0.4987950000000 1.0
C      1  0.4595240000000  0.5268410000000  0.5828900000000 1.0
C      1  0.5152840000000  0.5332810000000  0.4973530000000 1.0
C      1  0.5010710000000  0.5906910000000  0.4658410000000 1.0
C      1  0.5317930000000  0.4524700000000  0.5843210000000 1.0
C      1  0.4825020000000  0.5657190000000  0.4412990000000 1.0
C      1  0.4476850000000  0.4251490000000  0.5617490000000 1.0
C      1  0.4881290000000  0.6024220000000  0.5127040000000 1.0
C      1  0.5257870000000  0.5640910000000  0.4311910000000 1.0
C      1  0.4468260000000  0.4099270000000  0.5318560000000 1.0
C      1  0.5372380000000  0.4576700000000  0.4477290000000 1.0
C      1  0.4392920000000  0.4322840000000  0.4630700000000 1.0
C      1  0.4067540000000  0.4573000000000  0.4882490000000 1.0
C      1  0.4929410000000  0.4545430000000  0.5856310000000 1.0
C      1  0.4440900000000  0.5477060000000  0.4999510000000 1.0
C      1  0.4990870000000  0.4370210000000  0.5111000000000 1.0
C      1  0.4401450000000  0.4521430000000  0.4412300000000 1.0
C      1  0.4939600000000  0.4979340000000  0.5654430000000 1.0
C      1  0.4807850000000  0.4091610000000  0.5497990000000 1.0
C      1  0.5285320000000  0.5392600000000  0.4489650000000 1.0
C      1  0.5486780000000  0.5154660000000  0.4123090000000 1.0
C      1  0.5346410000000  0.5055900000000  0.4912260000000 1.0
C      1  0.4747530000000  0.5168600000000  0.5200730000000 1.0
C      1  0.4253470000000  0.4953050000000  0.4241150000000 1.0
C      1  0.4445470000000  0.4327850000000  0.5113930000000 1.0
C      1  0.6011060000000  0.5307090000000  0.5117780000000 1.0
C      1  0.4657020000000  0.5263810000000  0.4132430000000 1.0
C      1  0.4667940000000  0.4773860000000  0.4088050000000 1.0
C      1  0.4527640000000  0.5002910000000  0.4161260000000 1.0
C      1  0.5023950000000  0.5968620000000  0.5392080000000 1.0
C      1  0.5557120000000  0.4445690000000  0.5684530000000 1.0
C      1  0.5691490000000  0.5565180000000  0.4364240000000 1.0
C      1  0.5091130000000  0.5213950000000  0.5539090000000 1.0
END
