TITL C-950527-2551-419 3.22189723560888e-06 125000 -842.898462482035 0 0 137 (C1) n - 1
REM
REM in /home/bkarasulu/work/CARBON/AIRSS/Generating-Clusters/EDIP-Nigel-Params/with-SteepDescent/Only-C1/SD-CG/HFTN-CG
REM
REM
REM
REM
REM
REM ./C.cell (11c1c37f851c82e70ff6c80c92926a4b)
REM
REM compiler GCC version 9.2.1 20190827 (Red Hat 9.2.1-1)
REM options -cpp -mtune=generic -march=x86-64 -g -O0 -fpre-include=/usr/include/finclude/math-vector-fortran.h
REM seed 1346437867 429607058 -958289340 409205013 1098812332 -1632356025 784040523 1416248638 1465614036 -523267034 -25774896 891857037 -1660920507 -713729166 -1494950563 -1176524047 -1766953905 4238801 -1685360177 -1486021998 -1912135775 -1696952602 2028353488 91912142 -98959847 949967799 432827160 -724348869 -1303372216 -2048360877 -1223681246 -1648195568 -266342444
REM
CELL 1.54180   50.00000   50.00000   50.00000   90.00000   90.00000   90.00000
LATT -1
SFAC C  
C      1  0.4863090000000  0.4526570000000  0.4725620000000 1.0
C      1  0.4702630000000  0.4887050000000  0.4165430000000 1.0
C      1  0.5470640000000  0.4800780000000  0.5743340000000 1.0
C      1  0.4319410000000  0.5360700000000  0.4339500000000 1.0
C      1  0.5017320000000  0.4704340000000  0.4497290000000 1.0
C      1  0.5225860000000  0.4698840000000  0.5354200000000 1.0
C      1  0.5161310000000  0.6007520000000  0.4911800000000 1.0
C      1  0.5434110000000  0.4130380000000  0.4738670000000 1.0
C      1  0.5890160000000  0.5061810000000  0.5563240000000 1.0
C      1  0.4127860000000  0.4829020000000  0.4501030000000 1.0
C      1  0.5607130000000  0.5468800000000  0.5300880000000 1.0
C      1  0.5650190000000  0.5104980000000  0.4154920000000 1.0
C      1  0.4560420000000  0.5533340000000  0.4319160000000 1.0
C      1  0.4672990000000  0.4531320000000  0.5676290000000 1.0
C      1  0.4510970000000  0.5732710000000  0.5234650000000 1.0
C      1  0.5163880000000  0.5364200000000  0.4584640000000 1.0
C      1  0.4919800000000  0.5207310000000  0.5943500000000 1.0
C      1  0.5813320000000  0.4137380000000  0.5077390000000 1.0
C      1  0.4598540000000  0.4967750000000  0.5427030000000 1.0
C      1  0.4600970000000  0.5386900000000  0.4918910000000 1.0
C      1  0.4432480000000  0.5448560000000  0.5198830000000 1.0
C      1  0.4736760000000  0.4473580000000  0.5205150000000 1.0
C      1  0.4807670000000  0.4306850000000  0.4303490000000 1.0
C      1  0.5916080000000  0.4696800000000  0.4897140000000 1.0
C      1  0.4132510000000  0.5437060000000  0.5246490000000 1.0
C      1  0.5865730000000  0.5506560000000  0.5450150000000 1.0
C      1  0.4419340000000  0.5744920000000  0.4743980000000 1.0
C      1  0.5256630000000  0.4972820000000  0.4828930000000 1.0
C      1  0.5471550000000  0.4313770000000  0.5566050000000 1.0
C      1  0.5648680000000  0.5831240000000  0.5185130000000 1.0
C      1  0.4665350000000  0.5070600000000  0.4911560000000 1.0
C      1  0.4640140000000  0.5653370000000  0.4570440000000 1.0
C      1  0.4582220000000  0.4628890000000  0.4763000000000 1.0
C      1  0.5496020000000  0.4605800000000  0.5504700000000 1.0
C      1  0.4057000000000  0.4727650000000  0.5319070000000 1.0
C      1  0.4268770000000  0.4866540000000  0.4241280000000 1.0
C      1  0.4593840000000  0.4905540000000  0.4669750000000 1.0
C      1  0.5686250000000  0.4695740000000  0.5276890000000 1.0
C      1  0.4820670000000  0.4263740000000  0.4599460000000 1.0
C      1  0.4293160000000  0.4567820000000  0.5371330000000 1.0
C      1  0.5188210000000  0.6024390000000  0.5204930000000 1.0
C      1  0.4543190000000  0.4940370000000  0.5141290000000 1.0
C      1  0.5194970000000  0.5218250000000  0.5827790000000 1.0
C      1  0.4902810000000  0.5215690000000  0.4493610000000 1.0
C      1  0.4024930000000  0.4995680000000  0.4964140000000 1.0
C      1  0.4485020000000  0.4673240000000  0.4147600000000 1.0
C      1  0.3969750000000  0.4731180000000  0.5045660000000 1.0
C      1  0.4882660000000  0.5609580000000  0.5756300000000 1.0
C      1  0.5218020000000  0.5164070000000  0.4199880000000 1.0
C      1  0.4922290000000  0.5325450000000  0.4004540000000 1.0
C      1  0.5296470000000  0.4390310000000  0.4239230000000 1.0
C      1  0.4350150000000  0.4440340000000  0.4695100000000 1.0
C      1  0.4460040000000  0.4714680000000  0.5579650000000 1.0
C      1  0.5416980000000  0.5672890000000  0.4781150000000 1.0
C      1  0.4105070000000  0.4992760000000  0.5437610000000 1.0
C      1  0.4558020000000  0.4409340000000  0.4217060000000 1.0
C      1  0.4948470000000  0.5164030000000  0.5243840000000 1.0
C      1  0.4255940000000  0.5515460000000  0.4797300000000 1.0
C      1  0.4472770000000  0.5909070000000  0.4999880000000 1.0
C      1  0.5041580000000  0.4241820000000  0.5504240000000 1.0
C      1  0.4804320000000  0.4923250000000  0.4458410000000 1.0
C      1  0.4861990000000  0.4693660000000  0.5822450000000 1.0
C      1  0.4809200000000  0.5459930000000  0.5983790000000 1.0
C      1  0.5634560000000  0.4667120000000  0.4321500000000 1.0
C      1  0.4886810000000  0.5581140000000  0.5000980000000 1.0
C      1  0.4257680000000  0.5090630000000  0.5688270000000 1.0
C      1  0.5501590000000  0.5472480000000  0.4420520000000 1.0
C      1  0.5375220000000  0.5754270000000  0.5608400000000 1.0
C      1  0.4102520000000  0.5511550000000  0.5520310000000 1.0
C      1  0.5952970000000  0.5246400000000  0.5013150000000 1.0
C      1  0.5189040000000  0.4954380000000  0.5701270000000 1.0
C      1  0.4759230000000  0.4333810000000  0.5468480000000 1.0
C      1  0.5740570000000  0.5074120000000  0.4614730000000 1.0
C      1  0.4804790000000  0.5705420000000  0.5277360000000 1.0
C      1  0.5995240000000  0.5259700000000  0.5376830000000 1.0
C      1  0.4892370000000  0.5801730000000  0.4564620000000 1.0
C      1  0.5633000000000  0.4990100000000  0.5284060000000 1.0
C      1  0.4555710000000  0.5321410000000  0.5456790000000 1.0
C      1  0.4947690000000  0.4506740000000  0.5010210000000 1.0
C      1  0.5466830000000  0.5314130000000  0.4172840000000 1.0
C      1  0.4035840000000  0.5161620000000  0.5210150000000 1.0
C      1  0.5648040000000  0.5237180000000  0.5098820000000 1.0
C      1  0.5734300000000  0.5361650000000  0.4587990000000 1.0
C      1  0.4843140000000  0.4017560000000  0.4765130000000 1.0
C      1  0.4390490000000  0.5133050000000  0.4171040000000 1.0
C      1  0.4915170000000  0.4845930000000  0.3974340000000 1.0
C      1  0.5946650000000  0.4603810000000  0.5178450000000 1.0
C      1  0.5152090000000  0.5656730000000  0.4495600000000 1.0
C      1  0.4744610000000  0.5303870000000  0.4238940000000 1.0
C      1  0.4807250000000  0.5497750000000  0.5499690000000 1.0
C      1  0.5159020000000  0.3991560000000  0.5119120000000 1.0
C      1  0.5246140000000  0.4938400000000  0.4515080000000 1.0
C      1  0.5022740000000  0.4514490000000  0.4246550000000 1.0
C      1  0.5410140000000  0.5243070000000  0.4858100000000 1.0
C      1  0.4500730000000  0.4025470000000  0.4954720000000 1.0
C      1  0.4318850000000  0.5376710000000  0.5647100000000 1.0
C      1  0.5640380000000  0.5053540000000  0.5717670000000 1.0
C      1  0.5189780000000  0.5455340000000  0.5011270000000 1.0
C      1  0.5261540000000  0.4235270000000  0.5282630000000 1.0
C      1  0.5645560000000  0.4556410000000  0.4830440000000 1.0
C      1  0.4579540000000  0.4103690000000  0.5458930000000 1.0
C      1  0.4898050000000  0.6005270000000  0.5277970000000 1.0
C      1  0.4220380000000  0.5308540000000  0.4609000000000 1.0
C      1  0.5574650000000  0.4946690000000  0.4395370000000 1.0
C      1  0.5223720000000  0.3962060000000  0.4834150000000 1.0
C      1  0.4637670000000  0.3955700000000  0.5226700000000 1.0
C      1  0.5911490000000  0.4990120000000  0.4836770000000 1.0
C      1  0.4963660000000  0.5040710000000  0.4966990000000 1.0
C      1  0.5220360000000  0.4518770000000  0.5113530000000 1.0
C      1  0.4459020000000  0.4967920000000  0.5867470000000 1.0
C      1  0.5484950000000  0.4559430000000  0.4108480000000 1.0
C      1  0.5613930000000  0.4267440000000  0.4930410000000 1.0
C      1  0.5396800000000  0.4707250000000  0.4941820000000 1.0
C      1  0.5614630000000  0.4488080000000  0.4542830000000 1.0
C      1  0.4349180000000  0.4284140000000  0.4946740000000 1.0
C      1  0.5219840000000  0.5259360000000  0.5257090000000 1.0
C      1  0.5371430000000  0.5954820000000  0.4737380000000 1.0
C      1  0.4728700000000  0.6057970000000  0.5003070000000 1.0
C      1  0.4872880000000  0.4078450000000  0.5069320000000 1.0
C      1  0.5583020000000  0.5547170000000  0.5680790000000 1.0
C      1  0.5067980000000  0.5079260000000  0.3951080000000 1.0
C      1  0.4754790000000  0.4970000000000  0.5861100000000 1.0
C      1  0.4911980000000  0.5866320000000  0.4853040000000 1.0
C      1  0.4093450000000  0.5057300000000  0.4683600000000 1.0
C      1  0.4934560000000  0.4936730000000  0.5457920000000 1.0
C      1  0.5342260000000  0.4978020000000  0.5287660000000 1.0
C      1  0.4116710000000  0.4567540000000  0.4604490000000 1.0
C      1  0.5674530000000  0.5689220000000  0.4926800000000 1.0
C      1  0.5147800000000  0.4597740000000  0.5852790000000 1.0
C      1  0.4459010000000  0.4521380000000  0.5117510000000 1.0
C      1  0.5969560000000  0.4325080000000  0.5191660000000 1.0
C      1  0.5387190000000  0.4319380000000  0.4515770000000 1.0
C      1  0.5212990000000  0.4332710000000  0.5723470000000 1.0
C      1  0.5130230000000  0.5741240000000  0.5744110000000 1.0
C      1  0.5391450000000  0.5849070000000  0.5328610000000 1.0
C      1  0.5874150000000  0.5495200000000  0.4818930000000 1.0
C      1  0.5484870000000  0.5290640000000  0.5797730000000 1.0
END
