TITL C-950531-5884-261 -4.01376283034162e-06 125000 -1180.69165324258 0 0 189 (C1) n - 1
REM
REM in /home/bkarasulu/work/CARBON/AIRSS/Generating-Clusters/EDIP-Nigel-Params/with-SteepDescent/Only-C1/SD-CG/HFTN-CG
REM
REM
REM
REM
REM
REM ./C.cell (11c1c37f851c82e70ff6c80c92926a4b)
REM
REM compiler GCC version 9.2.1 20190827 (Red Hat 9.2.1-1)
REM options -cpp -mtune=generic -march=x86-64 -g -O0 -fpre-include=/usr/include/finclude/math-vector-fortran.h
REM seed 158566300 -484407330 530301319 204194506 1774121834 716911812 -1000152493 -85778882 -1605224306 -1488000192 1579877698 1441710463 1305534132 854992468 1540730808 1023027383 1936739083 1647464417 -1116281546 -335124039 -1023698488 1758086631 -657172448 283154274 983371969 -835902650 974590206 -928477408 1165155805 1832187562 1483787298 401744853 -2118188222
REM
CELL 1.54180   50.00000   50.00000   50.00000   90.00000   90.00000   90.00000
LATT -1
SFAC C  
C      1  0.5560100000000  0.4096120000000  0.5243030000000 1.0
C      1  0.4789960000000  0.4879840000000  0.4054410000000 1.0
C      1  0.4415150000000  0.4171640000000  0.4774190000000 1.0
C      1  0.5879980000000  0.4327350000000  0.4981730000000 1.0
C      1  0.4560870000000  0.4717690000000  0.5902440000000 1.0
C      1  0.5192000000000  0.5273690000000  0.4024670000000 1.0
C      1  0.3921030000000  0.4545300000000  0.4783790000000 1.0
C      1  0.5426320000000  0.5121000000000  0.5237970000000 1.0
C      1  0.5874190000000  0.4639260000000  0.4954940000000 1.0
C      1  0.4890000000000  0.4474690000000  0.4722960000000 1.0
C      1  0.4737010000000  0.3797460000000  0.4971780000000 1.0
C      1  0.3895120000000  0.5277930000000  0.5297700000000 1.0
C      1  0.4496210000000  0.4814460000000  0.4002160000000 1.0
C      1  0.5646510000000  0.4830910000000  0.4928780000000 1.0
C      1  0.5220010000000  0.3909450000000  0.4953390000000 1.0
C      1  0.4224100000000  0.4201930000000  0.5004240000000 1.0
C      1  0.3868970000000  0.4828770000000  0.4879490000000 1.0
C      1  0.5404140000000  0.4302030000000  0.4777660000000 1.0
C      1  0.4774190000000  0.5621200000000  0.5799890000000 1.0
C      1  0.5090050000000  0.4555570000000  0.4958910000000 1.0
C      1  0.4093920000000  0.4808890000000  0.4406980000000 1.0
C      1  0.4962830000000  0.4993890000000  0.4765070000000 1.0
C      1  0.6179960000000  0.4901920000000  0.4643160000000 1.0
C      1  0.5597990000000  0.4279120000000  0.4355600000000 1.0
C      1  0.4167060000000  0.4910000000000  0.4882500000000 1.0
C      1  0.5362060000000  0.6069800000000  0.5251680000000 1.0
C      1  0.5702620000000  0.4202320000000  0.4781670000000 1.0
C      1  0.5784580000000  0.5015960000000  0.4325520000000 1.0
C      1  0.4221990000000  0.5777020000000  0.5062970000000 1.0
C      1  0.4143390000000  0.5366260000000  0.4282720000000 1.0
C      1  0.5176330000000  0.6066110000000  0.4990780000000 1.0
C      1  0.5130260000000  0.5639670000000  0.5237540000000 1.0
C      1  0.4756810000000  0.5865560000000  0.5624620000000 1.0
C      1  0.6167000000000  0.5191290000000  0.4743680000000 1.0
C      1  0.4097680000000  0.4618180000000  0.5539620000000 1.0
C      1  0.5275860000000  0.4068000000000  0.5215530000000 1.0
C      1  0.3748090000000  0.4865750000000  0.5128470000000 1.0
C      1  0.4793990000000  0.4998820000000  0.4329460000000 1.0
C      1  0.5744570000000  0.5362890000000  0.4972710000000 1.0
C      1  0.5196040000000  0.4705670000000  0.5586000000000 1.0
C      1  0.5151430000000  0.5207930000000  0.4762700000000 1.0
C      1  0.4793760000000  0.5212350000000  0.5648610000000 1.0
C      1  0.5188840000000  0.4346340000000  0.6012310000000 1.0
C      1  0.4633270000000  0.5404260000000  0.5439220000000 1.0
C      1  0.5309060000000  0.5838550000000  0.4575930000000 1.0
C      1  0.4208860000000  0.5369300000000  0.5653410000000 1.0
C      1  0.4166170000000  0.4962920000000  0.5909600000000 1.0
C      1  0.4910340000000  0.4615010000000  0.5562090000000 1.0
C      1  0.4606080000000  0.5111150000000  0.5065870000000 1.0
C      1  0.4749860000000  0.5380620000000  0.3890620000000 1.0
C      1  0.4651130000000  0.5300730000000  0.4342810000000 1.0
C      1  0.5526430000000  0.5454750000000  0.4379450000000 1.0
C      1  0.4906800000000  0.4173100000000  0.4672140000000 1.0
C      1  0.5958450000000  0.4832540000000  0.4462730000000 1.0
C      1  0.5532720000000  0.4016310000000  0.4271880000000 1.0
C      1  0.4571600000000  0.5687520000000  0.4808290000000 1.0
C      1  0.4366170000000  0.4296440000000  0.5757430000000 1.0
C      1  0.4590210000000  0.5932660000000  0.4618810000000 1.0
C      1  0.4774740000000  0.4516780000000  0.5820690000000 1.0
C      1  0.5637400000000  0.6024690000000  0.4853080000000 1.0
C      1  0.4579800000000  0.5910340000000  0.5383700000000 1.0
C      1  0.4635440000000  0.5400330000000  0.4647660000000 1.0
C      1  0.5016250000000  0.3711920000000  0.4953800000000 1.0
C      1  0.5679770000000  0.4577580000000  0.5281930000000 1.0
C      1  0.4917760000000  0.4379700000000  0.5388390000000 1.0
C      1  0.5051680000000  0.5726240000000  0.4665600000000 1.0
C      1  0.5154470000000  0.5258870000000  0.5683460000000 1.0
C      1  0.5424690000000  0.5639550000000  0.5238020000000 1.0
C      1  0.4352400000000  0.4670130000000  0.4944380000000 1.0
C      1  0.4704670000000  0.6085200000000  0.5064160000000 1.0
C      1  0.5304020000000  0.4991060000000  0.4401490000000 1.0
C      1  0.5035300000000  0.4879340000000  0.4487370000000 1.0
C      1  0.5256100000000  0.5271300000000  0.5024380000000 1.0
C      1  0.5630330000000  0.5956940000000  0.5145450000000 1.0
C      1  0.5360550000000  0.5079310000000  0.5836110000000 1.0
C      1  0.5039460000000  0.5770480000000  0.4992460000000 1.0
C      1  0.5177830000000  0.3950760000000  0.5483530000000 1.0
C      1  0.4916920000000  0.5161000000000  0.3938330000000 1.0
C      1  0.5267970000000  0.4124350000000  0.5712670000000 1.0
C      1  0.4897320000000  0.5107840000000  0.6011430000000 1.0
C      1  0.5397400000000  0.4550630000000  0.6017900000000 1.0
C      1  0.5817520000000  0.4942760000000  0.5897590000000 1.0
C      1  0.4654000000000  0.4242830000000  0.5761050000000 1.0
C      1  0.5240850000000  0.5562840000000  0.3971580000000 1.0
C      1  0.3866890000000  0.5005860000000  0.5337370000000 1.0
C      1  0.5487460000000  0.5654280000000  0.4146920000000 1.0
C      1  0.5030190000000  0.4821350000000  0.6039790000000 1.0
C      1  0.5001550000000  0.5998020000000  0.5586930000000 1.0
C      1  0.4676710000000  0.5115610000000  0.4768540000000 1.0
C      1  0.5269200000000  0.5958970000000  0.5507870000000 1.0
C      1  0.4407830000000  0.4554700000000  0.4056800000000 1.0
C      1  0.4857720000000  0.4131900000000  0.4379410000000 1.0
C      1  0.5339610000000  0.4651600000000  0.3860790000000 1.0
C      1  0.5641340000000  0.5150430000000  0.5817450000000 1.0
C      1  0.4208120000000  0.5501880000000  0.4701800000000 1.0
C      1  0.4523370000000  0.4913440000000  0.4594990000000 1.0
C      1  0.4736860000000  0.5362800000000  0.5176360000000 1.0
C      1  0.4083960000000  0.4537530000000  0.4526010000000 1.0
C      1  0.4941760000000  0.4596210000000  0.4129790000000 1.0
C      1  0.5847240000000  0.4700730000000  0.5487910000000 1.0
C      1  0.5029230000000  0.5375020000000  0.5200070000000 1.0
C      1  0.4324650000000  0.4528330000000  0.5936990000000 1.0
C      1  0.5477900000000  0.4308670000000  0.5623080000000 1.0
C      1  0.4775710000000  0.3727810000000  0.5260560000000 1.0
C      1  0.5266050000000  0.5281060000000  0.4340610000000 1.0
C      1  0.5732590000000  0.4721960000000  0.5742070000000 1.0
C      1  0.5067240000000  0.4579560000000  0.4497960000000 1.0
C      1  0.5165310000000  0.4367940000000  0.5221880000000 1.0
C      1  0.4282950000000  0.5516950000000  0.5876350000000 1.0
C      1  0.5777280000000  0.5291080000000  0.4413960000000 1.0
C      1  0.4477890000000  0.4390700000000  0.4272250000000 1.0
C      1  0.4875760000000  0.6004120000000  0.4622740000000 1.0
C      1  0.4286230000000  0.4181940000000  0.5282380000000 1.0
C      1  0.5174410000000  0.4213820000000  0.4016130000000 1.0
C      1  0.5875310000000  0.5387080000000  0.5392590000000 1.0
C      1  0.4741520000000  0.5787080000000  0.5051780000000 1.0
C      1  0.4260920000000  0.5064830000000  0.5648380000000 1.0
C      1  0.5272830000000  0.4793440000000  0.5867210000000 1.0
C      1  0.4127880000000  0.4899560000000  0.5422220000000 1.0
C      1  0.4754750000000  0.5523270000000  0.4142870000000 1.0
C      1  0.5392760000000  0.4744970000000  0.4820160000000 1.0
C      1  0.5942900000000  0.5667200000000  0.5414080000000 1.0
C      1  0.4253190000000  0.5935390000000  0.4816220000000 1.0
C      1  0.4547210000000  0.4620650000000  0.4710540000000 1.0
C      1  0.5903970000000  0.5816750000000  0.5172820000000 1.0
C      1  0.5091970000000  0.4045110000000  0.4230690000000 1.0
C      1  0.4278400000000  0.4379630000000  0.5490240000000 1.0
C      1  0.4608470000000  0.5194110000000  0.6041220000000 1.0
C      1  0.5254010000000  0.5744390000000  0.5912470000000 1.0
C      1  0.5932180000000  0.4571350000000  0.4358080000000 1.0
C      1  0.4761470000000  0.4372890000000  0.4253830000000 1.0
C      1  0.5397490000000  0.5353370000000  0.5448490000000 1.0
C      1  0.5067710000000  0.5417280000000  0.4565970000000 1.0
C      1  0.5375630000000  0.4514430000000  0.5418430000000 1.0
C      1  0.4906240000000  0.6177150000000  0.4873790000000 1.0
C      1  0.5355100000000  0.4545420000000  0.4612560000000 1.0
C      1  0.5755390000000  0.5793770000000  0.4711100000000 1.0
C      1  0.5302680000000  0.5871360000000  0.4277010000000 1.0
C      1  0.5387940000000  0.5124160000000  0.3881730000000 1.0
C      1  0.4985640000000  0.4825780000000  0.5014730000000 1.0
C      1  0.5823250000000  0.4247930000000  0.4526280000000 1.0
C      1  0.4371620000000  0.4414770000000  0.4557400000000 1.0
C      1  0.5966190000000  0.4937570000000  0.5427560000000 1.0
C      1  0.4311710000000  0.4973900000000  0.4147170000000 1.0
C      1  0.5063370000000  0.5743970000000  0.4132020000000 1.0
C      1  0.4568530000000  0.4956610000000  0.5667670000000 1.0
C      1  0.4552300000000  0.5456980000000  0.5918810000000 1.0
C      1  0.4739770000000  0.4827230000000  0.5453940000000 1.0
C      1  0.4381560000000  0.5243820000000  0.4199180000000 1.0
C      1  0.5659830000000  0.5376080000000  0.5603960000000 1.0
C      1  0.4538280000000  0.5710140000000  0.4163070000000 1.0
C      1  0.5027210000000  0.5586820000000  0.5945920000000 1.0
C      1  0.5508890000000  0.5632080000000  0.4642170000000 1.0
C      1  0.4296950000000  0.5077260000000  0.5109800000000 1.0
C      1  0.5078910000000  0.5332200000000  0.6057990000000 1.0
C      1  0.5610100000000  0.4475300000000  0.5840290000000 1.0
C      1  0.5542110000000  0.4852150000000  0.4236870000000 1.0
C      1  0.5479700000000  0.4874890000000  0.3948840000000 1.0
C      1  0.4119930000000  0.4481120000000  0.5001990000000 1.0
C      1  0.6062540000000  0.5173840000000  0.5326440000000 1.0
C      1  0.4334050000000  0.5471950000000  0.5412810000000 1.0
C      1  0.4193550000000  0.5770730000000  0.4562860000000 1.0
C      1  0.6136830000000  0.4795060000000  0.4941520000000 1.0
C      1  0.5432090000000  0.5831550000000  0.5717510000000 1.0
C      1  0.4685350000000  0.4062770000000  0.4845970000000 1.0
C      1  0.4115130000000  0.5279040000000  0.4548170000000 1.0
C      1  0.5211730000000  0.4077910000000  0.4705440000000 1.0
C      1  0.5136860000000  0.4481830000000  0.3945010000000 1.0
C      1  0.4747730000000  0.4159390000000  0.5490920000000 1.0
C      1  0.4160120000000  0.5332800000000  0.5193570000000 1.0
C      1  0.5666480000000  0.4547770000000  0.4239360000000 1.0
C      1  0.5948840000000  0.5364380000000  0.4646250000000 1.0
C      1  0.5920200000000  0.5645440000000  0.4915120000000 1.0
C      1  0.4748540000000  0.4875340000000  0.5172030000000 1.0
C      1  0.5675260000000  0.5668530000000  0.5684550000000 1.0
C      1  0.4322790000000  0.5766790000000  0.5345260000000 1.0
C      1  0.6085780000000  0.5091850000000  0.5030030000000 1.0
C      1  0.4224690000000  0.4997120000000  0.4597320000000 1.0
C      1  0.4394340000000  0.5000840000000  0.6095650000000 1.0
C      1  0.5295830000000  0.3960540000000  0.4420920000000 1.0
C      1  0.4880640000000  0.3892810000000  0.5479770000000 1.0
C      1  0.4955910000000  0.4523450000000  0.6049210000000 1.0
C      1  0.5466020000000  0.5489270000000  0.4961200000000 1.0
C      1  0.5366830000000  0.6069680000000  0.4755150000000 1.0
C      1  0.4095770000000  0.4678450000000  0.5838700000000 1.0
C      1  0.4127470000000  0.5525360000000  0.4977400000000 1.0
C      1  0.5698510000000  0.5067620000000  0.5114620000000 1.0
C      1  0.5763850000000  0.4287080000000  0.5244590000000 1.0
C      1  0.4424800000000  0.5866650000000  0.4366280000000 1.0
END
