TITL C-950530-3293-669 -1.05237526671783e-06 125000 -409.536422187553 0 0 68 (C1) n - 1
REM
REM in /home/bkarasulu/work/CARBON/AIRSS/Generating-Clusters/EDIP-Nigel-Params/with-SteepDescent/Only-C1/SD-CG/HFTN-CG
REM
REM
REM
REM
REM
REM ./C.cell (11c1c37f851c82e70ff6c80c92926a4b)
REM
REM compiler GCC version 9.2.1 20190827 (Red Hat 9.2.1-1)
REM options -cpp -mtune=generic -march=x86-64 -g -O0 -fpre-include=/usr/include/finclude/math-vector-fortran.h
REM seed -1729026260 1392805806 -813441856 -428353406 953891853 -13871286 -1019014302 -925988980 -1329449071 -1911068338 1379765768 1794444483 -1028171126 1451060675 1473962849 -1287179117 -545673592 -1075886398 -734097260 49326646 -319568100 -400593553 1031438357 -104821820 -1947460461 1546667780 411058637 148888291 -363231141 -2103453361 1247504273 -410099841 1221307495
REM
CELL 1.54180   50.00000   50.00000   50.00000   90.00000   90.00000   90.00000
LATT -1
SFAC C  
C      1  0.4632310000000  0.4796280000000  0.4408520000000 1.0
C      1  0.5465660000000  0.5168610000000  0.4291720000000 1.0
C      1  0.4871710000000  0.5337030000000  0.4618070000000 1.0
C      1  0.5097230000000  0.4986470000000  0.4478840000000 1.0
C      1  0.5188490000000  0.4492260000000  0.4656540000000 1.0
C      1  0.4663220000000  0.5649920000000  0.5372010000000 1.0
C      1  0.5785200000000  0.4906610000000  0.4732560000000 1.0
C      1  0.5004510000000  0.4657670000000  0.4848830000000 1.0
C      1  0.5587790000000  0.5313420000000  0.4516820000000 1.0
C      1  0.5544100000000  0.4811430000000  0.5361750000000 1.0
C      1  0.5700530000000  0.5035650000000  0.5305260000000 1.0
C      1  0.4920650000000  0.5076370000000  0.4957880000000 1.0
C      1  0.4873290000000  0.4906910000000  0.4674760000000 1.0
C      1  0.4752450000000  0.4890860000000  0.5399120000000 1.0
C      1  0.4577960000000  0.4356300000000  0.4814880000000 1.0
C      1  0.5331830000000  0.4439220000000  0.5236210000000 1.0
C      1  0.4914350000000  0.5307060000000  0.5657470000000 1.0
C      1  0.4627310000000  0.4342610000000  0.4540880000000 1.0
C      1  0.4604550000000  0.5620350000000  0.4577850000000 1.0
C      1  0.5572230000000  0.4585090000000  0.5186570000000 1.0
C      1  0.5179240000000  0.5181990000000  0.5647140000000 1.0
C      1  0.5413420000000  0.5649210000000  0.5426990000000 1.0
C      1  0.5146450000000  0.4927570000000  0.5092540000000 1.0
C      1  0.4454170000000  0.4570750000000  0.5351910000000 1.0
C      1  0.5366170000000  0.5465410000000  0.4647440000000 1.0
C      1  0.4270760000000  0.4526020000000  0.5148490000000 1.0
C      1  0.5275370000000  0.5336890000000  0.4892100000000 1.0
C      1  0.4705740000000  0.5054650000000  0.5151830000000 1.0
C      1  0.4323400000000  0.4487360000000  0.4878230000000 1.0
C      1  0.4289800000000  0.5054520000000  0.5348280000000 1.0
C      1  0.4907690000000  0.5534770000000  0.5473330000000 1.0
C      1  0.4315780000000  0.5266310000000  0.4898700000000 1.0
C      1  0.4264400000000  0.4696700000000  0.4703820000000 1.0
C      1  0.4989160000000  0.4189910000000  0.5001060000000 1.0
C      1  0.4274730000000  0.5307190000000  0.5468130000000 1.0
C      1  0.5146270000000  0.5679090000000  0.5454740000000 1.0
C      1  0.5134200000000  0.4918630000000  0.5733340000000 1.0
C      1  0.5193400000000  0.4518940000000  0.5479130000000 1.0
C      1  0.4910240000000  0.4547070000000  0.5478330000000 1.0
C      1  0.4647950000000  0.4527620000000  0.4347940000000 1.0
C      1  0.5715990000000  0.5299020000000  0.5217130000000 1.0
C      1  0.5318530000000  0.4766940000000  0.5563380000000 1.0
C      1  0.4699070000000  0.5769050000000  0.5120210000000 1.0
C      1  0.5454240000000  0.5405570000000  0.5290670000000 1.0
C      1  0.4908330000000  0.5696180000000  0.4944420000000 1.0
C      1  0.5172590000000  0.5223120000000  0.4315540000000 1.0
C      1  0.5120210000000  0.5482330000000  0.4471180000000 1.0
C      1  0.4438930000000  0.4885520000000  0.4596500000000 1.0
C      1  0.5811460000000  0.5328920000000  0.4956320000000 1.0
C      1  0.5298700000000  0.4593910000000  0.4416580000000 1.0
C      1  0.4589230000000  0.5342650000000  0.4498180000000 1.0
C      1  0.4423300000000  0.5529330000000  0.5442150000000 1.0
C      1  0.4410670000000  0.5168700000000  0.4651420000000 1.0
C      1  0.4722350000000  0.4471210000000  0.5280720000000 1.0
C      1  0.5404460000000  0.4363390000000  0.4803490000000 1.0
C      1  0.4460910000000  0.4848210000000  0.5496010000000 1.0
C      1  0.5398450000000  0.5074160000000  0.5002720000000 1.0
C      1  0.4870480000000  0.5720720000000  0.4652480000000 1.0
C      1  0.4425100000000  0.5087030000000  0.5088510000000 1.0
C      1  0.4769070000000  0.5032020000000  0.5664920000000 1.0
C      1  0.5264190000000  0.4240060000000  0.5038290000000 1.0
C      1  0.5032260000000  0.5443800000000  0.5004860000000 1.0
C      1  0.5362650000000  0.4861450000000  0.4492410000000 1.0
C      1  0.5605710000000  0.4593010000000  0.4888870000000 1.0
C      1  0.5501720000000  0.4870810000000  0.4775090000000 1.0
C      1  0.5795490000000  0.5196960000000  0.4707860000000 1.0
C      1  0.5287650000000  0.5163740000000  0.5367740000000 1.0
C      1  0.4814560000000  0.4421490000000  0.4992270000000 1.0
END
