TITL C-951342-2639-105 -6.22826365194943e-07 125000 -1010.66300232543 0 0 160 (C1) n - 1
REM
REM in /home/bkarasulu/work/CARBON/AIRSS/Generating-Clusters/EDIP-Nigel-Params/with-SteepDescent/Only-C1/SD-CG/HFTN-CG
REM
REM
REM
REM
REM
REM ./C.cell (11c1c37f851c82e70ff6c80c92926a4b)
REM
REM compiler GCC version 9.2.1 20190827 (Red Hat 9.2.1-1)
REM options -cpp -mtune=generic -march=x86-64 -g -O0 -fpre-include=/usr/include/finclude/math-vector-fortran.h
REM seed -1677229164 272940530 -5246638 -358443898 -153062034 -1626050352 -931500198 362646402 -995430677 1117592465 687434075 874569736 71474242 1688598817 -380081765 -1731638593 1268789826 1693534641 1237644148 -1842541676 1476416589 1518931041 -1778265554 1764972665 -1342919599 -2125677777 2064063867 896920540 -989961720 -359661447 -67500782 394200769 658345277
REM
CELL 1.54180   50.00000   50.00000   50.00000   90.00000   90.00000   90.00000
LATT -1
SFAC C  
C      1  0.4900840000000  0.5344640000000  0.4553860000000 1.0
C      1  0.4655430000000  0.5268270000000  0.6104890000000 1.0
C      1  0.5062820000000  0.4723090000000  0.5319020000000 1.0
C      1  0.4095690000000  0.4963770000000  0.4476670000000 1.0
C      1  0.4294570000000  0.4785170000000  0.5672270000000 1.0
C      1  0.3999130000000  0.4463140000000  0.5009900000000 1.0
C      1  0.5403520000000  0.4971530000000  0.4923560000000 1.0
C      1  0.4212440000000  0.4280560000000  0.4915630000000 1.0
C      1  0.5455000000000  0.4978030000000  0.5482890000000 1.0
C      1  0.5466100000000  0.5965420000000  0.5208800000000 1.0
C      1  0.4626750000000  0.5574870000000  0.4250100000000 1.0
C      1  0.4389800000000  0.5577310000000  0.4430790000000 1.0
C      1  0.5306180000000  0.5076050000000  0.5957950000000 1.0
C      1  0.5244630000000  0.4869510000000  0.4056450000000 1.0
C      1  0.4139340000000  0.4485920000000  0.4468100000000 1.0
C      1  0.4070520000000  0.5197190000000  0.4964400000000 1.0
C      1  0.5869080000000  0.5635870000000  0.4854520000000 1.0
C      1  0.6046830000000  0.4947250000000  0.5211690000000 1.0
C      1  0.4916010000000  0.5445090000000  0.4835530000000 1.0
C      1  0.5629690000000  0.5176020000000  0.5348580000000 1.0
C      1  0.5555130000000  0.5389610000000  0.5165300000000 1.0
C      1  0.4547730000000  0.5653020000000  0.5473480000000 1.0
C      1  0.5574050000000  0.5813730000000  0.5442150000000 1.0
C      1  0.5282810000000  0.4163210000000  0.5367170000000 1.0
C      1  0.4595110000000  0.4261030000000  0.4571200000000 1.0
C      1  0.4712770000000  0.4961740000000  0.5580490000000 1.0
C      1  0.5715850000000  0.4314610000000  0.5261600000000 1.0
C      1  0.5618390000000  0.4457380000000  0.5713780000000 1.0
C      1  0.5564350000000  0.4255510000000  0.5007040000000 1.0
C      1  0.5001320000000  0.5585220000000  0.5293450000000 1.0
C      1  0.4474300000000  0.5480570000000  0.4860460000000 1.0
C      1  0.5797860000000  0.5818510000000  0.5063310000000 1.0
C      1  0.5050870000000  0.5544680000000  0.5856870000000 1.0
C      1  0.5011130000000  0.4648010000000  0.5878580000000 1.0
C      1  0.4417510000000  0.5329040000000  0.4623970000000 1.0
C      1  0.5264870000000  0.4544400000000  0.5456540000000 1.0
C      1  0.4165950000000  0.5435890000000  0.4266420000000 1.0
C      1  0.5739440000000  0.5634030000000  0.5276970000000 1.0
C      1  0.4767170000000  0.5002110000000  0.4824210000000 1.0
C      1  0.5749630000000  0.4163860000000  0.4793020000000 1.0
C      1  0.4856120000000  0.5071240000000  0.6111260000000 1.0
C      1  0.5160110000000  0.5341100000000  0.4177920000000 1.0
C      1  0.4973310000000  0.4922870000000  0.4103480000000 1.0
C      1  0.5376890000000  0.5373570000000  0.4679270000000 1.0
C      1  0.4485820000000  0.4670650000000  0.4750850000000 1.0
C      1  0.5960930000000  0.4474590000000  0.5268840000000 1.0
C      1  0.5575150000000  0.5505520000000  0.4477930000000 1.0
C      1  0.4350890000000  0.5193460000000  0.4158770000000 1.0
C      1  0.4962700000000  0.5079610000000  0.5645750000000 1.0
C      1  0.4633160000000  0.5299750000000  0.4160560000000 1.0
C      1  0.4268240000000  0.4366830000000  0.5390710000000 1.0
C      1  0.5152590000000  0.5783440000000  0.5690020000000 1.0
C      1  0.4718680000000  0.5530820000000  0.5971990000000 1.0
C      1  0.4516420000000  0.4919870000000  0.5798790000000 1.0
C      1  0.5353950000000  0.4066610000000  0.5093790000000 1.0
C      1  0.5180820000000  0.6025750000000  0.5234280000000 1.0
C      1  0.5553160000000  0.4624700000000  0.4603650000000 1.0
C      1  0.4216970000000  0.4966430000000  0.5435640000000 1.0
C      1  0.5512200000000  0.4736060000000  0.5070680000000 1.0
C      1  0.5466510000000  0.4100150000000  0.4342080000000 1.0
C      1  0.5109110000000  0.5629920000000  0.4217990000000 1.0
C      1  0.4127680000000  0.5211310000000  0.4656100000000 1.0
C      1  0.5466470000000  0.4563560000000  0.4313600000000 1.0
C      1  0.5412670000000  0.5666920000000  0.5628330000000 1.0
C      1  0.5341430000000  0.5753510000000  0.4333690000000 1.0
C      1  0.5200980000000  0.5527410000000  0.4871800000000 1.0
C      1  0.5253030000000  0.4554100000000  0.5754220000000 1.0
C      1  0.4208320000000  0.5291600000000  0.5513020000000 1.0
C      1  0.4880500000000  0.4252090000000  0.5624270000000 1.0
C      1  0.4843460000000  0.4420640000000  0.4679910000000 1.0
C      1  0.4908780000000  0.5201220000000  0.4096360000000 1.0
C      1  0.4497640000000  0.5607110000000  0.5773420000000 1.0
C      1  0.5171060000000  0.4544820000000  0.4360450000000 1.0
C      1  0.4301460000000  0.5518750000000  0.5332530000000 1.0
C      1  0.5715020000000  0.5258290000000  0.5776010000000 1.0
C      1  0.5047550000000  0.4326040000000  0.4174350000000 1.0
C      1  0.4013150000000  0.5689100000000  0.4649480000000 1.0
C      1  0.5576190000000  0.5955870000000  0.4655770000000 1.0
C      1  0.5004100000000  0.4010430000000  0.4691480000000 1.0
C      1  0.4424000000000  0.5161080000000  0.5955260000000 1.0
C      1  0.4338290000000  0.4407130000000  0.4677320000000 1.0
C      1  0.5888810000000  0.5164450000000  0.4683770000000 1.0
C      1  0.5771670000000  0.4714040000000  0.5668160000000 1.0
C      1  0.4711570000000  0.5922720000000  0.5397350000000 1.0
C      1  0.5953970000000  0.4388320000000  0.4751090000000 1.0
C      1  0.4306250000000  0.4536510000000  0.4235110000000 1.0
C      1  0.4039680000000  0.4734590000000  0.4885080000000 1.0
C      1  0.5000980000000  0.4085130000000  0.5440080000000 1.0
C      1  0.5518450000000  0.4697590000000  0.5370750000000 1.0
C      1  0.4570830000000  0.4857040000000  0.4446870000000 1.0
C      1  0.4699070000000  0.4010630000000  0.4754380000000 1.0
C      1  0.3993040000000  0.4719280000000  0.4587770000000 1.0
C      1  0.5546840000000  0.5003980000000  0.5781780000000 1.0
C      1  0.5619570000000  0.4056370000000  0.4569430000000 1.0
C      1  0.4998560000000  0.6064280000000  0.4999460000000 1.0
C      1  0.6029720000000  0.5242500000000  0.5174350000000 1.0
C      1  0.4275170000000  0.5803400000000  0.4630080000000 1.0
C      1  0.4790120000000  0.4511070000000  0.5699310000000 1.0
C      1  0.5521900000000  0.5485120000000  0.5835250000000 1.0
C      1  0.4370190000000  0.5345190000000  0.5100610000000 1.0
C      1  0.5558290000000  0.5227730000000  0.4885340000000 1.0
C      1  0.4660730000000  0.5133220000000  0.4572660000000 1.0
C      1  0.4856120000000  0.5199540000000  0.5013420000000 1.0
C      1  0.5288230000000  0.5374620000000  0.5974800000000 1.0
C      1  0.3968970000000  0.4837800000000  0.5325310000000 1.0
C      1  0.5418430000000  0.4510050000000  0.4898580000000 1.0
C      1  0.5500220000000  0.4818790000000  0.4155380000000 1.0
C      1  0.6123630000000  0.4804990000000  0.4965100000000 1.0
C      1  0.4539720000000  0.4345770000000  0.4265290000000 1.0
C      1  0.3976190000000  0.5437050000000  0.4518460000000 1.0
C      1  0.4019590000000  0.4519570000000  0.5298590000000 1.0
C      1  0.5085480000000  0.4638900000000  0.5002230000000 1.0
C      1  0.4766380000000  0.5450060000000  0.5407460000000 1.0
C      1  0.4597940000000  0.4502840000000  0.5041400000000 1.0
C      1  0.5164720000000  0.5218480000000  0.4471850000000 1.0
C      1  0.5727530000000  0.5718000000000  0.4618560000000 1.0
C      1  0.4478050000000  0.5956560000000  0.4912180000000 1.0
C      1  0.4311980000000  0.4908780000000  0.4282650000000 1.0
C      1  0.5138190000000  0.4884700000000  0.4513000000000 1.0
C      1  0.5845690000000  0.5277100000000  0.5512830000000 1.0
C      1  0.4781070000000  0.4475370000000  0.4159740000000 1.0
C      1  0.4832510000000  0.3990980000000  0.5236320000000 1.0
C      1  0.4874290000000  0.4433800000000  0.4967140000000 1.0
C      1  0.5980780000000  0.4878750000000  0.4719160000000 1.0
C      1  0.5134820000000  0.5154000000000  0.5137610000000 1.0
C      1  0.5581340000000  0.4245900000000  0.5510380000000 1.0
C      1  0.4797250000000  0.4753060000000  0.4262410000000 1.0
C      1  0.4789950000000  0.4705450000000  0.5459860000000 1.0
C      1  0.4410830000000  0.4519090000000  0.5606060000000 1.0
C      1  0.4425680000000  0.4920450000000  0.5207060000000 1.0
C      1  0.5565030000000  0.4317500000000  0.4196710000000 1.0
C      1  0.4890150000000  0.5361180000000  0.5660780000000 1.0
C      1  0.5070450000000  0.5926310000000  0.4734500000000 1.0
C      1  0.4833520000000  0.5817170000000  0.4608380000000 1.0
C      1  0.4620970000000  0.4028040000000  0.5051380000000 1.0
C      1  0.5750210000000  0.5251900000000  0.4425100000000 1.0
C      1  0.5034630000000  0.4958350000000  0.5914330000000 1.0
C      1  0.5851890000000  0.4633920000000  0.4610830000000 1.0
C      1  0.5973250000000  0.5357920000000  0.4903410000000 1.0
C      1  0.4701660000000  0.6051960000000  0.5116320000000 1.0
C      1  0.5170230000000  0.3959520000000  0.4915310000000 1.0
C      1  0.5123780000000  0.4369430000000  0.4607960000000 1.0
C      1  0.3909670000000  0.4954120000000  0.5048750000000 1.0
C      1  0.4319690000000  0.4837520000000  0.4926320000000 1.0
C      1  0.4424520000000  0.4264570000000  0.5119500000000 1.0
C      1  0.4649650000000  0.5725160000000  0.4833800000000 1.0
C      1  0.4310870000000  0.5375580000000  0.5778930000000 1.0
C      1  0.5953460000000  0.4731330000000  0.5417870000000 1.0
C      1  0.5312770000000  0.5941600000000  0.4556720000000 1.0
C      1  0.4869550000000  0.5609040000000  0.4400510000000 1.0
C      1  0.5154440000000  0.5004430000000  0.5402630000000 1.0
C      1  0.5164890000000  0.4087310000000  0.4353290000000 1.0
C      1  0.5003570000000  0.4846130000000  0.4785140000000 1.0
C      1  0.6085700000000  0.4511930000000  0.5001030000000 1.0
C      1  0.4640730000000  0.5216310000000  0.5225210000000 1.0
C      1  0.4564470000000  0.4669430000000  0.5278650000000 1.0
C      1  0.5236590000000  0.5440620000000  0.5156800000000 1.0
C      1  0.5417160000000  0.4891510000000  0.4634090000000 1.0
C      1  0.5633170000000  0.5037310000000  0.4279640000000 1.0
C      1  0.5016250000000  0.5850510000000  0.5421340000000 1.0
END
