TITL C-951336-9012-400 -1.78788410391554e-06 125000 -1201.61087151024 0 0 190 (C1) n - 1
REM
REM in /home/bkarasulu/work/CARBON/AIRSS/Generating-Clusters/EDIP-Nigel-Params/with-SteepDescent/Only-C1/SD-CG/HFTN-CG
REM
REM
REM
REM
REM
REM ./C.cell (11c1c37f851c82e70ff6c80c92926a4b)
REM
REM compiler GCC version 9.2.1 20190827 (Red Hat 9.2.1-1)
REM options -cpp -mtune=generic -march=x86-64 -g -O0 -fpre-include=/usr/include/finclude/math-vector-fortran.h
REM seed 448933802 1052518967 777099542 -1307807741 -1708682226 -1147454369 -380595317 -246485640 1168345498 1530201915 -724010867 835919576 1224876566 1892499984 -1441610840 -2011679450 1613265623 1019677402 -1931826959 1171050229 -523772061 -1951424894 -490152667 -1492789631 2137001916 -784041327 929808155 -341564640 498795168 1551854836 1665024080 68608536 1729236182
REM
CELL 1.54180   50.00000   50.00000   50.00000   90.00000   90.00000   90.00000
LATT -1
SFAC C  
C      1  0.3960570000000  0.4633660000000  0.4829900000000 1.0
C      1  0.5887600000000  0.5265820000000  0.5524340000000 1.0
C      1  0.5051780000000  0.4033780000000  0.4632120000000 1.0
C      1  0.4527000000000  0.5980820000000  0.5319660000000 1.0
C      1  0.5555800000000  0.4203360000000  0.4352150000000 1.0
C      1  0.5414570000000  0.6042410000000  0.5324720000000 1.0
C      1  0.5510540000000  0.4407010000000  0.5774280000000 1.0
C      1  0.4358140000000  0.4623230000000  0.4525980000000 1.0
C      1  0.5267850000000  0.4246310000000  0.4268590000000 1.0
C      1  0.3945600000000  0.5503230000000  0.4569850000000 1.0
C      1  0.4426650000000  0.4916060000000  0.5877030000000 1.0
C      1  0.5096490000000  0.6090640000000  0.5298230000000 1.0
C      1  0.4775900000000  0.5013680000000  0.5530440000000 1.0
C      1  0.5440310000000  0.4612760000000  0.4440600000000 1.0
C      1  0.5394980000000  0.5330340000000  0.5495270000000 1.0
C      1  0.5525850000000  0.5923900000000  0.5586410000000 1.0
C      1  0.5315840000000  0.5834920000000  0.4390900000000 1.0
C      1  0.4541890000000  0.4675560000000  0.5972630000000 1.0
C      1  0.5799640000000  0.4892610000000  0.4181450000000 1.0
C      1  0.4718010000000  0.3931200000000  0.5214050000000 1.0
C      1  0.6084250000000  0.4996500000000  0.4798050000000 1.0
C      1  0.3881460000000  0.5228510000000  0.4675580000000 1.0
C      1  0.6078150000000  0.5074850000000  0.5083930000000 1.0
C      1  0.3806970000000  0.5536060000000  0.5037530000000 1.0
C      1  0.5643070000000  0.4073900000000  0.5426830000000 1.0
C      1  0.5529600000000  0.4899850000000  0.4854900000000 1.0
C      1  0.5389760000000  0.5050560000000  0.5610240000000 1.0
C      1  0.4684600000000  0.5868020000000  0.5090810000000 1.0
C      1  0.5500550000000  0.5109100000000  0.4425940000000 1.0
C      1  0.5206480000000  0.5023900000000  0.4357210000000 1.0
C      1  0.4861020000000  0.4653950000000  0.5019890000000 1.0
C      1  0.4928980000000  0.6030540000000  0.5033610000000 1.0
C      1  0.4576500000000  0.4839970000000  0.4429930000000 1.0
C      1  0.5087840000000  0.5690880000000  0.4256690000000 1.0
C      1  0.4779270000000  0.5306750000000  0.5626360000000 1.0
C      1  0.3947470000000  0.5083650000000  0.5163270000000 1.0
C      1  0.4491650000000  0.4029310000000  0.5031090000000 1.0
C      1  0.4883250000000  0.5661580000000  0.5913280000000 1.0
C      1  0.4112430000000  0.5053610000000  0.4590100000000 1.0
C      1  0.4543070000000  0.4488870000000  0.4759280000000 1.0
C      1  0.5496840000000  0.4680950000000  0.5895310000000 1.0
C      1  0.4456900000000  0.4174200000000  0.4337910000000 1.0
C      1  0.5720490000000  0.5306140000000  0.4783440000000 1.0
C      1  0.5659690000000  0.4419880000000  0.4165860000000 1.0
C      1  0.5480300000000  0.5571680000000  0.5927920000000 1.0
C      1  0.3817040000000  0.5250760000000  0.4960640000000 1.0
C      1  0.5217960000000  0.5747330000000  0.5164060000000 1.0
C      1  0.5314090000000  0.4773230000000  0.4189600000000 1.0
C      1  0.4842870000000  0.4734060000000  0.4475150000000 1.0
C      1  0.5454560000000  0.4428700000000  0.4944050000000 1.0
C      1  0.4319740000000  0.4332110000000  0.5512900000000 1.0
C      1  0.5877460000000  0.4984130000000  0.5637060000000 1.0
C      1  0.5149510000000  0.4580330000000  0.3905900000000 1.0
C      1  0.4750810000000  0.4268760000000  0.4323950000000 1.0
C      1  0.3944820000000  0.5545010000000  0.5315720000000 1.0
C      1  0.4211340000000  0.5495720000000  0.4424740000000 1.0
C      1  0.5473900000000  0.3960210000000  0.4946470000000 1.0
C      1  0.5026420000000  0.4089400000000  0.4339950000000 1.0
C      1  0.5264960000000  0.5965550000000  0.4646420000000 1.0
C      1  0.4351280000000  0.5075850000000  0.4782250000000 1.0
C      1  0.5054910000000  0.5245970000000  0.4225210000000 1.0
C      1  0.4915960000000  0.4660490000000  0.4045070000000 1.0
C      1  0.5086190000000  0.5474290000000  0.5565160000000 1.0
C      1  0.5144900000000  0.4192860000000  0.5555920000000 1.0
C      1  0.6067170000000  0.4696760000000  0.4770770000000 1.0
C      1  0.6122390000000  0.4837040000000  0.5237600000000 1.0
C      1  0.4636510000000  0.5710770000000  0.5751320000000 1.0
C      1  0.4852490000000  0.4234640000000  0.5605200000000 1.0
C      1  0.4680610000000  0.5943850000000  0.5572520000000 1.0
C      1  0.4775580000000  0.5586900000000  0.5189660000000 1.0
C      1  0.4011190000000  0.4334970000000  0.4850480000000 1.0
C      1  0.5041980000000  0.5561640000000  0.5290400000000 1.0
C      1  0.4298860000000  0.5363150000000  0.5875160000000 1.0
C      1  0.4775300000000  0.4510980000000  0.5496780000000 1.0
C      1  0.5503590000000  0.5146150000000  0.3908910000000 1.0
C      1  0.4996150000000  0.4611290000000  0.5317730000000 1.0
C      1  0.5003820000000  0.3972800000000  0.5113830000000 1.0
C      1  0.5710880000000  0.4099780000000  0.4832790000000 1.0
C      1  0.5578120000000  0.4685300000000  0.5024980000000 1.0
C      1  0.4809490000000  0.4674710000000  0.6060030000000 1.0
C      1  0.4455640000000  0.4580070000000  0.4065370000000 1.0
C      1  0.4968230000000  0.5422230000000  0.4455100000000 1.0
C      1  0.4079770000000  0.4750460000000  0.4581130000000 1.0
C      1  0.5391450000000  0.5579370000000  0.4986680000000 1.0
C      1  0.4429140000000  0.5639000000000  0.4262960000000 1.0
C      1  0.5267390000000  0.4512640000000  0.4709790000000 1.0
C      1  0.5924680000000  0.5560040000000  0.5088740000000 1.0
C      1  0.4534870000000  0.4881920000000  0.4130420000000 1.0
C      1  0.4190410000000  0.5211630000000  0.4339810000000 1.0
C      1  0.4125850000000  0.5212280000000  0.5670040000000 1.0
C      1  0.5641660000000  0.5127660000000  0.5034430000000 1.0
C      1  0.5415260000000  0.5309800000000  0.5164500000000 1.0
C      1  0.4569100000000  0.4768620000000  0.5137350000000 1.0
C      1  0.4049230000000  0.4749230000000  0.5582470000000 1.0
C      1  0.5981540000000  0.5308540000000  0.5237680000000 1.0
C      1  0.4094280000000  0.4354670000000  0.5335860000000 1.0
C      1  0.5465270000000  0.3933990000000  0.5251820000000 1.0
C      1  0.5189550000000  0.3937790000000  0.5363420000000 1.0
C      1  0.5394240000000  0.5135720000000  0.6131530000000 1.0
C      1  0.4082820000000  0.4180010000000  0.4628550000000 1.0
C      1  0.5683870000000  0.4324210000000  0.5553290000000 1.0
C      1  0.4176900000000  0.4938790000000  0.5734180000000 1.0
C      1  0.4661150000000  0.5356720000000  0.4499250000000 1.0
C      1  0.5848130000000  0.4619190000000  0.4286630000000 1.0
C      1  0.4670120000000  0.5816320000000  0.4337480000000 1.0
C      1  0.4674370000000  0.4017190000000  0.5499490000000 1.0
C      1  0.5663060000000  0.5522300000000  0.4179270000000 1.0
C      1  0.6138590000000  0.4605440000000  0.5053370000000 1.0
C      1  0.4615170000000  0.5002850000000  0.5294780000000 1.0
C      1  0.4967410000000  0.5991660000000  0.5553060000000 1.0
C      1  0.5483450000000  0.5333730000000  0.4613130000000 1.0
C      1  0.4156410000000  0.5846310000000  0.4844080000000 1.0
C      1  0.5715420000000  0.5721860000000  0.5501910000000 1.0
C      1  0.5521930000000  0.5903380000000  0.4810680000000 1.0
C      1  0.4549640000000  0.5184470000000  0.5916440000000 1.0
C      1  0.5300930000000  0.4220450000000  0.5803280000000 1.0
C      1  0.5365950000000  0.5815130000000  0.5812470000000 1.0
C      1  0.5897810000000  0.4775920000000  0.5423360000000 1.0
C      1  0.5867300000000  0.5159500000000  0.4328670000000 1.0
C      1  0.4538070000000  0.5811040000000  0.4811230000000 1.0
C      1  0.5306270000000  0.4370490000000  0.4010880000000 1.0
C      1  0.4275310000000  0.5834060000000  0.5329880000000 1.0
C      1  0.4404490000000  0.4070260000000  0.5558760000000 1.0
C      1  0.5218370000000  0.4424960000000  0.5378350000000 1.0
C      1  0.3898330000000  0.5704730000000  0.4786070000000 1.0
C      1  0.4792240000000  0.4910420000000  0.3991190000000 1.0
C      1  0.4222860000000  0.5669790000000  0.5076040000000 1.0
C      1  0.4994600000000  0.5403170000000  0.5994980000000 1.0
C      1  0.5159490000000  0.5174660000000  0.5108350000000 1.0
C      1  0.5737430000000  0.5730750000000  0.5217690000000 1.0
C      1  0.4364830000000  0.5337990000000  0.4952540000000 1.0
C      1  0.5600260000000  0.5954450000000  0.5097770000000 1.0
C      1  0.4167870000000  0.4241570000000  0.5079360000000 1.0
C      1  0.4515800000000  0.4497950000000  0.5330300000000 1.0
C      1  0.4789380000000  0.4453680000000  0.4577860000000 1.0
C      1  0.4723700000000  0.4446720000000  0.4076350000000 1.0
C      1  0.4721630000000  0.5921300000000  0.4606770000000 1.0
C      1  0.4386220000000  0.5152740000000  0.4128040000000 1.0
C      1  0.5547170000000  0.4898480000000  0.4030300000000 1.0
C      1  0.4874620000000  0.5857160000000  0.4149790000000 1.0
C      1  0.5628770000000  0.4828120000000  0.5276320000000 1.0
C      1  0.4984230000000  0.5986500000000  0.4744150000000 1.0
C      1  0.4030210000000  0.4633940000000  0.5332180000000 1.0
C      1  0.5233230000000  0.5453370000000  0.4731040000000 1.0
C      1  0.4829040000000  0.5172400000000  0.6039670000000 1.0
C      1  0.5916780000000  0.4474700000000  0.5468000000000 1.0
C      1  0.4573070000000  0.5497610000000  0.4776270000000 1.0
C      1  0.4797190000000  0.5425650000000  0.4943590000000 1.0
C      1  0.5600500000000  0.4852230000000  0.4573840000000 1.0
C      1  0.4591610000000  0.5076710000000  0.4602830000000 1.0
C      1  0.5911350000000  0.5395400000000  0.4168580000000 1.0
C      1  0.5904480000000  0.5555210000000  0.4787300000000 1.0
C      1  0.4296720000000  0.5580320000000  0.5493150000000 1.0
C      1  0.5282360000000  0.5384100000000  0.6035010000000 1.0
C      1  0.4969620000000  0.4283210000000  0.5016270000000 1.0
C      1  0.5855980000000  0.4552650000000  0.4578170000000 1.0
C      1  0.4352730000000  0.5638500000000  0.5785750000000 1.0
C      1  0.5255830000000  0.4883370000000  0.6082150000000 1.0
C      1  0.4337660000000  0.4827950000000  0.4959030000000 1.0
C      1  0.4539650000000  0.5398830000000  0.4138880000000 1.0
C      1  0.4493420000000  0.5244300000000  0.5213570000000 1.0
C      1  0.5658770000000  0.5115170000000  0.6041190000000 1.0
C      1  0.5031180000000  0.5252980000000  0.4852520000000 1.0
C      1  0.5257010000000  0.3897500000000  0.4773660000000 1.0
C      1  0.5460400000000  0.5405130000000  0.4004620000000 1.0
C      1  0.5021760000000  0.4317290000000  0.4722620000000 1.0
C      1  0.4004420000000  0.5269200000000  0.5399820000000 1.0
C      1  0.4583230000000  0.5448740000000  0.5396290000000 1.0
C      1  0.5090620000000  0.5763470000000  0.5715820000000 1.0
C      1  0.4482330000000  0.3925230000000  0.4764410000000 1.0
C      1  0.5202390000000  0.4891700000000  0.5145090000000 1.0
C      1  0.5364700000000  0.4839030000000  0.5409400000000 1.0
C      1  0.4054670000000  0.4798770000000  0.5081070000000 1.0
C      1  0.5619090000000  0.4952580000000  0.5796350000000 1.0
C      1  0.5962090000000  0.5204350000000  0.4623220000000 1.0
C      1  0.5685520000000  0.4287480000000  0.4604730000000 1.0
C      1  0.4539370000000  0.4338130000000  0.5031150000000 1.0
C      1  0.5112010000000  0.4757670000000  0.4829110000000 1.0
C      1  0.5251140000000  0.4292200000000  0.5130090000000 1.0
C      1  0.4323770000000  0.4046220000000  0.4565160000000 1.0
C      1  0.4786190000000  0.4750850000000  0.5682470000000 1.0
C      1  0.5581010000000  0.5706760000000  0.4395280000000 1.0
C      1  0.4320150000000  0.4436650000000  0.4285630000000 1.0
C      1  0.5734930000000  0.5773570000000  0.4643580000000 1.0
C      1  0.5015170000000  0.4950330000000  0.4612340000000 1.0
C      1  0.5658370000000  0.5457680000000  0.5623700000000 1.0
C      1  0.5788340000000  0.4257670000000  0.5054580000000 1.0
C      1  0.5177520000000  0.5463150000000  0.4064440000000 1.0
C      1  0.6007520000000  0.4376690000000  0.5197770000000 1.0
C      1  0.4966580000000  0.4911250000000  0.6051250000000 1.0
END
