TITL C-950528-5794-79 -6.55592085873983e-07 125000 -623.407783122268 0 0 100 (C1) n - 1
REM
REM in /home/bkarasulu/work/CARBON/AIRSS/Generating-Clusters/EDIP-Nigel-Params/with-SteepDescent/Only-C1/SD-CG/HFTN-CG
REM
REM
REM
REM
REM
REM ./C.cell (11c1c37f851c82e70ff6c80c92926a4b)
REM
REM compiler GCC version 9.2.1 20190827 (Red Hat 9.2.1-1)
REM options -cpp -mtune=generic -march=x86-64 -g -O0 -fpre-include=/usr/include/finclude/math-vector-fortran.h
REM seed -1023135660 873634707 -1149577704 1092799918 1407054796 1089582624 -56233908 1800522131 -215510422 2118966116 -1843551421 478953861 -2015316475 -1302164302 1214019929 732301548 -1041812608 1070920357 1952268677 -688917912 -1879300776 116913593 1447498378 -124651726 -907065467 -1045469323 1534069024 -1244926886 215167989 150122576 -1399784821 -1425321535 923151080
REM
CELL 1.54180   50.00000   50.00000   50.00000   90.00000   90.00000   90.00000
LATT -1
SFAC C  
C      1  0.4282710000000  0.5315520000000  0.4365570000000 1.0
C      1  0.5350040000000  0.5397760000000  0.5310250000000 1.0
C      1  0.5905310000000  0.5114170000000  0.5063000000000 1.0
C      1  0.4635790000000  0.5101410000000  0.4875160000000 1.0
C      1  0.5086010000000  0.5109760000000  0.4960290000000 1.0
C      1  0.3972710000000  0.5162660000000  0.5039620000000 1.0
C      1  0.4793300000000  0.4609390000000  0.5745380000000 1.0
C      1  0.5872700000000  0.4862060000000  0.5197310000000 1.0
C      1  0.5752510000000  0.5211140000000  0.5493310000000 1.0
C      1  0.4139520000000  0.5110170000000  0.4796450000000 1.0
C      1  0.5535800000000  0.5058280000000  0.4993550000000 1.0
C      1  0.4796070000000  0.4944460000000  0.4166660000000 1.0
C      1  0.4655980000000  0.5702390000000  0.5409390000000 1.0
C      1  0.4972010000000  0.4482650000000  0.4219030000000 1.0
C      1  0.4333580000000  0.5341780000000  0.5310540000000 1.0
C      1  0.4856990000000  0.5381860000000  0.5878110000000 1.0
C      1  0.5448330000000  0.4266510000000  0.4998010000000 1.0
C      1  0.4551750000000  0.5045140000000  0.5793710000000 1.0
C      1  0.4778940000000  0.5835000000000  0.4948570000000 1.0
C      1  0.4707830000000  0.5515220000000  0.4527660000000 1.0
C      1  0.4391570000000  0.4678160000000  0.4686000000000 1.0
C      1  0.4846630000000  0.4699070000000  0.5127610000000 1.0
C      1  0.5030710000000  0.4772120000000  0.4140640000000 1.0
C      1  0.5191710000000  0.5250650000000  0.4720870000000 1.0
C      1  0.5295060000000  0.4833010000000  0.4275240000000 1.0
C      1  0.4853130000000  0.4480780000000  0.4503400000000 1.0
C      1  0.4285010000000  0.4477570000000  0.5113060000000 1.0
C      1  0.5306000000000  0.5137870000000  0.5171760000000 1.0
C      1  0.4968500000000  0.4243460000000  0.4651220000000 1.0
C      1  0.5040220000000  0.4796160000000  0.4905010000000 1.0
C      1  0.4313730000000  0.4779860000000  0.5115260000000 1.0
C      1  0.5689410000000  0.4765190000000  0.4706160000000 1.0
C      1  0.4183990000000  0.5078940000000  0.4483210000000 1.0
C      1  0.5239240000000  0.4198340000000  0.4533050000000 1.0
C      1  0.4199960000000  0.4827030000000  0.4852450000000 1.0
C      1  0.5185890000000  0.4177950000000  0.5112910000000 1.0
C      1  0.5591280000000  0.4527520000000  0.4554410000000 1.0
C      1  0.5145070000000  0.4213110000000  0.5401390000000 1.0
C      1  0.5060180000000  0.5454180000000  0.5422020000000 1.0
C      1  0.4858360000000  0.5551450000000  0.4276160000000 1.0
C      1  0.4843770000000  0.5250300000000  0.5023620000000 1.0
C      1  0.5058520000000  0.5296910000000  0.5691100000000 1.0
C      1  0.5787360000000  0.4649630000000  0.5012300000000 1.0
C      1  0.5020490000000  0.5831340000000  0.4479400000000 1.0
C      1  0.5339190000000  0.5218230000000  0.5779020000000 1.0
C      1  0.4432380000000  0.5434090000000  0.4571410000000 1.0
C      1  0.5413210000000  0.5609550000000  0.4329820000000 1.0
C      1  0.4127100000000  0.5135180000000  0.5280200000000 1.0
C      1  0.5642960000000  0.5060950000000  0.4549210000000 1.0
C      1  0.4836280000000  0.4352450000000  0.5586910000000 1.0
C      1  0.4883620000000  0.5681210000000  0.4701540000000 1.0
C      1  0.5270240000000  0.5882920000000  0.5011480000000 1.0
C      1  0.5846240000000  0.5339750000000  0.5236760000000 1.0
C      1  0.4391360000000  0.5294810000000  0.4832220000000 1.0
C      1  0.5591150000000  0.4469760000000  0.5170260000000 1.0
C      1  0.5708180000000  0.4925390000000  0.5439260000000 1.0
C      1  0.4135600000000  0.4886780000000  0.5440480000000 1.0
C      1  0.5684420000000  0.4364660000000  0.5425590000000 1.0
C      1  0.4340900000000  0.4692900000000  0.5543990000000 1.0
C      1  0.4478430000000  0.4434470000000  0.4884150000000 1.0
C      1  0.5438740000000  0.4327240000000  0.4707200000000 1.0
C      1  0.4361360000000  0.4845860000000  0.4440170000000 1.0
C      1  0.4651590000000  0.4319700000000  0.5353110000000 1.0
C      1  0.5074950000000  0.4917940000000  0.5597680000000 1.0
C      1  0.5031560000000  0.5315020000000  0.4228740000000 1.0
C      1  0.4601560000000  0.4883970000000  0.5090560000000 1.0
C      1  0.5041900000000  0.5133690000000  0.4480080000000 1.0
C      1  0.4597920000000  0.5402270000000  0.5457960000000 1.0
C      1  0.5123640000000  0.4711260000000  0.5366140000000 1.0
C      1  0.5504480000000  0.5349740000000  0.5570450000000 1.0
C      1  0.5506560000000  0.4492090000000  0.5605880000000 1.0
C      1  0.4955090000000  0.4257590000000  0.4947740000000 1.0
C      1  0.5585720000000  0.4772030000000  0.5663270000000 1.0
C      1  0.5633300000000  0.5525060000000  0.5134370000000 1.0
C      1  0.4364370000000  0.5493870000000  0.5063590000000 1.0
C      1  0.5245160000000  0.4348830000000  0.4266590000000 1.0
C      1  0.5503630000000  0.5237420000000  0.4753540000000 1.0
C      1  0.4543250000000  0.4850070000000  0.4227520000000 1.0
C      1  0.5586960000000  0.5521640000000  0.4843650000000 1.0
C      1  0.4835860000000  0.5283260000000  0.5308930000000 1.0
C      1  0.4734790000000  0.4414170000000  0.5074180000000 1.0
C      1  0.5371170000000  0.4771310000000  0.4928860000000 1.0
C      1  0.5344700000000  0.5701290000000  0.4796120000000 1.0
C      1  0.5032500000000  0.4744840000000  0.5832940000000 1.0
C      1  0.4559770000000  0.5721030000000  0.5122900000000 1.0
C      1  0.5010010000000  0.5892660000000  0.5133400000000 1.0
C      1  0.4911360000000  0.4743200000000  0.4641370000000 1.0
C      1  0.4618910000000  0.5310330000000  0.5748490000000 1.0
C      1  0.4765450000000  0.4986640000000  0.4554900000000 1.0
C      1  0.5394320000000  0.4705410000000  0.5218830000000 1.0
C      1  0.5331860000000  0.5356320000000  0.4231180000000 1.0
C      1  0.5440250000000  0.4577380000000  0.4304810000000 1.0
C      1  0.5202480000000  0.4468180000000  0.5539880000000 1.0
C      1  0.4955080000000  0.5750830000000  0.5399210000000 1.0
C      1  0.5378910000000  0.4917940000000  0.5826430000000 1.0
C      1  0.5311030000000  0.5799880000000  0.4510330000000 1.0
C      1  0.4568050000000  0.4788140000000  0.5692780000000 1.0
C      1  0.5113880000000  0.5524370000000  0.4798750000000 1.0
C      1  0.5452830000000  0.5083460000000  0.4316480000000 1.0
C      1  0.4380100000000  0.4433020000000  0.5388870000000 1.0
END
