TITL C-951334-9093-240 -6.45712964484268e-07 125000 -397.435459795667 0 0 66 (C1) n - 1
REM
REM in /home/bkarasulu/work/CARBON/AIRSS/Generating-Clusters/EDIP-Nigel-Params/with-SteepDescent/Only-C1/SD-CG/HFTN-CG
REM
REM
REM
REM
REM
REM ./C.cell (11c1c37f851c82e70ff6c80c92926a4b)
REM
REM compiler GCC version 9.2.1 20190827 (Red Hat 9.2.1-1)
REM options -cpp -mtune=generic -march=x86-64 -g -O0 -fpre-include=/usr/include/finclude/math-vector-fortran.h
REM seed -1883511020 578187196 1263251932 2038195806 2079411633 -979297961 -1300385195 -1091113050 -1604070423 -2120826220 -1336802096 -1589567382 1030951732 152886166 1364110095 710252168 662722122 710006247 614963628 1606793569 -752837123 743085766 -1669035065 -1786073593 942607788 -1629348725 -815085766 120673616 458776142 319414811 -1659316429 1184329925 -2021073459
REM
CELL 1.54180   50.00000   50.00000   50.00000   90.00000   90.00000   90.00000
LATT -1
SFAC C  
C      1  0.5371530000000  0.4716430000000  0.5817530000000 1.0
C      1  0.5180560000000  0.4399730000000  0.4703030000000 1.0
C      1  0.5524440000000  0.5367460000000  0.5341690000000 1.0
C      1  0.5273080000000  0.4586780000000  0.5584180000000 1.0
C      1  0.5353450000000  0.5576870000000  0.5239530000000 1.0
C      1  0.5753230000000  0.5001160000000  0.4722640000000 1.0
C      1  0.4867730000000  0.5201600000000  0.4260450000000 1.0
C      1  0.4916420000000  0.5723600000000  0.5336440000000 1.0
C      1  0.5763630000000  0.4929310000000  0.5293570000000 1.0
C      1  0.4590360000000  0.5249520000000  0.4286070000000 1.0
C      1  0.4615290000000  0.5604490000000  0.4587410000000 1.0
C      1  0.5029430000000  0.5368290000000  0.4451710000000 1.0
C      1  0.5344350000000  0.5033830000000  0.5382810000000 1.0
C      1  0.5238520000000  0.5200260000000  0.5861890000000 1.0
C      1  0.4730170000000  0.4402610000000  0.4883800000000 1.0
C      1  0.4156630000000  0.5182470000000  0.5120990000000 1.0
C      1  0.5297980000000  0.4576970000000  0.4381410000000 1.0
C      1  0.5315100000000  0.5328430000000  0.4506800000000 1.0
C      1  0.4850800000000  0.5037100000000  0.5581780000000 1.0
C      1  0.4973780000000  0.4546750000000  0.4832580000000 1.0
C      1  0.5446510000000  0.4418600000000  0.5211450000000 1.0
C      1  0.5215160000000  0.4918970000000  0.4638990000000 1.0
C      1  0.5452560000000  0.5131850000000  0.4350940000000 1.0
C      1  0.5790340000000  0.4735710000000  0.5076510000000 1.0
C      1  0.4565010000000  0.5418300000000  0.5204890000000 1.0
C      1  0.5642670000000  0.5205710000000  0.4895250000000 1.0
C      1  0.4785290000000  0.4739640000000  0.4421320000000 1.0
C      1  0.4483190000000  0.5158490000000  0.4760750000000 1.0
C      1  0.4639000000000  0.5216580000000  0.5592240000000 1.0
C      1  0.5229990000000  0.4838360000000  0.4253720000000 1.0
C      1  0.5175010000000  0.5709970000000  0.5408490000000 1.0
C      1  0.4895120000000  0.4361120000000  0.5350890000000 1.0
C      1  0.4492820000000  0.5412450000000  0.5476310000000 1.0
C      1  0.5706640000000  0.4470180000000  0.5132620000000 1.0
C      1  0.5224830000000  0.5082020000000  0.4899870000000 1.0
C      1  0.4821580000000  0.4764410000000  0.5568760000000 1.0
C      1  0.5233690000000  0.4934550000000  0.5930950000000 1.0
C      1  0.5549890000000  0.4850920000000  0.5503560000000 1.0
C      1  0.4757720000000  0.5025320000000  0.4822770000000 1.0
C      1  0.4504210000000  0.5355930000000  0.4531420000000 1.0
C      1  0.4937270000000  0.4906140000000  0.4224370000000 1.0
C      1  0.5921010000000  0.4807000000000  0.4837910000000 1.0
C      1  0.5134090000000  0.5121080000000  0.5603860000000 1.0
C      1  0.4385860000000  0.5291600000000  0.5013010000000 1.0
C      1  0.5259320000000  0.4893030000000  0.5123880000000 1.0
C      1  0.3905630000000  0.5093460000000  0.5189640000000 1.0
C      1  0.4957600000000  0.5195480000000  0.4944360000000 1.0
C      1  0.5578740000000  0.4930680000000  0.4507470000000 1.0
C      1  0.4920090000000  0.4802360000000  0.4681310000000 1.0
C      1  0.4887870000000  0.5557860000000  0.4631750000000 1.0
C      1  0.4499830000000  0.4599090000000  0.4924790000000 1.0
C      1  0.4351120000000  0.4678510000000  0.4683200000000 1.0
C      1  0.5701470000000  0.5202440000000  0.5182810000000 1.0
C      1  0.4682400000000  0.4293900000000  0.5180190000000 1.0
C      1  0.4780980000000  0.5598710000000  0.5128550000000 1.0
C      1  0.3829440000000  0.5072150000000  0.5461840000000 1.0
C      1  0.3871750000000  0.4845320000000  0.5322430000000 1.0
C      1  0.4427770000000  0.4460890000000  0.5183660000000 1.0
C      1  0.5432820000000  0.5390480000000  0.4781450000000 1.0
C      1  0.4277520000000  0.4958590000000  0.4678780000000 1.0
C      1  0.5365770000000  0.4623940000000  0.5018280000000 1.0
C      1  0.4990940000000  0.4549870000000  0.5530570000000 1.0
C      1  0.4964960000000  0.5494130000000  0.4916830000000 1.0
C      1  0.4496490000000  0.4750540000000  0.4434420000000 1.0
C      1  0.5420950000000  0.4543370000000  0.4643950000000 1.0
C      1  0.5260660000000  0.5556620000000  0.4962700000000 1.0
END
