TITL C-950536-5891-612 -2.02516479629735e-07 125000 -598.801768188545 0 0 96 (C1) n - 1
REM
REM in /home/bkarasulu/work/CARBON/AIRSS/Generating-Clusters/EDIP-Nigel-Params/with-SteepDescent/Only-C1/SD-CG/HFTN-CG
REM
REM
REM
REM
REM
REM ./C.cell (11c1c37f851c82e70ff6c80c92926a4b)
REM
REM compiler GCC version 9.2.1 20190827 (Red Hat 9.2.1-1)
REM options -cpp -mtune=generic -march=x86-64 -g -O0 -fpre-include=/usr/include/finclude/math-vector-fortran.h
REM seed 62389362 798084976 440214708 1048328145 -624151345 1874841670 -1484006604 -83909956 1723549084 72358839 1702709851 1584432939 -1093313895 1877015556 -661976353 970011873 354175391 -9875539 -170580065 1441741490 1492583197 1871364680 -314045169 -1545945476 -839229812 2007168119 -605858846 352634755 435810082 -1770054030 1875951598 -1038366560 968375867
REM
CELL 1.54180   50.00000   50.00000   50.00000   90.00000   90.00000   90.00000
LATT -1
SFAC C  
C      1  0.4290390000000  0.4625080000000  0.5273740000000 1.0
C      1  0.5066580000000  0.4180050000000  0.4538490000000 1.0
C      1  0.4760990000000  0.5148580000000  0.5408560000000 1.0
C      1  0.4895460000000  0.5687740000000  0.5650880000000 1.0
C      1  0.5718440000000  0.5254060000000  0.4885720000000 1.0
C      1  0.5269450000000  0.5092910000000  0.4256110000000 1.0
C      1  0.5728440000000  0.5073350000000  0.5667470000000 1.0
C      1  0.4390880000000  0.4520350000000  0.4631290000000 1.0
C      1  0.5643580000000  0.5260720000000  0.5176730000000 1.0
C      1  0.5002010000000  0.5852780000000  0.5436070000000 1.0
C      1  0.5227780000000  0.4127060000000  0.5001570000000 1.0
C      1  0.5027960000000  0.4910010000000  0.4272670000000 1.0
C      1  0.5880820000000  0.4784600000000  0.5133830000000 1.0
C      1  0.5063910000000  0.5449830000000  0.5724140000000 1.0
C      1  0.4216280000000  0.4890700000000  0.5172510000000 1.0
C      1  0.5355650000000  0.4903350000000  0.5041510000000 1.0
C      1  0.5145580000000  0.4769700000000  0.5535800000000 1.0
C      1  0.5354820000000  0.5142030000000  0.5213490000000 1.0
C      1  0.5302780000000  0.5438730000000  0.4662330000000 1.0
C      1  0.5705730000000  0.4690890000000  0.5330860000000 1.0
C      1  0.4642060000000  0.5535010000000  0.4679060000000 1.0
C      1  0.5245470000000  0.5375120000000  0.4359750000000 1.0
C      1  0.4580050000000  0.5143380000000  0.5657930000000 1.0
C      1  0.4968730000000  0.5481550000000  0.4334990000000 1.0
C      1  0.5360720000000  0.4326760000000  0.5438960000000 1.0
C      1  0.4245660000000  0.5190050000000  0.4788010000000 1.0
C      1  0.4346820000000  0.5180460000000  0.4513120000000 1.0
C      1  0.4762140000000  0.5024450000000  0.4143410000000 1.0
C      1  0.4620050000000  0.5621510000000  0.5654750000000 1.0
C      1  0.4897610000000  0.5642430000000  0.4573220000000 1.0
C      1  0.4516360000000  0.5402490000000  0.4437940000000 1.0
C      1  0.4203070000000  0.5123220000000  0.5325730000000 1.0
C      1  0.5132180000000  0.4187410000000  0.5279450000000 1.0
C      1  0.5668480000000  0.4994260000000  0.4736210000000 1.0
C      1  0.5154340000000  0.4585300000000  0.4804570000000 1.0
C      1  0.5693040000000  0.4798440000000  0.5604930000000 1.0
C      1  0.5022450000000  0.5230830000000  0.5533240000000 1.0
C      1  0.5274580000000  0.5837970000000  0.5347530000000 1.0
C      1  0.4537600000000  0.4962350000000  0.4446740000000 1.0
C      1  0.4851130000000  0.4292220000000  0.5236780000000 1.0
C      1  0.4626530000000  0.5368620000000  0.5221780000000 1.0
C      1  0.5586980000000  0.5493900000000  0.4771700000000 1.0
C      1  0.5715750000000  0.4500620000000  0.4777660000000 1.0
C      1  0.4896280000000  0.4729680000000  0.4717210000000 1.0
C      1  0.4299740000000  0.5711260000000  0.4960820000000 1.0
C      1  0.5296270000000  0.4537850000000  0.5653580000000 1.0
C      1  0.5498200000000  0.4494010000000  0.5224680000000 1.0
C      1  0.5056280000000  0.4282080000000  0.4809820000000 1.0
C      1  0.5260770000000  0.5060130000000  0.5502970000000 1.0
C      1  0.4493480000000  0.4531160000000  0.4351350000000 1.0
C      1  0.4472590000000  0.4788760000000  0.4219440000000 1.0
C      1  0.4987610000000  0.4371840000000  0.4350420000000 1.0
C      1  0.5371100000000  0.5462650000000  0.5697950000000 1.0
C      1  0.4910950000000  0.4975560000000  0.4549550000000 1.0
C      1  0.4832120000000  0.4898080000000  0.5168940000000 1.0
C      1  0.5139850000000  0.4620600000000  0.4310030000000 1.0
C      1  0.5637250000000  0.5544550000000  0.5253900000000 1.0
C      1  0.5731170000000  0.5031500000000  0.4452540000000 1.0
C      1  0.5416830000000  0.4658760000000  0.4392280000000 1.0
C      1  0.4781630000000  0.4273790000000  0.4947650000000 1.0
C      1  0.4469390000000  0.4552850000000  0.5489480000000 1.0
C      1  0.5036840000000  0.5602710000000  0.5073230000000 1.0
C      1  0.5822830000000  0.4763790000000  0.4858720000000 1.0
C      1  0.4355100000000  0.4446390000000  0.5073930000000 1.0
C      1  0.5121260000000  0.5665240000000  0.4766970000000 1.0
C      1  0.4696350000000  0.4754110000000  0.4928610000000 1.0
C      1  0.4439300000000  0.5404780000000  0.5634960000000 1.0
C      1  0.4433200000000  0.4920720000000  0.5736270000000 1.0
C      1  0.4480830000000  0.5772270000000  0.4745440000000 1.0
C      1  0.4690170000000  0.5321160000000  0.4918200000000 1.0
C      1  0.4564510000000  0.4480180000000  0.4883810000000 1.0
C      1  0.5620440000000  0.4334330000000  0.5002200000000 1.0
C      1  0.5584580000000  0.5696720000000  0.4998450000000 1.0
C      1  0.4745640000000  0.5649560000000  0.5237570000000 1.0
C      1  0.4344860000000  0.5365320000000  0.5353500000000 1.0
C      1  0.4227010000000  0.5435560000000  0.4933230000000 1.0
C      1  0.5251880000000  0.4648560000000  0.5100950000000 1.0
C      1  0.5136540000000  0.5126050000000  0.4709930000000 1.0
C      1  0.5126230000000  0.5318090000000  0.5112200000000 1.0
C      1  0.4533170000000  0.5821250000000  0.5122370000000 1.0
C      1  0.5498780000000  0.4928140000000  0.4332720000000 1.0
C      1  0.4735690000000  0.5311960000000  0.4257450000000 1.0
C      1  0.4197930000000  0.4712990000000  0.4706700000000 1.0
C      1  0.4718510000000  0.4379490000000  0.4288410000000 1.0
C      1  0.5353250000000  0.4910120000000  0.4751000000000 1.0
C      1  0.4648890000000  0.4344140000000  0.5429650000000 1.0
C      1  0.5462240000000  0.5165740000000  0.5702640000000 1.0
C      1  0.5588840000000  0.4484320000000  0.4526330000000 1.0
C      1  0.5327780000000  0.5849090000000  0.5047580000000 1.0
C      1  0.4170730000000  0.4927390000000  0.4888220000000 1.0
C      1  0.5499660000000  0.4090020000000  0.4947090000000 1.0
C      1  0.5411350000000  0.5595470000000  0.5431880000000 1.0
C      1  0.5528160000000  0.4645940000000  0.5774520000000 1.0
C      1  0.5024430000000  0.4695870000000  0.5283750000000 1.0
C      1  0.4945000000000  0.5153310000000  0.4963150000000 1.0
C      1  0.4427180000000  0.4653230000000  0.5744510000000 1.0
END
