TITL C-951348-1603-110 -4.40675338297815e-06 125000 -837.678644257132 0 0 135 (C1) n - 1
REM
REM in /home/bkarasulu/work/CARBON/AIRSS/Generating-Clusters/EDIP-Nigel-Params/with-SteepDescent/Only-C1/SD-CG/HFTN-CG
REM
REM
REM
REM
REM
REM ./C.cell (11c1c37f851c82e70ff6c80c92926a4b)
REM
REM compiler GCC version 9.2.1 20190827 (Red Hat 9.2.1-1)
REM options -cpp -mtune=generic -march=x86-64 -g -O0 -fpre-include=/usr/include/finclude/math-vector-fortran.h
REM seed 95034200 1759595805 -1290260530 -809211306 -1848558452 1091900204 1064247659 -107762531 -1068184171 -689709050 -571273600 -117319215 -1223287877 1899543065 722999972 1799643639 -855591706 331854645 1245383441 -704064279 -1609967776 -1179030673 -1906838089 2075692825 1535163158 907434716 -39907811 -764415063 -693234493 -1955610948 1429267245 -776466245 -972814939
REM
CELL 1.54180   50.00000   50.00000   50.00000   90.00000   90.00000   90.00000
LATT -1
SFAC C  
C      1  0.4024120000000  0.5024450000000  0.5382510000000 1.0
C      1  0.5286090000000  0.4966420000000  0.5816660000000 1.0
C      1  0.5619910000000  0.5155630000000  0.5071090000000 1.0
C      1  0.4168100000000  0.4891170000000  0.4554010000000 1.0
C      1  0.4242880000000  0.4519760000000  0.5520510000000 1.0
C      1  0.4009510000000  0.4963900000000  0.5112560000000 1.0
C      1  0.4506910000000  0.5714110000000  0.4433550000000 1.0
C      1  0.4785740000000  0.4086720000000  0.5319520000000 1.0
C      1  0.4473450000000  0.4674750000000  0.4224500000000 1.0
C      1  0.4826210000000  0.5217770000000  0.5269220000000 1.0
C      1  0.4627430000000  0.5433600000000  0.5165410000000 1.0
C      1  0.5640490000000  0.5272330000000  0.5659370000000 1.0
C      1  0.4679980000000  0.4695330000000  0.4035300000000 1.0
C      1  0.5598370000000  0.5880250000000  0.5172310000000 1.0
C      1  0.4183500000000  0.5597020000000  0.4788490000000 1.0
C      1  0.5111650000000  0.5297200000000  0.4818140000000 1.0
C      1  0.5440290000000  0.5387040000000  0.4953330000000 1.0
C      1  0.4973210000000  0.4572090000000  0.5378950000000 1.0
C      1  0.4455130000000  0.4331840000000  0.5602130000000 1.0
C      1  0.5389580000000  0.5947470000000  0.4965820000000 1.0
C      1  0.4430980000000  0.5198050000000  0.5579940000000 1.0
C      1  0.4105960000000  0.4706000000000  0.5017700000000 1.0
C      1  0.4776380000000  0.4202800000000  0.4813030000000 1.0
C      1  0.4578700000000  0.4500540000000  0.4443400000000 1.0
C      1  0.4752370000000  0.4261870000000  0.4331110000000 1.0
C      1  0.4755640000000  0.4967410000000  0.5896760000000 1.0
C      1  0.5477010000000  0.5674760000000  0.5376980000000 1.0
C      1  0.5683790000000  0.4486280000000  0.4449560000000 1.0
C      1  0.4794790000000  0.5649690000000  0.4357440000000 1.0
C      1  0.4902850000000  0.4488820000000  0.4810490000000 1.0
C      1  0.5693240000000  0.4466820000000  0.5366710000000 1.0
C      1  0.4825100000000  0.5841380000000  0.4760950000000 1.0
C      1  0.4361160000000  0.4431650000000  0.4646240000000 1.0
C      1  0.5357410000000  0.4771370000000  0.4888010000000 1.0
C      1  0.4200560000000  0.4666910000000  0.4739200000000 1.0
C      1  0.4812770000000  0.5326410000000  0.5765820000000 1.0
C      1  0.4349410000000  0.4927740000000  0.4326690000000 1.0
C      1  0.4353060000000  0.4767110000000  0.5625040000000 1.0
C      1  0.5056400000000  0.4325930000000  0.4258860000000 1.0
C      1  0.4704050000000  0.4511490000000  0.5822530000000 1.0
C      1  0.4405460000000  0.5483880000000  0.5545980000000 1.0
C      1  0.4661670000000  0.4964430000000  0.5375020000000 1.0
C      1  0.5412470000000  0.4874650000000  0.4299950000000 1.0
C      1  0.5679770000000  0.4392970000000  0.4921420000000 1.0
C      1  0.4870270000000  0.4810760000000  0.5554410000000 1.0
C      1  0.5451980000000  0.5792070000000  0.4706420000000 1.0
C      1  0.4662290000000  0.5567450000000  0.5660880000000 1.0
C      1  0.4898890000000  0.5904710000000  0.5031370000000 1.0
C      1  0.5727520000000  0.4968720000000  0.5545680000000 1.0
C      1  0.4853420000000  0.5412500000000  0.4660880000000 1.0
C      1  0.4602040000000  0.5465100000000  0.4832790000000 1.0
C      1  0.4549070000000  0.4752020000000  0.5843240000000 1.0
C      1  0.4419190000000  0.5195310000000  0.4871630000000 1.0
C      1  0.4823800000000  0.4946170000000  0.4695150000000 1.0
C      1  0.5128020000000  0.4615390000000  0.4339010000000 1.0
C      1  0.5212310000000  0.5495610000000  0.5836170000000 1.0
C      1  0.5705690000000  0.5509220000000  0.5491070000000 1.0
C      1  0.4905330000000  0.4051180000000  0.5046340000000 1.0
C      1  0.5195210000000  0.4110680000000  0.5084190000000 1.0
C      1  0.5625180000000  0.4296900000000  0.4641620000000 1.0
C      1  0.4935570000000  0.5065230000000  0.4162200000000 1.0
C      1  0.5565860000000  0.4801650000000  0.5734530000000 1.0
C      1  0.4212330000000  0.5014090000000  0.5586310000000 1.0
C      1  0.4845790000000  0.4072980000000  0.4549460000000 1.0
C      1  0.5795940000000  0.5374450000000  0.4404060000000 1.0
C      1  0.4530330000000  0.4226090000000  0.5343450000000 1.0
C      1  0.4902110000000  0.4776800000000  0.4190040000000 1.0
C      1  0.4597210000000  0.4955520000000  0.4886500000000 1.0
C      1  0.5183550000000  0.4519710000000  0.4660180000000 1.0
C      1  0.4348010000000  0.5481540000000  0.4543280000000 1.0
C      1  0.5118350000000  0.4988100000000  0.5558040000000 1.0
C      1  0.4853510000000  0.4606190000000  0.5097090000000 1.0
C      1  0.6053620000000  0.4909020000000  0.4785910000000 1.0
C      1  0.4346160000000  0.5820030000000  0.4885940000000 1.0
C      1  0.5381890000000  0.5145280000000  0.4454880000000 1.0
C      1  0.5619630000000  0.4517810000000  0.5679150000000 1.0
C      1  0.5798600000000  0.4745460000000  0.5237450000000 1.0
C      1  0.5146300000000  0.4113030000000  0.4467150000000 1.0
C      1  0.4776200000000  0.4665390000000  0.4600850000000 1.0
C      1  0.4998140000000  0.5798670000000  0.4523860000000 1.0
C      1  0.4097250000000  0.5141850000000  0.4666640000000 1.0
C      1  0.5311380000000  0.5504690000000  0.5191000000000 1.0
C      1  0.4691030000000  0.5248310000000  0.4078020000000 1.0
C      1  0.5917180000000  0.5446910000000  0.5316230000000 1.0
C      1  0.4719820000000  0.5808620000000  0.5242610000000 1.0
C      1  0.5386320000000  0.4493810000000  0.5307860000000 1.0
C      1  0.5428500000000  0.4515780000000  0.5018160000000 1.0
C      1  0.4257280000000  0.5610850000000  0.5311220000000 1.0
C      1  0.5634650000000  0.5602050000000  0.4830230000000 1.0
C      1  0.4988200000000  0.4205410000000  0.5498950000000 1.0
C      1  0.4766270000000  0.5170020000000  0.4500570000000 1.0
C      1  0.5324400000000  0.4239050000000  0.4686710000000 1.0
C      1  0.5418310000000  0.4988720000000  0.4038680000000 1.0
C      1  0.5025070000000  0.4848120000000  0.5968940000000 1.0
C      1  0.4049410000000  0.5459750000000  0.5016780000000 1.0
C      1  0.4999610000000  0.5276050000000  0.5518340000000 1.0
C      1  0.5291210000000  0.4870950000000  0.5344340000000 1.0
C      1  0.5152930000000  0.5634010000000  0.5565940000000 1.0
C      1  0.4479910000000  0.4268080000000  0.4860260000000 1.0
C      1  0.5179540000000  0.4474450000000  0.5702380000000 1.0
C      1  0.5240740000000  0.4223880000000  0.5345150000000 1.0
C      1  0.5422650000000  0.4356330000000  0.5794240000000 1.0
C      1  0.5449520000000  0.4025320000000  0.4977570000000 1.0
C      1  0.5770240000000  0.4936170000000  0.4649490000000 1.0
C      1  0.4495550000000  0.5204610000000  0.4329960000000 1.0
C      1  0.6112590000000  0.5123490000000  0.4981660000000 1.0
C      1  0.6032130000000  0.4752260000000  0.5045570000000 1.0
C      1  0.5010800000000  0.5139390000000  0.5048210000000 1.0
C      1  0.5161460000000  0.5844560000000  0.5102630000000 1.0
C      1  0.5339400000000  0.5454090000000  0.4333690000000 1.0
C      1  0.5170830000000  0.5074410000000  0.4642610000000 1.0
C      1  0.4335300000000  0.5255260000000  0.5175570000000 1.0
C      1  0.5244270000000  0.5651540000000  0.4553700000000 1.0
C      1  0.5655930000000  0.5199750000000  0.4571490000000 1.0
C      1  0.4197710000000  0.4501720000000  0.5211040000000 1.0
C      1  0.4462470000000  0.4409280000000  0.5123360000000 1.0
C      1  0.5176250000000  0.4904500000000  0.5084620000000 1.0
C      1  0.3981080000000  0.5183550000000  0.4924090000000 1.0
C      1  0.4851810000000  0.5732090000000  0.5509280000000 1.0
C      1  0.4608790000000  0.4773010000000  0.5125520000000 1.0
C      1  0.4419380000000  0.5819780000000  0.5178510000000 1.0
C      1  0.4867090000000  0.5499610000000  0.4104920000000 1.0
C      1  0.5798690000000  0.5751730000000  0.5014940000000 1.0
C      1  0.5679310000000  0.4168070000000  0.5113890000000 1.0
C      1  0.5895000000000  0.5258500000000  0.5110840000000 1.0
C      1  0.5182620000000  0.5143360000000  0.4009870000000 1.0
C      1  0.5166100000000  0.5432320000000  0.4082350000000 1.0
C      1  0.5519300000000  0.5062590000000  0.5340010000000 1.0
C      1  0.5613380000000  0.5518510000000  0.4263440000000 1.0
C      1  0.4550650000000  0.5875230000000  0.4680370000000 1.0
C      1  0.5393670000000  0.5261120000000  0.5832030000000 1.0
C      1  0.4977960000000  0.5432750000000  0.5979330000000 1.0
C      1  0.4984250000000  0.4563350000000  0.5903130000000 1.0
C      1  0.5632830000000  0.4892990000000  0.4921190000000 1.0
C      1  0.5669100000000  0.4758760000000  0.4418490000000 1.0
END
