TITL C-950530-3293-517 -2.15877280308604e-06 125000 -490.936807804738 0 0 81 (C1) n - 1
REM
REM in /home/bkarasulu/work/CARBON/AIRSS/Generating-Clusters/EDIP-Nigel-Params/with-SteepDescent/Only-C1/SD-CG/HFTN-CG
REM
REM
REM
REM
REM
REM ./C.cell (11c1c37f851c82e70ff6c80c92926a4b)
REM
REM compiler GCC version 9.2.1 20190827 (Red Hat 9.2.1-1)
REM options -cpp -mtune=generic -march=x86-64 -g -O0 -fpre-include=/usr/include/finclude/math-vector-fortran.h
REM seed 2118277508 -2121562671 912428862 2004339423 981948868 1223272917 1387599637 -618002470 -721284733 1585863977 1810111715 816907253 492816487 772336969 -2105106647 -12550857 -55980764 -169579004 1968299086 -639560121 -1102646499 -1449638028 -964382565 -546380013 1178771492 -1994693215 1802380812 138228254 -1315631865 636891901 1294348335 114101602 901658625
REM
CELL 1.54180   50.00000   50.00000   50.00000   90.00000   90.00000   90.00000
LATT -1
SFAC C  
C      1  0.4556060000000  0.4793320000000  0.4395220000000 1.0
C      1  0.5136440000000  0.4873920000000  0.5670730000000 1.0
C      1  0.4667540000000  0.5650370000000  0.5407450000000 1.0
C      1  0.5238530000000  0.4421130000000  0.5584150000000 1.0
C      1  0.5752250000000  0.5139890000000  0.4933520000000 1.0
C      1  0.4304220000000  0.4679090000000  0.5536570000000 1.0
C      1  0.4467440000000  0.4812990000000  0.5156210000000 1.0
C      1  0.4420190000000  0.4933140000000  0.5551170000000 1.0
C      1  0.4827900000000  0.5149740000000  0.4211620000000 1.0
C      1  0.5609800000000  0.5530250000000  0.5214590000000 1.0
C      1  0.5251440000000  0.4521950000000  0.4537720000000 1.0
C      1  0.4580060000000  0.5410580000000  0.5546760000000 1.0
C      1  0.5141890000000  0.5766670000000  0.5488320000000 1.0
C      1  0.5132360000000  0.5391670000000  0.5779480000000 1.0
C      1  0.5592100000000  0.4740950000000  0.5725430000000 1.0
C      1  0.4442780000000  0.4439610000000  0.5510920000000 1.0
C      1  0.5006900000000  0.4437720000000  0.4403770000000 1.0
C      1  0.5442340000000  0.4226860000000  0.5180890000000 1.0
C      1  0.5170670000000  0.4207070000000  0.5270330000000 1.0
C      1  0.4870710000000  0.5511050000000  0.5777030000000 1.0
C      1  0.5678620000000  0.4653370000000  0.5035450000000 1.0
C      1  0.4671810000000  0.4201870000000  0.4926990000000 1.0
C      1  0.5561920000000  0.5504130000000  0.5506440000000 1.0
C      1  0.5218500000000  0.5029770000000  0.5170540000000 1.0
C      1  0.5654170000000  0.5131920000000  0.4469710000000 1.0
C      1  0.4188870000000  0.4787900000000  0.4807230000000 1.0
C      1  0.5250760000000  0.4818800000000  0.4188070000000 1.0
C      1  0.5271340000000  0.5526920000000  0.5563670000000 1.0
C      1  0.4327520000000  0.4409910000000  0.5260840000000 1.0
C      1  0.5549970000000  0.5029680000000  0.5648060000000 1.0
C      1  0.5393920000000  0.4565710000000  0.5365640000000 1.0
C      1  0.4991710000000  0.4662930000000  0.4191300000000 1.0
C      1  0.5355010000000  0.5505330000000  0.5072320000000 1.0
C      1  0.4934090000000  0.5042630000000  0.5214490000000 1.0
C      1  0.4819200000000  0.5883720000000  0.4865920000000 1.0
C      1  0.4842130000000  0.5436300000000  0.4937770000000 1.0
C      1  0.4722400000000  0.5378020000000  0.4349190000000 1.0
C      1  0.5296380000000  0.4640240000000  0.5786950000000 1.0
C      1  0.5314530000000  0.4872340000000  0.5407410000000 1.0
C      1  0.5079090000000  0.4988210000000  0.4642740000000 1.0
C      1  0.4711040000000  0.5670200000000  0.5042350000000 1.0
C      1  0.4773250000000  0.4355630000000  0.4590240000000 1.0
C      1  0.5149390000000  0.5115900000000  0.5811850000000 1.0
C      1  0.4523770000000  0.4998900000000  0.4605930000000 1.0
C      1  0.4903090000000  0.5587380000000  0.4478480000000 1.0
C      1  0.4509940000000  0.5288730000000  0.4524740000000 1.0
C      1  0.4950690000000  0.4244370000000  0.5076040000000 1.0
C      1  0.5523210000000  0.4408950000000  0.4975530000000 1.0
C      1  0.4879590000000  0.5734390000000  0.5589190000000 1.0
C      1  0.5705720000000  0.5249130000000  0.5553570000000 1.0
C      1  0.4771670000000  0.4705640000000  0.4938790000000 1.0
C      1  0.4384280000000  0.4575050000000  0.4790280000000 1.0
C      1  0.5241920000000  0.5076670000000  0.4074880000000 1.0
C      1  0.5096110000000  0.5917340000000  0.4922830000000 1.0
C      1  0.4773080000000  0.5816970000000  0.4590480000000 1.0
C      1  0.4943870000000  0.4464540000000  0.4846350000000 1.0
C      1  0.5571470000000  0.4887320000000  0.4580360000000 1.0
C      1  0.5306600000000  0.5301540000000  0.4212490000000 1.0
C      1  0.4104170000000  0.4903730000000  0.5052830000000 1.0
C      1  0.4793630000000  0.4965230000000  0.4776090000000 1.0
C      1  0.5378820000000  0.5218770000000  0.4980380000000 1.0
C      1  0.4799550000000  0.4778950000000  0.5234240000000 1.0
C      1  0.5669900000000  0.4582770000000  0.5475170000000 1.0
C      1  0.5829690000000  0.4690060000000  0.5272820000000 1.0
C      1  0.5292410000000  0.4808750000000  0.4492310000000 1.0
C      1  0.4192400000000  0.5185290000000  0.5006100000000 1.0
C      1  0.5361310000000  0.4392690000000  0.4753050000000 1.0
C      1  0.5640800000000  0.4885880000000  0.4863560000000 1.0
C      1  0.4139650000000  0.4981110000000  0.4601610000000 1.0
C      1  0.4469200000000  0.5140180000000  0.5137250000000 1.0
C      1  0.4459440000000  0.4397940000000  0.5004520000000 1.0
C      1  0.5236580000000  0.5681130000000  0.4863600000000 1.0
C      1  0.4777510000000  0.4866570000000  0.4222230000000 1.0
C      1  0.5761060000000  0.5280990000000  0.5179360000000 1.0
C      1  0.4456510000000  0.5183240000000  0.5427230000000 1.0
C      1  0.4184960000000  0.5239540000000  0.4718080000000 1.0
C      1  0.4760420000000  0.5166470000000  0.5007410000000 1.0
C      1  0.4534020000000  0.4535070000000  0.4542080000000 1.0
C      1  0.5423340000000  0.5289890000000  0.4466720000000 1.0
C      1  0.5232910000000  0.5236900000000  0.4696720000000 1.0
C      1  0.5049490000000  0.5482520000000  0.4729610000000 1.0
END
