TITL C-951334-9093-47 -2.40464708503828e-06 125000 -594.963130533279 0 0 96 (C1) n - 1
REM
REM in /home/bkarasulu/work/CARBON/AIRSS/Generating-Clusters/EDIP-Nigel-Params/with-SteepDescent/Only-C1/SD-CG/HFTN-CG
REM
REM
REM
REM
REM
REM ./C.cell (11c1c37f851c82e70ff6c80c92926a4b)
REM
REM compiler GCC version 9.2.1 20190827 (Red Hat 9.2.1-1)
REM options -cpp -mtune=generic -march=x86-64 -g -O0 -fpre-include=/usr/include/finclude/math-vector-fortran.h
REM seed 1612843362 2041034760 1638941486 1705533992 233262376 -1272064355 -1281375620 82672121 1324470843 -133033661 -1759142985 -713863743 1031862692 861811499 -164538890 427405430 1677667590 -508358125 -2008592273 -590865630 1744497761 90001150 1657473781 231364347 -426947621 -2028080791 -982715577 -680108914 989482036 -618717372 1724245218 -1530150120 -1095819651
REM
CELL 1.54180   50.00000   50.00000   50.00000   90.00000   90.00000   90.00000
LATT -1
SFAC C  
C      1  0.5322250000000  0.5848940000000  0.5277410000000 1.0
C      1  0.4426220000000  0.5023980000000  0.4872780000000 1.0
C      1  0.5136650000000  0.5435420000000  0.4522040000000 1.0
C      1  0.4886320000000  0.5022310000000  0.5830220000000 1.0
C      1  0.4733950000000  0.5389240000000  0.5185560000000 1.0
C      1  0.4227840000000  0.5050900000000  0.5377540000000 1.0
C      1  0.5020780000000  0.4487740000000  0.5533100000000 1.0
C      1  0.4335950000000  0.4320910000000  0.5244920000000 1.0
C      1  0.5401310000000  0.5058260000000  0.4792970000000 1.0
C      1  0.4725620000000  0.4475580000000  0.5512780000000 1.0
C      1  0.5382290000000  0.5604170000000  0.4600930000000 1.0
C      1  0.4385330000000  0.4647630000000  0.4614150000000 1.0
C      1  0.4870480000000  0.5511530000000  0.4658440000000 1.0
C      1  0.4823090000000  0.5655420000000  0.5326430000000 1.0
C      1  0.5041970000000  0.4919350000000  0.4511070000000 1.0
C      1  0.5631510000000  0.5154380000000  0.4628290000000 1.0
C      1  0.5326370000000  0.4951110000000  0.5277140000000 1.0
C      1  0.4982140000000  0.5371150000000  0.4260490000000 1.0
C      1  0.5825660000000  0.4915610000000  0.5018610000000 1.0
C      1  0.5839520000000  0.4919950000000  0.4715610000000 1.0
C      1  0.4837440000000  0.5797630000000  0.4730070000000 1.0
C      1  0.5584380000000  0.5138640000000  0.4344560000000 1.0
C      1  0.5336910000000  0.5843540000000  0.4798510000000 1.0
C      1  0.4707590000000  0.5470460000000  0.4311400000000 1.0
C      1  0.5536340000000  0.4699510000000  0.4376700000000 1.0
C      1  0.4564580000000  0.5785570000000  0.4852760000000 1.0
C      1  0.5474070000000  0.4645240000000  0.5553900000000 1.0
C      1  0.4751210000000  0.5496890000000  0.5664970000000 1.0
C      1  0.5515080000000  0.5496760000000  0.5027960000000 1.0
C      1  0.4827640000000  0.5331490000000  0.4900240000000 1.0
C      1  0.5619770000000  0.4885290000000  0.5514520000000 1.0
C      1  0.5216520000000  0.5422200000000  0.5089930000000 1.0
C      1  0.4913230000000  0.5318050000000  0.5829950000000 1.0
C      1  0.4497370000000  0.5397100000000  0.5622940000000 1.0
C      1  0.4548800000000  0.4679900000000  0.5640950000000 1.0
C      1  0.4834910000000  0.4914710000000  0.5141850000000 1.0
C      1  0.4051430000000  0.5006900000000  0.5134900000000 1.0
C      1  0.4572790000000  0.4715810000000  0.5160890000000 1.0
C      1  0.5054640000000  0.5872330000000  0.4914020000000 1.0
C      1  0.4094770000000  0.4712300000000  0.5060180000000 1.0
C      1  0.5468920000000  0.4462270000000  0.5324950000000 1.0
C      1  0.4658750000000  0.4864520000000  0.5816410000000 1.0
C      1  0.5879330000000  0.5160790000000  0.5166260000000 1.0
C      1  0.5207070000000  0.4670780000000  0.5667610000000 1.0
C      1  0.5104050000000  0.4642860000000  0.4143190000000 1.0
C      1  0.5239110000000  0.4313930000000  0.4498770000000 1.0
C      1  0.5245790000000  0.4841350000000  0.4681480000000 1.0
C      1  0.5598130000000  0.4910460000000  0.4201090000000 1.0
C      1  0.4876940000000  0.4546490000000  0.4840650000000 1.0
C      1  0.4544030000000  0.4865570000000  0.4453420000000 1.0
C      1  0.5506520000000  0.5802250000000  0.5055130000000 1.0
C      1  0.5185190000000  0.4375470000000  0.5319830000000 1.0
C      1  0.4993230000000  0.5115020000000  0.4131070000000 1.0
C      1  0.4651180000000  0.4790550000000  0.4193870000000 1.0
C      1  0.4372500000000  0.4775110000000  0.5409420000000 1.0
C      1  0.5671230000000  0.4508450000000  0.5108280000000 1.0
C      1  0.4789220000000  0.4477890000000  0.4560540000000 1.0
C      1  0.5326010000000  0.4367730000000  0.4788230000000 1.0
C      1  0.5148460000000  0.4900670000000  0.5836370000000 1.0
C      1  0.4819130000000  0.4299510000000  0.5003850000000 1.0
C      1  0.5090250000000  0.5696260000000  0.5163560000000 1.0
C      1  0.4736810000000  0.4138080000000  0.4749110000000 1.0
C      1  0.4504720000000  0.4388170000000  0.4576950000000 1.0
C      1  0.5175040000000  0.5230460000000  0.5325120000000 1.0
C      1  0.5897260000000  0.4667060000000  0.5157600000000 1.0
C      1  0.5712690000000  0.4657370000000  0.4615910000000 1.0
C      1  0.5307940000000  0.4528690000000  0.4305580000000 1.0
C      1  0.5078440000000  0.4201710000000  0.5118900000000 1.0
C      1  0.4614570000000  0.4413800000000  0.5232920000000 1.0
C      1  0.5300630000000  0.5423960000000  0.5550890000000 1.0
C      1  0.4400470000000  0.5567330000000  0.4719410000000 1.0
C      1  0.4732700000000  0.5051930000000  0.4872020000000 1.0
C      1  0.4358290000000  0.5316610000000  0.5396420000000 1.0
C      1  0.5205460000000  0.5375030000000  0.5829660000000 1.0
C      1  0.5527640000000  0.5002890000000  0.5056770000000 1.0
C      1  0.5155720000000  0.4633840000000  0.4879010000000 1.0
C      1  0.5689220000000  0.5361790000000  0.5242360000000 1.0
C      1  0.5608500000000  0.5445600000000  0.4730600000000 1.0
C      1  0.4952730000000  0.4232110000000  0.4481920000000 1.0
C      1  0.4873370000000  0.5159390000000  0.5325050000000 1.0
C      1  0.5607670000000  0.4462840000000  0.4825230000000 1.0
C      1  0.5600110000000  0.5115920000000  0.5686800000000 1.0
C      1  0.5108400000000  0.4775020000000  0.5144070000000 1.0
C      1  0.4180940000000  0.4553270000000  0.5303850000000 1.0
C      1  0.4910540000000  0.4844320000000  0.4094480000000 1.0
C      1  0.4786210000000  0.4917370000000  0.4617270000000 1.0
C      1  0.4492660000000  0.5387630000000  0.4487690000000 1.0
C      1  0.4547280000000  0.5733740000000  0.5158760000000 1.0
C      1  0.4365820000000  0.4741290000000  0.4912010000000 1.0
C      1  0.4321070000000  0.5530400000000  0.5198560000000 1.0
C      1  0.4166570000000  0.5166050000000  0.4900450000000 1.0
C      1  0.5594180000000  0.5373000000000  0.5529180000000 1.0
C      1  0.5275230000000  0.4124740000000  0.4939740000000 1.0
C      1  0.4216070000000  0.5459530000000  0.4930290000000 1.0
C      1  0.4401270000000  0.5121630000000  0.4441980000000 1.0
C      1  0.5354080000000  0.5115580000000  0.5867780000000 1.0
END
