TITL C-950521-2237-490 -1.45361567701928e-06 125000 -1171.43685695356 0 0 186 (C1) n - 1
REM
REM in /home/bkarasulu/work/CARBON/AIRSS/Generating-Clusters/EDIP-Nigel-Params/with-SteepDescent/Only-C1/SD-CG/HFTN-CG
REM
REM
REM
REM
REM
REM ./C.cell (11c1c37f851c82e70ff6c80c92926a4b)
REM
REM compiler GCC version 9.2.1 20190827 (Red Hat 9.2.1-1)
REM options -cpp -mtune=generic -march=x86-64 -g -O0 -fpre-include=/usr/include/finclude/math-vector-fortran.h
REM seed 1296540091 -188012530 -638018303 1563955085 -1813276599 1016881005 -679114547 11320160 2103650370 -651166409 -973709474 -1238641718 906874656 720025178 -151602808 -1878489709 697265266 1934769941 -635291777 1649372794 121880593 1969343627 1507345095 -548205011 440685575 1338191306 -2140504509 1544992582 -431580293 -1512445083 1409655073 277670676 1198455955
REM
CELL 1.54180   50.00000   50.00000   50.00000   90.00000   90.00000   90.00000
LATT -1
SFAC C  
C      1  0.5479820000000  0.6045090000000  0.4353090000000 1.0
C      1  0.4579860000000  0.5908410000000  0.5146780000000 1.0
C      1  0.5747300000000  0.4127050000000  0.5370810000000 1.0
C      1  0.5581490000000  0.5773180000000  0.4309830000000 1.0
C      1  0.5810800000000  0.5413560000000  0.4599170000000 1.0
C      1  0.5449820000000  0.5478160000000  0.5735390000000 1.0
C      1  0.4867210000000  0.4658560000000  0.4836210000000 1.0
C      1  0.4355860000000  0.5799240000000  0.5314010000000 1.0
C      1  0.4661700000000  0.4416280000000  0.4189280000000 1.0
C      1  0.5312000000000  0.4152050000000  0.4492120000000 1.0
C      1  0.4214020000000  0.5750860000000  0.4495750000000 1.0
C      1  0.3973300000000  0.4684290000000  0.5264030000000 1.0
C      1  0.4834910000000  0.3931280000000  0.4754010000000 1.0
C      1  0.4004530000000  0.5353260000000  0.5684500000000 1.0
C      1  0.5032970000000  0.6135730000000  0.4859500000000 1.0
C      1  0.4653140000000  0.5156260000000  0.4487290000000 1.0
C      1  0.4106970000000  0.5748610000000  0.5204800000000 1.0
C      1  0.4990330000000  0.4872520000000  0.5896230000000 1.0
C      1  0.4574010000000  0.4360790000000  0.4640070000000 1.0
C      1  0.4023990000000  0.4428240000000  0.4627500000000 1.0
C      1  0.4412510000000  0.4044630000000  0.5321220000000 1.0
C      1  0.5375470000000  0.5357560000000  0.4538370000000 1.0
C      1  0.5216750000000  0.4851830000000  0.3903630000000 1.0
C      1  0.5352490000000  0.4653120000000  0.4880310000000 1.0
C      1  0.4401200000000  0.4423430000000  0.5634080000000 1.0
C      1  0.5536000000000  0.4634740000000  0.4637440000000 1.0
C      1  0.4718140000000  0.5663480000000  0.5962790000000 1.0
C      1  0.4782210000000  0.5490960000000  0.5361240000000 1.0
C      1  0.5039140000000  0.5058690000000  0.5010090000000 1.0
C      1  0.5235020000000  0.4935190000000  0.4804180000000 1.0
C      1  0.5846550000000  0.5417070000000  0.5395400000000 1.0
C      1  0.5870110000000  0.5217030000000  0.4385380000000 1.0
C      1  0.4057970000000  0.4935660000000  0.4906300000000 1.0
C      1  0.4740270000000  0.5775820000000  0.4268810000000 1.0
C      1  0.4258730000000  0.4940360000000  0.5619860000000 1.0
C      1  0.4707250000000  0.5404660000000  0.3911260000000 1.0
C      1  0.5693860000000  0.4897480000000  0.4634560000000 1.0
C      1  0.4656290000000  0.5324930000000  0.4758670000000 1.0
C      1  0.5517640000000  0.4672190000000  0.5867840000000 1.0
C      1  0.5336280000000  0.6000150000000  0.5232100000000 1.0
C      1  0.5067890000000  0.6017270000000  0.5117780000000 1.0
C      1  0.5676430000000  0.5097930000000  0.5694690000000 1.0
C      1  0.4881370000000  0.4433410000000  0.5732930000000 1.0
C      1  0.4333550000000  0.4692810000000  0.5793940000000 1.0
C      1  0.4436390000000  0.5331080000000  0.4010040000000 1.0
C      1  0.5627140000000  0.4234090000000  0.5604840000000 1.0
C      1  0.4016420000000  0.5080280000000  0.5698970000000 1.0
C      1  0.4904350000000  0.5306230000000  0.4924760000000 1.0
C      1  0.4269290000000  0.4817010000000  0.4469010000000 1.0
C      1  0.5190670000000  0.4927020000000  0.5683030000000 1.0
C      1  0.5533710000000  0.5283210000000  0.4022390000000 1.0
C      1  0.4809160000000  0.6044040000000  0.4698870000000 1.0
C      1  0.4973030000000  0.5440230000000  0.5592130000000 1.0
C      1  0.4627400000000  0.5027580000000  0.6099240000000 1.0
C      1  0.5584530000000  0.5943430000000  0.5075120000000 1.0
C      1  0.4526550000000  0.4932280000000  0.4319520000000 1.0
C      1  0.4822490000000  0.4855950000000  0.5048270000000 1.0
C      1  0.4928350000000  0.4381550000000  0.4919900000000 1.0
C      1  0.5320270000000  0.4704760000000  0.4131030000000 1.0
C      1  0.6008500000000  0.5103810000000  0.5003620000000 1.0
C      1  0.5216810000000  0.4371390000000  0.4963910000000 1.0
C      1  0.5714890000000  0.5380350000000  0.5660370000000 1.0
C      1  0.5146070000000  0.5411890000000  0.6048980000000 1.0
C      1  0.4764940000000  0.4918520000000  0.5517910000000 1.0
C      1  0.4412320000000  0.5487790000000  0.4876530000000 1.0
C      1  0.5734940000000  0.5696620000000  0.4557320000000 1.0
C      1  0.4554070000000  0.3902920000000  0.4839990000000 1.0
C      1  0.4354560000000  0.4050050000000  0.4380130000000 1.0
C      1  0.4541160000000  0.4971990000000  0.4996530000000 1.0
C      1  0.5142330000000  0.5178000000000  0.4429220000000 1.0
C      1  0.4069190000000  0.5645570000000  0.4955520000000 1.0
C      1  0.4947810000000  0.3938030000000  0.5380170000000 1.0
C      1  0.5722070000000  0.4154060000000  0.4837560000000 1.0
C      1  0.4391280000000  0.3916100000000  0.4611850000000 1.0
C      1  0.4908210000000  0.4248030000000  0.4195060000000 1.0
C      1  0.5343110000000  0.4142890000000  0.5642210000000 1.0
C      1  0.5600240000000  0.4537010000000  0.5601130000000 1.0
C      1  0.4420170000000  0.5737060000000  0.4701230000000 1.0
C      1  0.5308600000000  0.4518940000000  0.6005280000000 1.0
C      1  0.4643660000000  0.4938390000000  0.3839240000000 1.0
C      1  0.4062230000000  0.4399450000000  0.5207590000000 1.0
C      1  0.5916370000000  0.4825470000000  0.4864520000000 1.0
C      1  0.4890630000000  0.5315850000000  0.4389480000000 1.0
C      1  0.5568110000000  0.5860840000000  0.4774690000000 1.0
C      1  0.4195000000000  0.4523250000000  0.4424020000000 1.0
C      1  0.5159330000000  0.5869820000000  0.4484390000000 1.0
C      1  0.5164130000000  0.5574880000000  0.4065030000000 1.0
C      1  0.5672300000000  0.5114590000000  0.4192890000000 1.0
C      1  0.4762020000000  0.4261310000000  0.5153600000000 1.0
C      1  0.4430300000000  0.4327610000000  0.4379150000000 1.0
C      1  0.4865600000000  0.5881900000000  0.5555190000000 1.0
C      1  0.5046010000000  0.4301010000000  0.4455380000000 1.0
C      1  0.4916850000000  0.3730930000000  0.5191790000000 1.0
C      1  0.5096990000000  0.4702880000000  0.6132590000000 1.0
C      1  0.5359320000000  0.5605390000000  0.4781500000000 1.0
C      1  0.4671960000000  0.4638720000000  0.4621490000000 1.0
C      1  0.4829640000000  0.5151270000000  0.3827220000000 1.0
C      1  0.6050530000000  0.4726040000000  0.4447120000000 1.0
C      1  0.5310700000000  0.5637160000000  0.4326240000000 1.0
C      1  0.5341350000000  0.5939220000000  0.5511310000000 1.0
C      1  0.4404220000000  0.4590140000000  0.5231400000000 1.0
C      1  0.4512350000000  0.4113230000000  0.5048600000000 1.0
C      1  0.4567690000000  0.5945110000000  0.4846190000000 1.0
C      1  0.5062650000000  0.5701460000000  0.4812020000000 1.0
C      1  0.4224020000000  0.4832940000000  0.5335130000000 1.0
C      1  0.5424070000000  0.5658640000000  0.5959880000000 1.0
C      1  0.5085500000000  0.4676130000000  0.4370530000000 1.0
C      1  0.5019350000000  0.5132950000000  0.5518460000000 1.0
C      1  0.5941840000000  0.5666130000000  0.5320220000000 1.0
C      1  0.4371930000000  0.4513560000000  0.4925080000000 1.0
C      1  0.4867430000000  0.5609570000000  0.4061500000000 1.0
C      1  0.4226280000000  0.4251780000000  0.5435740000000 1.0
C      1  0.5448000000000  0.5470870000000  0.5031060000000 1.0
C      1  0.3847680000000  0.4772360000000  0.5027440000000 1.0
C      1  0.4459030000000  0.5030040000000  0.4036510000000 1.0
C      1  0.5139230000000  0.4969990000000  0.6298170000000 1.0
C      1  0.4571420000000  0.5280500000000  0.5366960000000 1.0
C      1  0.4389430000000  0.5710710000000  0.5598420000000 1.0
C      1  0.4777060000000  0.4722580000000  0.5776360000000 1.0
C      1  0.4680630000000  0.5186300000000  0.5857480000000 1.0
C      1  0.5815560000000  0.5875810000000  0.5212810000000 1.0
C      1  0.4969080000000  0.5527060000000  0.5105150000000 1.0
C      1  0.4855510000000  0.5045250000000  0.6280630000000 1.0
C      1  0.5513360000000  0.4719880000000  0.5129940000000 1.0
C      1  0.5104680000000  0.4287200000000  0.3999600000000 1.0
C      1  0.4860280000000  0.5575060000000  0.4573250000000 1.0
C      1  0.5799650000000  0.4104890000000  0.5104630000000 1.0
C      1  0.4650580000000  0.5777340000000  0.5716710000000 1.0
C      1  0.5350420000000  0.4407820000000  0.4071130000000 1.0
C      1  0.4050910000000  0.5006400000000  0.4589570000000 1.0
C      1  0.5253350000000  0.4336780000000  0.5249700000000 1.0
C      1  0.5238810000000  0.5433300000000  0.5224310000000 1.0
C      1  0.5812680000000  0.4638080000000  0.4290460000000 1.0
C      1  0.3995000000000  0.5376520000000  0.4890260000000 1.0
C      1  0.5265370000000  0.5563550000000  0.5514570000000 1.0
C      1  0.4677920000000  0.4485170000000  0.5345460000000 1.0
C      1  0.5793880000000  0.4648260000000  0.5067900000000 1.0
C      1  0.4869210000000  0.4724320000000  0.5325610000000 1.0
C      1  0.5091800000000  0.4917520000000  0.4551830000000 1.0
C      1  0.5110430000000  0.5109190000000  0.3877260000000 1.0
C      1  0.5494490000000  0.4264710000000  0.4295460000000 1.0
C      1  0.5230590000000  0.4064460000000  0.5366650000000 1.0
C      1  0.4886410000000  0.5980160000000  0.4409570000000 1.0
C      1  0.6037850000000  0.5011120000000  0.4489900000000 1.0
C      1  0.5956160000000  0.5154950000000  0.5300650000000 1.0
C      1  0.5156910000000  0.4713950000000  0.5462480000000 1.0
C      1  0.5933420000000  0.5346740000000  0.4855950000000 1.0
C      1  0.4105280000000  0.5179730000000  0.5086870000000 1.0
C      1  0.5484210000000  0.5107160000000  0.4737150000000 1.0
C      1  0.4330570000000  0.5501500000000  0.4219360000000 1.0
C      1  0.5260560000000  0.6221530000000  0.4727460000000 1.0
C      1  0.4271270000000  0.5443950000000  0.5707710000000 1.0
C      1  0.5028900000000  0.3835930000000  0.4955930000000 1.0
C      1  0.5959470000000  0.4573920000000  0.5281840000000 1.0
C      1  0.5198930000000  0.5133180000000  0.5260670000000 1.0
C      1  0.4556860000000  0.4748040000000  0.5986400000000 1.0
C      1  0.4339690000000  0.4807220000000  0.4852650000000 1.0
C      1  0.4456610000000  0.5211630000000  0.5642410000000 1.0
C      1  0.5282690000000  0.3982940000000  0.4989750000000 1.0
C      1  0.4114350000000  0.5486800000000  0.4411830000000 1.0
C      1  0.6076600000000  0.4539230000000  0.4679460000000 1.0
C      1  0.5171380000000  0.5785990000000  0.5940700000000 1.0
C      1  0.4651030000000  0.4261740000000  0.5704290000000 1.0
C      1  0.5838490000000  0.4688590000000  0.5503570000000 1.0
C      1  0.4413370000000  0.5220810000000  0.5111670000000 1.0
C      1  0.4677980000000  0.4060910000000  0.5483040000000 1.0
C      1  0.5883890000000  0.4309120000000  0.4640050000000 1.0
C      1  0.5278610000000  0.5339920000000  0.3932420000000 1.0
C      1  0.5602560000000  0.4829880000000  0.4209560000000 1.0
C      1  0.5755370000000  0.4973930000000  0.5440630000000 1.0
C      1  0.5592600000000  0.5220520000000  0.4991030000000 1.0
C      1  0.5298290000000  0.5142270000000  0.6105770000000 1.0
C      1  0.5491910000000  0.6111060000000  0.4628930000000 1.0
C      1  0.5165420000000  0.4332210000000  0.5810510000000 1.0
C      1  0.4852750000000  0.4222050000000  0.4678760000000 1.0
C      1  0.5450080000000  0.4971310000000  0.5851630000000 1.0
C      1  0.4756440000000  0.4672180000000  0.4330270000000 1.0
C      1  0.4869860000000  0.5426470000000  0.5884300000000 1.0
C      1  0.5680630000000  0.4436940000000  0.4458800000000 1.0
C      1  0.5447740000000  0.4073270000000  0.4754960000000 1.0
C      1  0.4106930000000  0.5291250000000  0.4631210000000 1.0
C      1  0.4831470000000  0.5969900000000  0.5280090000000 1.0
C      1  0.5511570000000  0.5011980000000  0.5222400000000 1.0
C      1  0.5388470000000  0.4569360000000  0.5367830000000 1.0
C      1  0.4115860000000  0.4362600000000  0.4887090000000 1.0
C      1  0.5116030000000  0.5932900000000  0.5693100000000 1.0
END
