TITL C-950536-5891-58 4.50739947070704e-07 125000 -358.19379406932 0 0 59 (C1) n - 1
REM
REM in /home/bkarasulu/work/CARBON/AIRSS/Generating-Clusters/EDIP-Nigel-Params/with-SteepDescent/Only-C1/SD-CG/HFTN-CG
REM
REM
REM
REM
REM
REM ./C.cell (11c1c37f851c82e70ff6c80c92926a4b)
REM
REM compiler GCC version 9.2.1 20190827 (Red Hat 9.2.1-1)
REM options -cpp -mtune=generic -march=x86-64 -g -O0 -fpre-include=/usr/include/finclude/math-vector-fortran.h
REM seed -2026841675 892697204 -1847002542 -1619880288 873536201 481396124 -622974243 -996509566 2051845248 1928709982 338401462 -20715517 659515941 -2010014823 -723553236 1518410748 -542644840 -1874692337 -1322418109 1985000708 2105499677 -1557714181 1166287799 -1649065077 -1710984862 -770311777 822595332 87150477 322102782 1649304898 -1460038830 -1142898269 -630306619
REM
CELL 1.54180   50.00000   50.00000   50.00000   90.00000   90.00000   90.00000
LATT -1
SFAC C  
C      1  0.5255900000000  0.4695380000000  0.4315810000000 1.0
C      1  0.5315750000000  0.5090930000000  0.4506170000000 1.0
C      1  0.4839290000000  0.5519070000000  0.4461230000000 1.0
C      1  0.4915580000000  0.5464230000000  0.4885940000000 1.0
C      1  0.5133180000000  0.5681360000000  0.5195830000000 1.0
C      1  0.4346980000000  0.4450410000000  0.5017690000000 1.0
C      1  0.4668650000000  0.5522910000000  0.5218680000000 1.0
C      1  0.4284470000000  0.4948710000000  0.5221480000000 1.0
C      1  0.5445660000000  0.4397800000000  0.4979790000000 1.0
C      1  0.4771830000000  0.5038100000000  0.5154640000000 1.0
C      1  0.5579230000000  0.5170830000000  0.5565670000000 1.0
C      1  0.4564200000000  0.5258040000000  0.5073820000000 1.0
C      1  0.5017490000000  0.5064080000000  0.4498570000000 1.0
C      1  0.4668660000000  0.5471260000000  0.4702740000000 1.0
C      1  0.4831690000000  0.5240570000000  0.4358710000000 1.0
C      1  0.4993950000000  0.4650760000000  0.4921750000000 1.0
C      1  0.5586840000000  0.4805020000000  0.5272740000000 1.0
C      1  0.4897280000000  0.4595370000000  0.4639670000000 1.0
C      1  0.5359670000000  0.4521180000000  0.4522110000000 1.0
C      1  0.4971100000000  0.4780010000000  0.4409930000000 1.0
C      1  0.5414710000000  0.4935560000000  0.4272120000000 1.0
C      1  0.5311290000000  0.5552660000000  0.4728070000000 1.0
C      1  0.4449200000000  0.4471070000000  0.5284860000000 1.0
C      1  0.5307150000000  0.5179390000000  0.5620790000000 1.0
C      1  0.5449680000000  0.5303050000000  0.4686800000000 1.0
C      1  0.5651910000000  0.5180030000000  0.4866300000000 1.0
C      1  0.5181490000000  0.5426870000000  0.5605070000000 1.0
C      1  0.4296370000000  0.4901160000000  0.4937780000000 1.0
C      1  0.4864990000000  0.5702080000000  0.5079100000000 1.0
C      1  0.4507230000000  0.5231780000000  0.4694420000000 1.0
C      1  0.4465870000000  0.5321810000000  0.5515370000000 1.0
C      1  0.4485240000000  0.4683250000000  0.4897260000000 1.0
C      1  0.5690260000000  0.4691270000000  0.5012430000000 1.0
C      1  0.5753450000000  0.5233640000000  0.5122360000000 1.0
C      1  0.4565380000000  0.5121370000000  0.4429000000000 1.0
C      1  0.5012400000000  0.5173300000000  0.5031980000000 1.0
C      1  0.4722170000000  0.4394420000000  0.5276520000000 1.0
C      1  0.5549910000000  0.4469610000000  0.4727710000000 1.0
C      1  0.5143990000000  0.4996090000000  0.5469270000000 1.0
C      1  0.4666220000000  0.4836010000000  0.5580910000000 1.0
C      1  0.4605570000000  0.4636350000000  0.4616500000000 1.0
C      1  0.4584380000000  0.4831180000000  0.4400630000000 1.0
C      1  0.4738930000000  0.4724170000000  0.5074190000000 1.0
C      1  0.5371580000000  0.4862150000000  0.4709410000000 1.0
C      1  0.4822460000000  0.4627590000000  0.5689910000000 1.0
C      1  0.5650340000000  0.4896370000000  0.4798940000000 1.0
C      1  0.4437430000000  0.4751610000000  0.5395880000000 1.0
C      1  0.5077770000000  0.5413990000000  0.5330190000000 1.0
C      1  0.5102650000000  0.5604240000000  0.4542880000000 1.0
C      1  0.5176040000000  0.4524270000000  0.5334030000000 1.0
C      1  0.4336870000000  0.5234870000000  0.5272590000000 1.0
C      1  0.4839460000000  0.5046180000000  0.5451660000000 1.0
C      1  0.4757240000000  0.5323460000000  0.5540030000000 1.0
C      1  0.5179690000000  0.4892720000000  0.4965280000000 1.0
C      1  0.5313810000000  0.5673420000000  0.4981540000000 1.0
C      1  0.5166390000000  0.4427600000000  0.5056980000000 1.0
C      1  0.5281050000000  0.4806270000000  0.5273320000000 1.0
C      1  0.5708320000000  0.5065030000000  0.5343350000000 1.0
C      1  0.4913680000000  0.4488090000000  0.5461610000000 1.0
END
