TITL C-950530-3293-650 1.19583045262193e-06 125000 -571.000987391237 0 0 95 (C1) n - 1
REM
REM in /home/bkarasulu/work/CARBON/AIRSS/Generating-Clusters/EDIP-Nigel-Params/with-SteepDescent/Only-C1/SD-CG/HFTN-CG
REM
REM
REM
REM
REM
REM ./C.cell (11c1c37f851c82e70ff6c80c92926a4b)
REM
REM compiler GCC version 9.2.1 20190827 (Red Hat 9.2.1-1)
REM options -cpp -mtune=generic -march=x86-64 -g -O0 -fpre-include=/usr/include/finclude/math-vector-fortran.h
REM seed -1400574051 914986920 619048440 -1645776513 -2048951093 -2144700263 1367331046 104750745 -710869189 -1079099091 -597633039 -1183072189 657306805 -797834676 303843334 -321911211 301765982 -1147081547 -799797509 -1987910346 -311090603 -2062325201 -400906056 1524322927 1668380621 723242435 970722569 1505884173 -91220444 -1068354724 -308248598 -893560709 1245128426
REM
CELL 1.54180   50.00000   50.00000   50.00000   90.00000   90.00000   90.00000
LATT -1
SFAC C  
C      1  0.4646940000000  0.4976370000000  0.5123400000000 1.0
C      1  0.4388030000000  0.4724310000000  0.4763020000000 1.0
C      1  0.4915250000000  0.4963790000000  0.5627590000000 1.0
C      1  0.5543490000000  0.4348150000000  0.4639230000000 1.0
C      1  0.5833970000000  0.4871740000000  0.4974750000000 1.0
C      1  0.5160760000000  0.5709670000000  0.4356910000000 1.0
C      1  0.5557730000000  0.4856740000000  0.4417520000000 1.0
C      1  0.4877670000000  0.4169210000000  0.4773860000000 1.0
C      1  0.5328320000000  0.4445810000000  0.5031650000000 1.0
C      1  0.4421040000000  0.4893300000000  0.5322810000000 1.0
C      1  0.4280170000000  0.4559800000000  0.5443370000000 1.0
C      1  0.5016790000000  0.5381060000000  0.5126560000000 1.0
C      1  0.4483550000000  0.4369150000000  0.5390840000000 1.0
C      1  0.5687880000000  0.5329440000000  0.4365540000000 1.0
C      1  0.5379750000000  0.4450450000000  0.4415250000000 1.0
C      1  0.4722940000000  0.4382480000000  0.5551500000000 1.0
C      1  0.5552470000000  0.4562940000000  0.5209410000000 1.0
C      1  0.4978730000000  0.5441910000000  0.5407940000000 1.0
C      1  0.4630140000000  0.5043980000000  0.4361720000000 1.0
C      1  0.4634960000000  0.5698160000000  0.4981080000000 1.0
C      1  0.4798660000000  0.5266510000000  0.4761470000000 1.0
C      1  0.5264520000000  0.4525610000000  0.5642160000000 1.0
C      1  0.4515850000000  0.5602670000000  0.4723530000000 1.0
C      1  0.5257610000000  0.4645730000000  0.4789750000000 1.0
C      1  0.5070750000000  0.4533170000000  0.4464790000000 1.0
C      1  0.5072990000000  0.4633320000000  0.5444510000000 1.0
C      1  0.4577490000000  0.4548980000000  0.4298200000000 1.0
C      1  0.5172080000000  0.5653210000000  0.5503670000000 1.0
C      1  0.4171360000000  0.4638190000000  0.5191780000000 1.0
C      1  0.5771940000000  0.5130850000000  0.4825940000000 1.0
C      1  0.4499890000000  0.5075160000000  0.5717810000000 1.0
C      1  0.5112600000000  0.5075340000000  0.5415350000000 1.0
C      1  0.4988160000000  0.5680320000000  0.4582380000000 1.0
C      1  0.5389700000000  0.4216300000000  0.4850680000000 1.0
C      1  0.4276790000000  0.5091500000000  0.4835890000000 1.0
C      1  0.4437030000000  0.5271300000000  0.4382170000000 1.0
C      1  0.4844100000000  0.5902110000000  0.5000340000000 1.0
C      1  0.4214140000000  0.5095850000000  0.5344990000000 1.0
C      1  0.5604650000000  0.5452960000000  0.5447500000000 1.0
C      1  0.5289480000000  0.5256620000000  0.5794880000000 1.0
C      1  0.5533030000000  0.4626610000000  0.4254340000000 1.0
C      1  0.4755920000000  0.4623420000000  0.5714980000000 1.0
C      1  0.5088570000000  0.4813860000000  0.4955950000000 1.0
C      1  0.5598380000000  0.4454930000000  0.5471320000000 1.0
C      1  0.5602180000000  0.4862050000000  0.5179060000000 1.0
C      1  0.4576660000000  0.5453700000000  0.5707920000000 1.0
C      1  0.5404670000000  0.5594780000000  0.4318370000000 1.0
C      1  0.5551930000000  0.5649240000000  0.5233690000000 1.0
C      1  0.5374770000000  0.5094740000000  0.5560630000000 1.0
C      1  0.4883080000000  0.4151960000000  0.5526170000000 1.0
C      1  0.4371020000000  0.5326380000000  0.4665800000000 1.0
C      1  0.4623260000000  0.5480450000000  0.4280250000000 1.0
C      1  0.5263880000000  0.5206070000000  0.4624580000000 1.0
C      1  0.4838650000000  0.4448910000000  0.4682350000000 1.0
C      1  0.5149270000000  0.4093970000000  0.4769970000000 1.0
C      1  0.5215260000000  0.4846900000000  0.5228440000000 1.0
C      1  0.4749240000000  0.4154250000000  0.5041610000000 1.0
C      1  0.4692660000000  0.5666070000000  0.4493560000000 1.0
C      1  0.5121990000000  0.6023850000000  0.5040350000000 1.0
C      1  0.4843620000000  0.5176360000000  0.4193870000000 1.0
C      1  0.4533430000000  0.4798700000000  0.5717140000000 1.0
C      1  0.4684350000000  0.5529870000000  0.5447590000000 1.0
C      1  0.4186670000000  0.5233240000000  0.5087870000000 1.0
C      1  0.4556820000000  0.4507850000000  0.4577050000000 1.0
C      1  0.4289550000000  0.5221380000000  0.5591970000000 1.0
C      1  0.5034580000000  0.5914960000000  0.4767380000000 1.0
C      1  0.5677050000000  0.5610880000000  0.4987370000000 1.0
C      1  0.4501420000000  0.5626900000000  0.5226020000000 1.0
C      1  0.5051200000000  0.4969730000000  0.4243170000000 1.0
C      1  0.4929450000000  0.4693980000000  0.4233640000000 1.0
C      1  0.5060160000000  0.5413320000000  0.4748450000000 1.0
C      1  0.5651110000000  0.5061960000000  0.5416780000000 1.0
C      1  0.4791280000000  0.5007440000000  0.4630360000000 1.0
C      1  0.4964320000000  0.4155490000000  0.5255510000000 1.0
C      1  0.4990050000000  0.5179130000000  0.5833040000000 1.0
C      1  0.5084510000000  0.4967810000000  0.4540880000000 1.0
C      1  0.4767950000000  0.5240330000000  0.5049550000000 1.0
C      1  0.4653690000000  0.4839890000000  0.4860660000000 1.0
C      1  0.4793890000000  0.5376830000000  0.5879660000000 1.0
C      1  0.5057000000000  0.4435570000000  0.5190680000000 1.0
C      1  0.5413470000000  0.4294270000000  0.5600010000000 1.0
C      1  0.4559330000000  0.4806470000000  0.4202160000000 1.0
C      1  0.5467100000000  0.5080830000000  0.4823290000000 1.0
C      1  0.5303560000000  0.5781860000000  0.5276510000000 1.0
C      1  0.5493300000000  0.4796960000000  0.4703220000000 1.0
C      1  0.4844400000000  0.4622460000000  0.4937900000000 1.0
C      1  0.5408350000000  0.5326350000000  0.4386100000000 1.0
C      1  0.4534350000000  0.4358350000000  0.5106250000000 1.0
C      1  0.5729210000000  0.4639340000000  0.4809240000000 1.0
C      1  0.4261780000000  0.5495660000000  0.5157820000000 1.0
C      1  0.5823810000000  0.5370660000000  0.5018390000000 1.0
C      1  0.4313990000000  0.4519610000000  0.4974910000000 1.0
C      1  0.5383410000000  0.5521660000000  0.5673180000000 1.0
C      1  0.5833190000000  0.5294170000000  0.5310010000000 1.0
C      1  0.5763830000000  0.5083470000000  0.4491280000000 1.0
END
