TITL C-951338-5626-579 1.77635422276546e-06 125000 -192.383025261131 0 0 33 (C1) n - 1
REM
REM in /home/bkarasulu/work/CARBON/AIRSS/Generating-Clusters/EDIP-Nigel-Params/with-SteepDescent/Only-C1/SD-CG/HFTN-CG
REM
REM
REM
REM
REM
REM ./C.cell (11c1c37f851c82e70ff6c80c92926a4b)
REM
REM compiler GCC version 9.2.1 20190827 (Red Hat 9.2.1-1)
REM options -cpp -mtune=generic -march=x86-64 -g -O0 -fpre-include=/usr/include/finclude/math-vector-fortran.h
REM seed -100575779 1205944377 1300725247 1619509746 932603176 185649544 402396984 -423591060 1083760643 -1534246044 -776665897 182825394 -374524465 -1728234276 93356549 -1889163189 155687932 1364238752 1989792566 -397516073 1341225793 -1888917975 1816959717 158397945 -1560339959 1335367772 217803528 95004052 -768379952 -1510634534 2005903403 -753019845 1803996884
REM
CELL 1.54180   50.00000   50.00000   50.00000   90.00000   90.00000   90.00000
LATT -1
SFAC C  
C      1  0.4741840000000  0.4594880000000  0.5501030000000 1.0
C      1  0.5092250000000  0.5179340000000  0.5579230000000 1.0
C      1  0.4757420000000  0.4667130000000  0.4535000000000 1.0
C      1  0.5121720000000  0.5066790000000  0.4696460000000 1.0
C      1  0.4821040000000  0.4794870000000  0.5075830000000 1.0
C      1  0.4844740000000  0.4526560000000  0.4948360000000 1.0
C      1  0.5520120000000  0.4937350000000  0.4843270000000 1.0
C      1  0.4671470000000  0.4478320000000  0.4726820000000 1.0
C      1  0.5135940000000  0.4501500000000  0.4884930000000 1.0
C      1  0.4830950000000  0.5069440000000  0.5483650000000 1.0
C      1  0.4643930000000  0.4940670000000  0.4559460000000 1.0
C      1  0.5506050000000  0.5233890000000  0.4884990000000 1.0
C      1  0.4409090000000  0.4977890000000  0.4712820000000 1.0
C      1  0.5163580000000  0.4502680000000  0.4603940000000 1.0
C      1  0.4777100000000  0.5349980000000  0.4818250000000 1.0
C      1  0.5461480000000  0.5320660000000  0.5159240000000 1.0
C      1  0.4886450000000  0.4786200000000  0.5370460000000 1.0
C      1  0.5357950000000  0.4900730000000  0.4606700000000 1.0
C      1  0.4894250000000  0.5509090000000  0.5276090000000 1.0
C      1  0.5080370000000  0.4953860000000  0.4987690000000 1.0
C      1  0.5009820000000  0.4623210000000  0.4412300000000 1.0
C      1  0.5248930000000  0.5327250000000  0.4764080000000 1.0
C      1  0.5195710000000  0.4713110000000  0.5358650000000 1.0
C      1  0.4712500000000  0.5275330000000  0.5297930000000 1.0
C      1  0.5231670000000  0.5129650000000  0.5220980000000 1.0
C      1  0.5307370000000  0.4962110000000  0.5474240000000 1.0
C      1  0.4379600000000  0.5091000000000  0.4958520000000 1.0
C      1  0.5280210000000  0.4718470000000  0.5041420000000 1.0
C      1  0.5280080000000  0.5557010000000  0.5213310000000 1.0
C      1  0.5117770000000  0.5476010000000  0.5472640000000 1.0
C      1  0.4636240000000  0.5192460000000  0.5026040000000 1.0
C      1  0.5038830000000  0.5482900000000  0.4916660000000 1.0
C      1  0.4843520000000  0.5159640000000  0.4588990000000 1.0
END
