TITL C-950530-3293-175 -9.86410521232465e-07 125000 -1213.0528131279 0 0 196 (C1) n - 1
REM
REM in /home/bkarasulu/work/CARBON/AIRSS/Generating-Clusters/EDIP-Nigel-Params/with-SteepDescent/Only-C1/SD-CG/HFTN-CG
REM
REM
REM
REM
REM
REM ./C.cell (11c1c37f851c82e70ff6c80c92926a4b)
REM
REM compiler GCC version 9.2.1 20190827 (Red Hat 9.2.1-1)
REM options -cpp -mtune=generic -march=x86-64 -g -O0 -fpre-include=/usr/include/finclude/math-vector-fortran.h
REM seed 1884459233 1073213135 1897340723 -591780071 556837604 1963133017 146539202 -1420099459 969638171 -1449712491 -602485879 1111279970 1450675504 -1260314120 -2132869492 751217681 1475535603 1110083461 -2114582869 1401124812 576813126 348144769 -1386010053 -845646337 -559872312 585895640 305923298 -1425278416 2123003649 1588915177 -1832759238 1312480453 560710714
REM
CELL 1.54180   50.00000   50.00000   50.00000   90.00000   90.00000   90.00000
LATT -1
SFAC C  
C      1  0.4879780000000  0.5167680000000  0.4649870000000 1.0
C      1  0.4233330000000  0.5585430000000  0.4511480000000 1.0
C      1  0.4765120000000  0.4118010000000  0.5570850000000 1.0
C      1  0.5262370000000  0.4651320000000  0.5563300000000 1.0
C      1  0.5965600000000  0.4668710000000  0.5163720000000 1.0
C      1  0.4470820000000  0.5006740000000  0.5159570000000 1.0
C      1  0.5251090000000  0.4148960000000  0.5678860000000 1.0
C      1  0.5161600000000  0.4500720000000  0.3885750000000 1.0
C      1  0.3992070000000  0.4199630000000  0.4705320000000 1.0
C      1  0.4607110000000  0.5868380000000  0.5549930000000 1.0
C      1  0.4913520000000  0.3875240000000  0.4475730000000 1.0
C      1  0.3955640000000  0.4401590000000  0.5540240000000 1.0
C      1  0.4838540000000  0.5348910000000  0.5550350000000 1.0
C      1  0.4694520000000  0.3916820000000  0.5126160000000 1.0
C      1  0.3775480000000  0.5248960000000  0.5192900000000 1.0
C      1  0.4417850000000  0.4887510000000  0.4170950000000 1.0
C      1  0.4608240000000  0.5250600000000  0.6021900000000 1.0
C      1  0.6030460000000  0.4968900000000  0.5528150000000 1.0
C      1  0.4852090000000  0.5766490000000  0.4244740000000 1.0
C      1  0.5423700000000  0.4403250000000  0.4884060000000 1.0
C      1  0.4108980000000  0.4715070000000  0.5281470000000 1.0
C      1  0.5544670000000  0.5270900000000  0.5495390000000 1.0
C      1  0.4816670000000  0.5560940000000  0.5311180000000 1.0
C      1  0.5031410000000  0.4323790000000  0.4071300000000 1.0
C      1  0.6075580000000  0.5063600000000  0.4372400000000 1.0
C      1  0.5781070000000  0.5077080000000  0.4436720000000 1.0
C      1  0.5402730000000  0.4652140000000  0.3972180000000 1.0
C      1  0.5356210000000  0.4664410000000  0.5992360000000 1.0
C      1  0.5353330000000  0.5015240000000  0.4799800000000 1.0
C      1  0.4504990000000  0.4304950000000  0.4813790000000 1.0
C      1  0.4665070000000  0.5596950000000  0.4603220000000 1.0
C      1  0.4656490000000  0.4571400000000  0.5264550000000 1.0
C      1  0.4100750000000  0.4594550000000  0.4974970000000 1.0
C      1  0.4431180000000  0.4308160000000  0.5299690000000 1.0
C      1  0.4078770000000  0.4636500000000  0.4514060000000 1.0
C      1  0.4150890000000  0.5109740000000  0.4678560000000 1.0
C      1  0.5277390000000  0.4350260000000  0.4600290000000 1.0
C      1  0.5241940000000  0.4946110000000  0.6012150000000 1.0
C      1  0.5890390000000  0.5577020000000  0.5161880000000 1.0
C      1  0.5020780000000  0.4694740000000  0.5027040000000 1.0
C      1  0.5780960000000  0.4193450000000  0.4744860000000 1.0
C      1  0.4774590000000  0.5296630000000  0.4906830000000 1.0
C      1  0.4347710000000  0.5139990000000  0.5927720000000 1.0
C      1  0.4858770000000  0.4266250000000  0.4901630000000 1.0
C      1  0.5013310000000  0.5007860000000  0.6160790000000 1.0
C      1  0.4345330000000  0.4863860000000  0.6041450000000 1.0
C      1  0.5797910000000  0.5804520000000  0.5296020000000 1.0
C      1  0.5650250000000  0.5582980000000  0.5781150000000 1.0
C      1  0.5786390000000  0.5012590000000  0.4747410000000 1.0
C      1  0.4904740000000  0.4455500000000  0.5135450000000 1.0
C      1  0.4783780000000  0.5377000000000  0.4444040000000 1.0
C      1  0.5403860000000  0.6150450000000  0.4748710000000 1.0
C      1  0.4740690000000  0.4284230000000  0.4073130000000 1.0
C      1  0.5005090000000  0.5187830000000  0.4012950000000 1.0
C      1  0.5388750000000  0.4096210000000  0.5002900000000 1.0
C      1  0.5232890000000  0.5400960000000  0.5103930000000 1.0
C      1  0.4895360000000  0.4505650000000  0.5854520000000 1.0
C      1  0.4360780000000  0.5143860000000  0.5608430000000 1.0
C      1  0.5631710000000  0.5754410000000  0.5536200000000 1.0
C      1  0.3880990000000  0.5341550000000  0.5441730000000 1.0
C      1  0.5487670000000  0.4400160000000  0.4378590000000 1.0
C      1  0.5004420000000  0.4975590000000  0.5432630000000 1.0
C      1  0.4601060000000  0.4229090000000  0.4349870000000 1.0
C      1  0.5038730000000  0.4086030000000  0.5452880000000 1.0
C      1  0.5338680000000  0.4906390000000  0.3848650000000 1.0
C      1  0.4448740000000  0.5968270000000  0.4997750000000 1.0
C      1  0.5163110000000  0.3971950000000  0.4404960000000 1.0
C      1  0.4320750000000  0.4213580000000  0.5037350000000 1.0
C      1  0.5493980000000  0.5012670000000  0.5292730000000 1.0
C      1  0.5450550000000  0.4620570000000  0.5095060000000 1.0
C      1  0.5463380000000  0.3990490000000  0.5550650000000 1.0
C      1  0.4633650000000  0.5341250000000  0.4194990000000 1.0
C      1  0.4582090000000  0.4524840000000  0.3974810000000 1.0
C      1  0.4161210000000  0.4360750000000  0.4541840000000 1.0
C      1  0.4863530000000  0.6054300000000  0.4257580000000 1.0
C      1  0.5908220000000  0.5438110000000  0.4743000000000 1.0
C      1  0.4362070000000  0.5444010000000  0.5516120000000 1.0
C      1  0.4849690000000  0.6110590000000  0.5213320000000 1.0
C      1  0.4780800000000  0.4761140000000  0.5516040000000 1.0
C      1  0.5036920000000  0.6015270000000  0.5001290000000 1.0
C      1  0.4073890000000  0.5746610000000  0.5246510000000 1.0
C      1  0.5833610000000  0.4338900000000  0.5010290000000 1.0
C      1  0.5491320000000  0.5995610000000  0.5557020000000 1.0
C      1  0.4662360000000  0.5073750000000  0.5623550000000 1.0
C      1  0.4461360000000  0.4726210000000  0.5813030000000 1.0
C      1  0.5312510000000  0.4730390000000  0.4695060000000 1.0
C      1  0.6167230000000  0.4874420000000  0.5075970000000 1.0
C      1  0.5583510000000  0.5950100000000  0.4830340000000 1.0
C      1  0.4588680000000  0.3929650000000  0.4834120000000 1.0
C      1  0.5471620000000  0.5337780000000  0.4098420000000 1.0
C      1  0.5678580000000  0.5297880000000  0.4893880000000 1.0
C      1  0.4310590000000  0.4292100000000  0.4301820000000 1.0
C      1  0.5033510000000  0.6116210000000  0.4475280000000 1.0
C      1  0.4208980000000  0.5798950000000  0.4984180000000 1.0
C      1  0.3952820000000  0.5435220000000  0.5059380000000 1.0
C      1  0.5653730000000  0.5004350000000  0.5834570000000 1.0
C      1  0.5282050000000  0.5097020000000  0.5078490000000 1.0
C      1  0.5280750000000  0.5963250000000  0.5731580000000 1.0
C      1  0.4573700000000  0.4055210000000  0.5364060000000 1.0
C      1  0.5405850000000  0.5549950000000  0.4894300000000 1.0
C      1  0.4803980000000  0.5626030000000  0.3994570000000 1.0
C      1  0.4698170000000  0.4367360000000  0.5697260000000 1.0
C      1  0.4851950000000  0.4970950000000  0.3874480000000 1.0
C      1  0.4383780000000  0.4624590000000  0.4852500000000 1.0
C      1  0.4387560000000  0.5186860000000  0.4213770000000 1.0
C      1  0.4586070000000  0.4773500000000  0.5022090000000 1.0
C      1  0.4671950000000  0.3988440000000  0.4550700000000 1.0
C      1  0.5763240000000  0.4197270000000  0.5267380000000 1.0
C      1  0.4958140000000  0.4419480000000  0.4655320000000 1.0
C      1  0.5046890000000  0.5845130000000  0.5816390000000 1.0
C      1  0.5121940000000  0.5656390000000  0.4383230000000 1.0
C      1  0.4777390000000  0.4876960000000  0.4701410000000 1.0
C      1  0.5590070000000  0.5379040000000  0.4391160000000 1.0
C      1  0.4238850000000  0.4373500000000  0.5525870000000 1.0
C      1  0.5071770000000  0.4832470000000  0.3739480000000 1.0
C      1  0.4612330000000  0.5947890000000  0.5248990000000 1.0
C      1  0.4463030000000  0.5763650000000  0.4447190000000 1.0
C      1  0.5193400000000  0.4474690000000  0.5798940000000 1.0
C      1  0.4711860000000  0.5503400000000  0.5903690000000 1.0
C      1  0.5300480000000  0.5495200000000  0.5402470000000 1.0
C      1  0.5550440000000  0.3983770000000  0.5258800000000 1.0
C      1  0.5445230000000  0.6074950000000  0.5273950000000 1.0
C      1  0.4495080000000  0.5275450000000  0.5048810000000 1.0
C      1  0.3911810000000  0.4701710000000  0.4752880000000 1.0
C      1  0.4755510000000  0.4765990000000  0.5902750000000 1.0
C      1  0.4747270000000  0.5077140000000  0.6213040000000 1.0
C      1  0.6161430000000  0.5070630000000  0.5291910000000 1.0
C      1  0.4275750000000  0.5574050000000  0.4799030000000 1.0
C      1  0.5303540000000  0.4963480000000  0.5575580000000 1.0
C      1  0.6104190000000  0.4987420000000  0.4808240000000 1.0
C      1  0.5363150000000  0.4486710000000  0.5352220000000 1.0
C      1  0.5395530000000  0.3933200000000  0.4550420000000 1.0
C      1  0.5330770000000  0.5433730000000  0.4574910000000 1.0
C      1  0.5112450000000  0.4328970000000  0.5298980000000 1.0
C      1  0.6132380000000  0.4827710000000  0.4545100000000 1.0
C      1  0.5091820000000  0.5782140000000  0.5385710000000 1.0
C      1  0.5036100000000  0.4956510000000  0.5147810000000 1.0
C      1  0.5680690000000  0.6006600000000  0.5108810000000 1.0
C      1  0.4051970000000  0.4295350000000  0.4967280000000 1.0
C      1  0.3726570000000  0.4764890000000  0.5221650000000 1.0
C      1  0.5132710000000  0.5349260000000  0.5625160000000 1.0
C      1  0.5887270000000  0.5126200000000  0.5732280000000 1.0
C      1  0.6054990000000  0.5591640000000  0.4931010000000 1.0
C      1  0.4199850000000  0.5291060000000  0.4425830000000 1.0
C      1  0.5475290000000  0.4206600000000  0.4157300000000 1.0
C      1  0.5901820000000  0.4726120000000  0.5449620000000 1.0
C      1  0.5038580000000  0.5550820000000  0.5877950000000 1.0
C      1  0.3833590000000  0.4993030000000  0.5079290000000 1.0
C      1  0.4083180000000  0.5547090000000  0.5463600000000 1.0
C      1  0.4322600000000  0.4514350000000  0.4110710000000 1.0
C      1  0.5798370000000  0.5581010000000  0.4508180000000 1.0
C      1  0.5208950000000  0.4123750000000  0.4169090000000 1.0
C      1  0.4975480000000  0.6138580000000  0.5465570000000 1.0
C      1  0.4947300000000  0.5466340000000  0.5060580000000 1.0
C      1  0.4270460000000  0.4963830000000  0.5361700000000 1.0
C      1  0.5813970000000  0.5343450000000  0.5310920000000 1.0
C      1  0.4985930000000  0.3894400000000  0.5200110000000 1.0
C      1  0.5439680000000  0.5150380000000  0.5952240000000 1.0
C      1  0.5089850000000  0.4032870000000  0.4966400000000 1.0
C      1  0.5201280000000  0.5149680000000  0.4587450000000 1.0
C      1  0.5261250000000  0.4962820000000  0.4336200000000 1.0
C      1  0.5553030000000  0.3995060000000  0.4771030000000 1.0
C      1  0.5761280000000  0.4377300000000  0.4508450000000 1.0
C      1  0.5864510000000  0.5404320000000  0.5742930000000 1.0
C      1  0.4724810000000  0.4468830000000  0.4475400000000 1.0
C      1  0.3883930000000  0.4987470000000  0.4786780000000 1.0
C      1  0.5109310000000  0.5860180000000  0.4591890000000 1.0
C      1  0.4838770000000  0.5995110000000  0.5673640000000 1.0
C      1  0.5017490000000  0.4694890000000  0.4747890000000 1.0
C      1  0.5629300000000  0.4716440000000  0.5863190000000 1.0
C      1  0.5029730000000  0.5460400000000  0.3909760000000 1.0
C      1  0.4676340000000  0.4798550000000  0.4041910000000 1.0
C      1  0.4207220000000  0.5316640000000  0.4910400000000 1.0
C      1  0.5405030000000  0.5444460000000  0.5909410000000 1.0
C      1  0.4323110000000  0.4798080000000  0.4595760000000 1.0
C      1  0.5146230000000  0.6233200000000  0.4820030000000 1.0
C      1  0.5281030000000  0.5099860000000  0.4071640000000 1.0
C      1  0.5308020000000  0.5558870000000  0.3994630000000 1.0
C      1  0.5445510000000  0.4704530000000  0.4272600000000 1.0
C      1  0.5308780000000  0.5765850000000  0.4184550000000 1.0
C      1  0.4568900000000  0.4851920000000  0.6232660000000 1.0
C      1  0.5271640000000  0.5843950000000  0.5122560000000 1.0
C      1  0.5882910000000  0.4648390000000  0.4501160000000 1.0
C      1  0.4617080000000  0.4751800000000  0.4476240000000 1.0
C      1  0.5595240000000  0.4346090000000  0.5492470000000 1.0
C      1  0.4895660000000  0.5818210000000  0.4805710000000 1.0
C      1  0.5729200000000  0.5826660000000  0.4625470000000 1.0
C      1  0.5719470000000  0.4709500000000  0.4980810000000 1.0
C      1  0.4522390000000  0.5473500000000  0.5268190000000 1.0
C      1  0.5791410000000  0.5084950000000  0.5174100000000 1.0
C      1  0.4606820000000  0.5956450000000  0.4736260000000 1.0
C      1  0.4418370000000  0.4444510000000  0.5746150000000 1.0
C      1  0.3860180000000  0.4653690000000  0.5457220000000 1.0
C      1  0.5751080000000  0.4560890000000  0.5634950000000 1.0
C      1  0.4523520000000  0.5623180000000  0.5694090000000 1.0
C      1  0.5717760000000  0.4808010000000  0.4315510000000 1.0
END
