TITL C-951347-9520-480 9.69940644683291e-07 125000 -433.587996480676 0 0 71 (C1) n - 1
REM
REM in /home/bkarasulu/work/CARBON/AIRSS/Generating-Clusters/EDIP-Nigel-Params/with-SteepDescent/Only-C1/SD-CG/HFTN-CG
REM
REM
REM
REM
REM
REM ./C.cell (11c1c37f851c82e70ff6c80c92926a4b)
REM
REM compiler GCC version 9.2.1 20190827 (Red Hat 9.2.1-1)
REM options -cpp -mtune=generic -march=x86-64 -g -O0 -fpre-include=/usr/include/finclude/math-vector-fortran.h
REM seed 899721613 2104567356 -1476993427 -1293125322 96092765 396203647 -39246447 -1350232805 -1560620330 -785125123 1469600757 1895298567 1946071115 -1618145466 -1304279695 828496875 868939260 -2103398226 -2091975959 -2131936032 319481887 2060080418 160127876 -462887990 649989554 -1563426140 1616478328 -124867057 1736709068 1747104430 -1096110710 2023623384 -1916014527
REM
CELL 1.54180   50.00000   50.00000   50.00000   90.00000   90.00000   90.00000
LATT -1
SFAC C  
C      1  0.5147840000000  0.5561490000000  0.4500180000000 1.0
C      1  0.4950080000000  0.5149620000000  0.5262710000000 1.0
C      1  0.4674740000000  0.4901290000000  0.4497020000000 1.0
C      1  0.5328710000000  0.4701960000000  0.5640490000000 1.0
C      1  0.5495930000000  0.5099550000000  0.5532790000000 1.0
C      1  0.5194280000000  0.5113490000000  0.5058130000000 1.0
C      1  0.5430250000000  0.4405520000000  0.5226400000000 1.0
C      1  0.5341320000000  0.5553880000000  0.4956780000000 1.0
C      1  0.5155050000000  0.5160090000000  0.4767610000000 1.0
C      1  0.5054010000000  0.5686980000000  0.5434030000000 1.0
C      1  0.4977430000000  0.4585760000000  0.4759980000000 1.0
C      1  0.4299130000000  0.4672880000000  0.5360700000000 1.0
C      1  0.4809610000000  0.4196690000000  0.5163790000000 1.0
C      1  0.5733310000000  0.5162260000000  0.4816530000000 1.0
C      1  0.4722880000000  0.5153890000000  0.5752730000000 1.0
C      1  0.5622930000000  0.4980490000000  0.4272350000000 1.0
C      1  0.4609590000000  0.4738180000000  0.4941590000000 1.0
C      1  0.4204560000000  0.4887730000000  0.5209330000000 1.0
C      1  0.4555620000000  0.4945460000000  0.5708290000000 1.0
C      1  0.4824590000000  0.4651760000000  0.4488460000000 1.0
C      1  0.4634770000000  0.4916130000000  0.5210550000000 1.0
C      1  0.4368250000000  0.5154270000000  0.4823090000000 1.0
C      1  0.5385460000000  0.4704140000000  0.4686900000000 1.0
C      1  0.4366360000000  0.4429190000000  0.5204510000000 1.0
C      1  0.4513140000000  0.5692760000000  0.5076780000000 1.0
C      1  0.5782540000000  0.4879560000000  0.4750190000000 1.0
C      1  0.5081780000000  0.5680730000000  0.4958650000000 1.0
C      1  0.5371930000000  0.4934190000000  0.4161800000000 1.0
C      1  0.4585750000000  0.4281210000000  0.5343750000000 1.0
C      1  0.4442590000000  0.4502880000000  0.4946160000000 1.0
C      1  0.4212960000000  0.5130460000000  0.5072690000000 1.0
C      1  0.4517860000000  0.4922470000000  0.4732070000000 1.0
C      1  0.4709620000000  0.5871620000000  0.5172680000000 1.0
C      1  0.5388440000000  0.5338170000000  0.5436100000000 1.0
C      1  0.5132940000000  0.5440260000000  0.5536950000000 1.0
C      1  0.5322600000000  0.5402760000000  0.4690420000000 1.0
C      1  0.4978010000000  0.5805170000000  0.5195530000000 1.0
C      1  0.4990140000000  0.4419980000000  0.5254920000000 1.0
C      1  0.4985030000000  0.4665380000000  0.4252550000000 1.0
C      1  0.4669320000000  0.4472180000000  0.5554880000000 1.0
C      1  0.5607020000000  0.5327770000000  0.4608270000000 1.0
C      1  0.5373130000000  0.4290390000000  0.4963970000000 1.0
C      1  0.4914460000000  0.4460380000000  0.5690220000000 1.0
C      1  0.5695630000000  0.4796560000000  0.4481310000000 1.0
C      1  0.4497720000000  0.4705760000000  0.5570620000000 1.0
C      1  0.4485420000000  0.5439850000000  0.5235000000000 1.0
C      1  0.5676600000000  0.5227440000000  0.5079720000000 1.0
C      1  0.4212410000000  0.5357730000000  0.5235990000000 1.0
C      1  0.5413160000000  0.5320490000000  0.5140640000000 1.0
C      1  0.5158270000000  0.4905220000000  0.4606280000000 1.0
C      1  0.5014050000000  0.5409130000000  0.4307100000000 1.0
C      1  0.4665750000000  0.5079280000000  0.4279540000000 1.0
C      1  0.5118470000000  0.4923990000000  0.4298310000000 1.0
C      1  0.5725530000000  0.4667590000000  0.4963610000000 1.0
C      1  0.4954420000000  0.5274790000000  0.5678990000000 1.0
C      1  0.5252940000000  0.4816640000000  0.5033110000000 1.0
C      1  0.5551260000000  0.4463280000000  0.4799950000000 1.0
C      1  0.4514490000000  0.5637390000000  0.4785360000000 1.0
C      1  0.5229260000000  0.4331130000000  0.5405450000000 1.0
C      1  0.4932910000000  0.5152010000000  0.4235090000000 1.0
C      1  0.5053040000000  0.4689280000000  0.5602240000000 1.0
C      1  0.4974380000000  0.4683340000000  0.5071830000000 1.0
C      1  0.4909200000000  0.4898620000000  0.5448080000000 1.0
C      1  0.5661450000000  0.5244690000000  0.4348080000000 1.0
C      1  0.4385760000000  0.5404660000000  0.4696740000000 1.0
C      1  0.4987820000000  0.5727670000000  0.4685030000000 1.0
C      1  0.5493840000000  0.4700090000000  0.5192860000000 1.0
C      1  0.4675050000000  0.5224230000000  0.5137210000000 1.0
C      1  0.5513280000000  0.4827100000000  0.5475920000000 1.0
C      1  0.5067600000000  0.4298080000000  0.4897800000000 1.0
C      1  0.4714350000000  0.5762900000000  0.4634590000000 1.0
END
