TITL C-951341-1326-465 -4.67685258738052e-07 125000 -863.637545503237 0 0 138 (C1) n - 1
REM
REM in /home/bkarasulu/work/CARBON/AIRSS/Generating-Clusters/EDIP-Nigel-Params/with-SteepDescent/Only-C1/SD-CG/HFTN-CG
REM
REM
REM
REM
REM
REM ./C.cell (11c1c37f851c82e70ff6c80c92926a4b)
REM
REM compiler GCC version 9.2.1 20190827 (Red Hat 9.2.1-1)
REM options -cpp -mtune=generic -march=x86-64 -g -O0 -fpre-include=/usr/include/finclude/math-vector-fortran.h
REM seed -140363377 1842806366 -1894128575 1502641328 -1183300110 813574363 -1469711184 408565440 763680328 522638632 -1126859926 -1160773198 -1364117497 1904356702 -463354488 1588806549 1095049930 -877649489 19630960 66228643 -1274703498 1272633339 191842281 -276532465 -797891004 1721421117 762505253 1759082830 -491856682 770982351 832087229 -866970981 -1796581563
REM
CELL 1.54180   50.00000   50.00000   50.00000   90.00000   90.00000   90.00000
LATT -1
SFAC C  
C      1  0.5326760000000  0.5116940000000  0.5900020000000 1.0
C      1  0.5564640000000  0.5309800000000  0.5521440000000 1.0
C      1  0.5043460000000  0.5394720000000  0.4026270000000 1.0
C      1  0.4944770000000  0.5553560000000  0.5321130000000 1.0
C      1  0.4468930000000  0.4897410000000  0.5150250000000 1.0
C      1  0.5797820000000  0.5624450000000  0.5000460000000 1.0
C      1  0.4878370000000  0.5980160000000  0.4883380000000 1.0
C      1  0.5231620000000  0.4933210000000  0.3915360000000 1.0
C      1  0.4642950000000  0.4593580000000  0.4207630000000 1.0
C      1  0.5244330000000  0.5626190000000  0.4912010000000 1.0
C      1  0.5306780000000  0.5637000000000  0.5763210000000 1.0
C      1  0.4681770000000  0.4879100000000  0.4953800000000 1.0
C      1  0.4804350000000  0.5970910000000  0.5356160000000 1.0
C      1  0.4219800000000  0.4855300000000  0.4535130000000 1.0
C      1  0.4581780000000  0.4894740000000  0.6033570000000 1.0
C      1  0.3922830000000  0.5240760000000  0.4978110000000 1.0
C      1  0.4531220000000  0.5629570000000  0.5012220000000 1.0
C      1  0.5695080000000  0.5033940000000  0.4512910000000 1.0
C      1  0.5341270000000  0.4618870000000  0.5731330000000 1.0
C      1  0.4924320000000  0.5928630000000  0.5782290000000 1.0
C      1  0.4137930000000  0.5392040000000  0.4884030000000 1.0
C      1  0.4807830000000  0.5251410000000  0.4148190000000 1.0
C      1  0.4521490000000  0.4377610000000  0.4774050000000 1.0
C      1  0.5858740000000  0.5224440000000  0.4663610000000 1.0
C      1  0.5848780000000  0.5079950000000  0.5385250000000 1.0
C      1  0.5069200000000  0.4370120000000  0.4123340000000 1.0
C      1  0.4855240000000  0.4648170000000  0.5079430000000 1.0
C      1  0.5319530000000  0.4211230000000  0.4766670000000 1.0
C      1  0.5941450000000  0.5034390000000  0.4881340000000 1.0
C      1  0.4369530000000  0.5400790000000  0.5798100000000 1.0
C      1  0.3861640000000  0.4779490000000  0.4985250000000 1.0
C      1  0.5370580000000  0.4085470000000  0.4347920000000 1.0
C      1  0.4383830000000  0.5005530000000  0.4353820000000 1.0
C      1  0.5130300000000  0.4745160000000  0.5074640000000 1.0
C      1  0.5459810000000  0.4879690000000  0.5775900000000 1.0
C      1  0.5092560000000  0.5621920000000  0.4216320000000 1.0
C      1  0.5347530000000  0.5315020000000  0.5303580000000 1.0
C      1  0.4757370000000  0.6095980000000  0.5101390000000 1.0
C      1  0.5112340000000  0.4497570000000  0.5844750000000 1.0
C      1  0.4380150000000  0.5033840000000  0.5640380000000 1.0
C      1  0.4511960000000  0.4857230000000  0.4127410000000 1.0
C      1  0.4981290000000  0.4838400000000  0.4054910000000 1.0
C      1  0.5231200000000  0.4441240000000  0.4578370000000 1.0
C      1  0.4927270000000  0.4430710000000  0.4599740000000 1.0
C      1  0.4946990000000  0.3965510000000  0.5381950000000 1.0
C      1  0.4372230000000  0.4596860000000  0.5640900000000 1.0
C      1  0.4575490000000  0.4775950000000  0.4677100000000 1.0
C      1  0.5523020000000  0.5878660000000  0.5327520000000 1.0
C      1  0.5728780000000  0.4305680000000  0.4869590000000 1.0
C      1  0.4875410000000  0.4869210000000  0.6091860000000 1.0
C      1  0.4134160000000  0.5237560000000  0.5560540000000 1.0
C      1  0.5360180000000  0.5548340000000  0.4374210000000 1.0
C      1  0.4224580000000  0.4604680000000  0.4692300000000 1.0
C      1  0.4286590000000  0.4656510000000  0.5178980000000 1.0
C      1  0.5445650000000  0.5836070000000  0.4825290000000 1.0
C      1  0.5732120000000  0.5020400000000  0.5100230000000 1.0
C      1  0.4689190000000  0.3991320000000  0.4902110000000 1.0
C      1  0.5437660000000  0.4329530000000  0.5025560000000 1.0
C      1  0.4846810000000  0.5158760000000  0.4942830000000 1.0
C      1  0.4785390000000  0.4668160000000  0.4471560000000 1.0
C      1  0.4283590000000  0.5431340000000  0.5365240000000 1.0
C      1  0.5941650000000  0.4747710000000  0.4772660000000 1.0
C      1  0.5393160000000  0.4636310000000  0.4986910000000 1.0
C      1  0.4529920000000  0.5609810000000  0.4724890000000 1.0
C      1  0.4667630000000  0.5896880000000  0.5612520000000 1.0
C      1  0.5640130000000  0.4272710000000  0.4546140000000 1.0
C      1  0.4567750000000  0.5041710000000  0.5399420000000 1.0
C      1  0.4811170000000  0.5652180000000  0.4343340000000 1.0
C      1  0.5174810000000  0.3935610000000  0.4751510000000 1.0
C      1  0.4998400000000  0.4874740000000  0.4391640000000 1.0
C      1  0.4451710000000  0.4403940000000  0.5207260000000 1.0
C      1  0.5087870000000  0.5104690000000  0.5357080000000 1.0
C      1  0.5393960000000  0.4693400000000  0.4687100000000 1.0
C      1  0.5108140000000  0.4182860000000  0.5459030000000 1.0
C      1  0.4986750000000  0.5739800000000  0.4792810000000 1.0
C      1  0.4583320000000  0.4142620000000  0.5144020000000 1.0
C      1  0.4854770000000  0.4967230000000  0.5505130000000 1.0
C      1  0.4441460000000  0.4691020000000  0.5898430000000 1.0
C      1  0.4575350000000  0.5596290000000  0.5651000000000 1.0
C      1  0.5222870000000  0.4916620000000  0.4591550000000 1.0
C      1  0.4607020000000  0.4113150000000  0.4637560000000 1.0
C      1  0.4808730000000  0.5571530000000  0.4631770000000 1.0
C      1  0.4865470000000  0.5480960000000  0.5648970000000 1.0
C      1  0.4593230000000  0.5452830000000  0.4210780000000 1.0
C      1  0.5867420000000  0.4553220000000  0.4975260000000 1.0
C      1  0.5443630000000  0.5371660000000  0.5783910000000 1.0
C      1  0.5603960000000  0.4769340000000  0.4160320000000 1.0
C      1  0.5369660000000  0.5866210000000  0.5572820000000 1.0
C      1  0.5456300000000  0.4496260000000  0.5499200000000 1.0
C      1  0.4562950000000  0.5335970000000  0.5357280000000 1.0
C      1  0.5223460000000  0.5578370000000  0.5218660000000 1.0
C      1  0.4897140000000  0.5284740000000  0.4665120000000 1.0
C      1  0.4945130000000  0.3872720000000  0.4899630000000 1.0
C      1  0.5148720000000  0.6062200000000  0.5618930000000 1.0
C      1  0.5668210000000  0.4660840000000  0.5409210000000 1.0
C      1  0.5684350000000  0.4548420000000  0.4376890000000 1.0
C      1  0.4382370000000  0.5304080000000  0.4379170000000 1.0
C      1  0.5018220000000  0.6164550000000  0.5380490000000 1.0
C      1  0.4579290000000  0.4434910000000  0.5478370000000 1.0
C      1  0.5629970000000  0.5854000000000  0.5060030000000 1.0
C      1  0.5295460000000  0.5211490000000  0.4560970000000 1.0
C      1  0.4986640000000  0.4616760000000  0.6059670000000 1.0
C      1  0.5357000000000  0.4278110000000  0.5333580000000 1.0
C      1  0.5456160000000  0.4760420000000  0.3921980000000 1.0
C      1  0.5700880000000  0.5477050000000  0.4751650000000 1.0
C      1  0.4856020000000  0.4164940000000  0.4454450000000 1.0
C      1  0.5418430000000  0.5359090000000  0.4812850000000 1.0
C      1  0.5103700000000  0.5031820000000  0.5070730000000 1.0
C      1  0.4092930000000  0.4628350000000  0.4954940000000 1.0
C      1  0.4881610000000  0.5136750000000  0.4415220000000 1.0
C      1  0.4883450000000  0.4551710000000  0.4027160000000 1.0
C      1  0.5663940000000  0.5048000000000  0.4238220000000 1.0
C      1  0.4156440000000  0.4709740000000  0.5445910000000 1.0
C      1  0.4686530000000  0.4068590000000  0.5398750000000 1.0
C      1  0.4836820000000  0.5184310000000  0.5753120000000 1.0
C      1  0.5024880000000  0.5652370000000  0.5845010000000 1.0
C      1  0.5663610000000  0.4722880000000  0.5121760000000 1.0
C      1  0.3885370000000  0.5013310000000  0.5135250000000 1.0
C      1  0.5459790000000  0.5179080000000  0.5049580000000 1.0
C      1  0.4824260000000  0.4624780000000  0.5408850000000 1.0
C      1  0.4971920000000  0.4356420000000  0.5643110000000 1.0
C      1  0.4254940000000  0.5554000000000  0.5097330000000 1.0
C      1  0.5293410000000  0.4359460000000  0.4291080000000 1.0
C      1  0.5113800000000  0.3966870000000  0.4461970000000 1.0
C      1  0.5026430000000  0.5106250000000  0.5973700000000 1.0
C      1  0.5859070000000  0.5377230000000  0.5450960000000 1.0
C      1  0.5919710000000  0.5518740000000  0.5223690000000 1.0
C      1  0.5282190000000  0.5220870000000  0.3986140000000 1.0
C      1  0.5465310000000  0.5271860000000  0.4214410000000 1.0
C      1  0.4734880000000  0.5428780000000  0.5133720000000 1.0
C      1  0.4555580000000  0.5147190000000  0.5873940000000 1.0
C      1  0.4327230000000  0.5417140000000  0.4650780000000 1.0
C      1  0.4809850000000  0.4420190000000  0.4884300000000 1.0
C      1  0.5562280000000  0.5699510000000  0.4565990000000 1.0
C      1  0.5684880000000  0.4900700000000  0.5576620000000 1.0
C      1  0.4733550000000  0.5008390000000  0.3989650000000 1.0
C      1  0.4010450000000  0.4982470000000  0.5406500000000 1.0
C      1  0.5696330000000  0.4751500000000  0.4596820000000 1.0
END
