TITL C-950531-5884-490 -4.77016312743534e-07 125000 -579.172738768803 0 0 94 (C1) n - 1
REM
REM in /home/bkarasulu/work/CARBON/AIRSS/Generating-Clusters/EDIP-Nigel-Params/with-SteepDescent/Only-C1/SD-CG/HFTN-CG
REM
REM
REM
REM
REM
REM ./C.cell (11c1c37f851c82e70ff6c80c92926a4b)
REM
REM compiler GCC version 9.2.1 20190827 (Red Hat 9.2.1-1)
REM options -cpp -mtune=generic -march=x86-64 -g -O0 -fpre-include=/usr/include/finclude/math-vector-fortran.h
REM seed 1795918602 -1231635127 -1954469384 -1710219508 -1602979563 133757636 1314087188 -292010072 -970774957 1671051285 855446478 1478557363 195332119 31348002 81978318 -1766948274 2084356417 850595693 1459590982 1507642120 121458036 848519239 524233902 -434639210 -1358656406 1968360577 919027189 -1438952785 401898385 312682956 119341784 1502974645 -507361198
REM
CELL 1.54180   50.00000   50.00000   50.00000   90.00000   90.00000   90.00000
LATT -1
SFAC C  
C      1  0.4588850000000  0.5020190000000  0.5499500000000 1.0
C      1  0.5646570000000  0.5403360000000  0.4920870000000 1.0
C      1  0.4779410000000  0.4065600000000  0.5277180000000 1.0
C      1  0.5059050000000  0.4102170000000  0.4848100000000 1.0
C      1  0.5426360000000  0.5855720000000  0.5008830000000 1.0
C      1  0.5586760000000  0.5241760000000  0.4477790000000 1.0
C      1  0.4409090000000  0.4997920000000  0.5251240000000 1.0
C      1  0.5341360000000  0.5394270000000  0.5059640000000 1.0
C      1  0.5357480000000  0.4839540000000  0.5075250000000 1.0
C      1  0.4976850000000  0.5262310000000  0.5976880000000 1.0
C      1  0.5182620000000  0.5413620000000  0.4406810000000 1.0
C      1  0.4155240000000  0.5495060000000  0.4915940000000 1.0
C      1  0.4213570000000  0.5406990000000  0.5416390000000 1.0
C      1  0.5694880000000  0.5022040000000  0.4620990000000 1.0
C      1  0.5138840000000  0.4536330000000  0.5681170000000 1.0
C      1  0.5127120000000  0.4968430000000  0.5176710000000 1.0
C      1  0.4471980000000  0.5513400000000  0.5426820000000 1.0
C      1  0.5811760000000  0.4672690000000  0.4996190000000 1.0
C      1  0.5184870000000  0.4768670000000  0.4177820000000 1.0
C      1  0.4872770000000  0.4605230000000  0.5663000000000 1.0
C      1  0.5439480000000  0.5168070000000  0.4239030000000 1.0
C      1  0.4285590000000  0.5235830000000  0.4829650000000 1.0
C      1  0.5062010000000  0.5042930000000  0.4223920000000 1.0
C      1  0.5556410000000  0.4538290000000  0.5414540000000 1.0
C      1  0.5249980000000  0.4635450000000  0.4898010000000 1.0
C      1  0.5681970000000  0.4538690000000  0.4772810000000 1.0
C      1  0.5373470000000  0.5513400000000  0.5649480000000 1.0
C      1  0.4267280000000  0.4726490000000  0.5146020000000 1.0
C      1  0.5084530000000  0.4323330000000  0.4427590000000 1.0
C      1  0.5010750000000  0.4161930000000  0.5136770000000 1.0
C      1  0.4376800000000  0.5270120000000  0.4399000000000 1.0
C      1  0.4485780000000  0.5679810000000  0.4679670000000 1.0
C      1  0.5602890000000  0.5397760000000  0.5527780000000 1.0
C      1  0.4758540000000  0.4710520000000  0.4442070000000 1.0
C      1  0.4766970000000  0.4483470000000  0.4746750000000 1.0
C      1  0.5601220000000  0.5103910000000  0.5535390000000 1.0
C      1  0.4414130000000  0.4505630000000  0.5016460000000 1.0
C      1  0.4968320000000  0.5210950000000  0.4772780000000 1.0
C      1  0.4039180000000  0.5140070000000  0.5030240000000 1.0
C      1  0.4374800000000  0.5678830000000  0.4953350000000 1.0
C      1  0.5351050000000  0.4969030000000  0.5636200000000 1.0
C      1  0.5096830000000  0.5070070000000  0.5454750000000 1.0
C      1  0.5447810000000  0.4398750000000  0.4914990000000 1.0
C      1  0.5595420000000  0.5492920000000  0.4627100000000 1.0
C      1  0.5100110000000  0.5580590000000  0.5623790000000 1.0
C      1  0.5288200000000  0.5044430000000  0.5914870000000 1.0
C      1  0.5734340000000  0.5120070000000  0.4888730000000 1.0
C      1  0.4264260000000  0.4821050000000  0.4678190000000 1.0
C      1  0.4337040000000  0.5525760000000  0.4498900000000 1.0
C      1  0.5338090000000  0.5618190000000  0.4573910000000 1.0
C      1  0.4888380000000  0.4231040000000  0.4634370000000 1.0
C      1  0.5259590000000  0.4769360000000  0.4625850000000 1.0
C      1  0.4649850000000  0.4417950000000  0.5164010000000 1.0
C      1  0.4893530000000  0.5404030000000  0.5739070000000 1.0
C      1  0.5238160000000  0.5753590000000  0.4819320000000 1.0
C      1  0.4204670000000  0.5062150000000  0.4499020000000 1.0
C      1  0.5653160000000  0.4914670000000  0.5077270000000 1.0
C      1  0.4683890000000  0.4783130000000  0.4165290000000 1.0
C      1  0.4564750000000  0.5630520000000  0.5176370000000 1.0
C      1  0.5694040000000  0.5536790000000  0.5281870000000 1.0
C      1  0.4832050000000  0.5744540000000  0.5160530000000 1.0
C      1  0.5049320000000  0.5402260000000  0.5005650000000 1.0
C      1  0.4925640000000  0.5337180000000  0.5303410000000 1.0
C      1  0.5071740000000  0.4627620000000  0.4420200000000 1.0
C      1  0.5432150000000  0.5646540000000  0.5201690000000 1.0
C      1  0.4155760000000  0.5155500000000  0.5310230000000 1.0
C      1  0.5190940000000  0.5077450000000  0.4587030000000 1.0
C      1  0.5028470000000  0.5705480000000  0.5372690000000 1.0
C      1  0.4742110000000  0.5031220000000  0.4844190000000 1.0
C      1  0.4620600000000  0.4950290000000  0.4593970000000 1.0
C      1  0.5816060000000  0.4949180000000  0.5424910000000 1.0
C      1  0.5245190000000  0.4178680000000  0.5288100000000 1.0
C      1  0.4606850000000  0.4256670000000  0.5411110000000 1.0
C      1  0.4942630000000  0.5754040000000  0.4877800000000 1.0
C      1  0.5819010000000  0.4661850000000  0.5378670000000 1.0
C      1  0.4527120000000  0.5150140000000  0.5004000000000 1.0
C      1  0.4456870000000  0.4564540000000  0.4733090000000 1.0
C      1  0.5036590000000  0.4996270000000  0.6020040000000 1.0
C      1  0.5471990000000  0.4325580000000  0.5218090000000 1.0
C      1  0.4831830000000  0.4847250000000  0.5483830000000 1.0
C      1  0.5568420000000  0.4753350000000  0.4549580000000 1.0
C      1  0.4774700000000  0.5647030000000  0.4656830000000 1.0
C      1  0.4890630000000  0.4787860000000  0.5178870000000 1.0
C      1  0.5336230000000  0.4206960000000  0.4477660000000 1.0
C      1  0.5461810000000  0.4860300000000  0.4231860000000 1.0
C      1  0.4874950000000  0.5388290000000  0.4535840000000 1.0
C      1  0.4680270000000  0.5313910000000  0.5519710000000 1.0
C      1  0.4963240000000  0.4569780000000  0.4985830000000 1.0
C      1  0.4658170000000  0.5186340000000  0.4405650000000 1.0
C      1  0.5373550000000  0.4665010000000  0.5614550000000 1.0
C      1  0.5335320000000  0.4168460000000  0.4757190000000 1.0
C      1  0.4700040000000  0.4390140000000  0.5635310000000 1.0
C      1  0.4099680000000  0.4852690000000  0.4934830000000 1.0
C      1  0.4771330000000  0.5052720000000  0.4164730000000 1.0
END
