TITL C-950523-3027-281 -2.31996739683808e-06 125000 -875.955259304908 0 0 139 (C1) n - 1
REM
REM in /home/bkarasulu/work/CARBON/AIRSS/Generating-Clusters/EDIP-Nigel-Params/with-SteepDescent/Only-C1/SD-CG/HFTN-CG
REM
REM
REM
REM
REM
REM ./C.cell (11c1c37f851c82e70ff6c80c92926a4b)
REM
REM compiler GCC version 9.2.1 20190827 (Red Hat 9.2.1-1)
REM options -cpp -mtune=generic -march=x86-64 -g -O0 -fpre-include=/usr/include/finclude/math-vector-fortran.h
REM seed -1921617416 602540707 -97802962 -1110035914 -1016353336 -45418912 -1638034693 1034759513 1214152185 -1628045785 -397774830 -83918284 271229402 -139513752 -1790599159 -988335723 806125142 385866935 78221626 1760313936 -805425954 640230341 1720519439 593647193 1725652960 -2028143691 -1717780124 720880944 -1619402184 1521928667 -382442785 -178170432 470382185
REM
CELL 1.54180   50.00000   50.00000   50.00000   90.00000   90.00000   90.00000
LATT -1
SFAC C  
C      1  0.4809270000000  0.5606440000000  0.4768510000000 1.0
C      1  0.4943340000000  0.5263400000000  0.5838070000000 1.0
C      1  0.5482850000000  0.5465380000000  0.4405310000000 1.0
C      1  0.4604430000000  0.4409950000000  0.5534380000000 1.0
C      1  0.4730210000000  0.5862660000000  0.4609950000000 1.0
C      1  0.4040570000000  0.5410730000000  0.4859160000000 1.0
C      1  0.4506890000000  0.4369520000000  0.4634890000000 1.0
C      1  0.4992760000000  0.6023460000000  0.5272570000000 1.0
C      1  0.5032410000000  0.5484680000000  0.5668460000000 1.0
C      1  0.5180510000000  0.4810180000000  0.5024910000000 1.0
C      1  0.5170300000000  0.5090290000000  0.5363010000000 1.0
C      1  0.5406310000000  0.4512040000000  0.4282990000000 1.0
C      1  0.4958770000000  0.4055400000000  0.5101250000000 1.0
C      1  0.4038560000000  0.4419670000000  0.4515850000000 1.0
C      1  0.5439280000000  0.5120370000000  0.5878660000000 1.0
C      1  0.6057680000000  0.5333990000000  0.4969410000000 1.0
C      1  0.4572470000000  0.5641840000000  0.5685980000000 1.0
C      1  0.5163290000000  0.4069180000000  0.4597670000000 1.0
C      1  0.5847950000000  0.5502710000000  0.5045680000000 1.0
C      1  0.5297760000000  0.4841120000000  0.5503030000000 1.0
C      1  0.4641120000000  0.5244180000000  0.4218970000000 1.0
C      1  0.4117000000000  0.4932510000000  0.4287330000000 1.0
C      1  0.4171900000000  0.5004640000000  0.4566180000000 1.0
C      1  0.5245170000000  0.4346690000000  0.5803670000000 1.0
C      1  0.5739390000000  0.5242530000000  0.5495250000000 1.0
C      1  0.5496730000000  0.5300100000000  0.5656870000000 1.0
C      1  0.5708360000000  0.5427560000000  0.4597590000000 1.0
C      1  0.5581430000000  0.5151640000000  0.5090690000000 1.0
C      1  0.5946750000000  0.4609810000000  0.4801240000000 1.0
C      1  0.4278300000000  0.4294850000000  0.5190110000000 1.0
C      1  0.4101620000000  0.4405940000000  0.5000570000000 1.0
C      1  0.5598450000000  0.5044720000000  0.4186720000000 1.0
C      1  0.5253880000000  0.4295500000000  0.4416880000000 1.0
C      1  0.5132300000000  0.5182910000000  0.4181000000000 1.0
C      1  0.4989140000000  0.6011740000000  0.4575380000000 1.0
C      1  0.5119000000000  0.6104850000000  0.4829690000000 1.0
C      1  0.6111320000000  0.5000090000000  0.5270080000000 1.0
C      1  0.3923550000000  0.5221620000000  0.5037650000000 1.0
C      1  0.5591070000000  0.5179590000000  0.4767250000000 1.0
C      1  0.4845990000000  0.4802010000000  0.4301530000000 1.0
C      1  0.4294560000000  0.5205540000000  0.5151140000000 1.0
C      1  0.5351170000000  0.5065150000000  0.4625780000000 1.0
C      1  0.5833070000000  0.5056020000000  0.4609120000000 1.0
C      1  0.5550460000000  0.4377710000000  0.5764040000000 1.0
C      1  0.4146900000000  0.5661470000000  0.4933880000000 1.0
C      1  0.4013070000000  0.4538860000000  0.4768030000000 1.0
C      1  0.5300400000000  0.4676170000000  0.5991170000000 1.0
C      1  0.4592180000000  0.4964050000000  0.4322280000000 1.0
C      1  0.4202520000000  0.4734480000000  0.5428130000000 1.0
C      1  0.4907380000000  0.5365510000000  0.4287420000000 1.0
C      1  0.4554220000000  0.5234850000000  0.4975100000000 1.0
C      1  0.5970950000000  0.4507570000000  0.5396710000000 1.0
C      1  0.4125340000000  0.5305340000000  0.4604060000000 1.0
C      1  0.5090650000000  0.5172650000000  0.4737570000000 1.0
C      1  0.5909940000000  0.4996070000000  0.5461350000000 1.0
C      1  0.5286840000000  0.5619530000000  0.4557540000000 1.0
C      1  0.4919950000000  0.6185980000000  0.5035290000000 1.0
C      1  0.4752890000000  0.4296210000000  0.4495420000000 1.0
C      1  0.5712090000000  0.4209290000000  0.4639980000000 1.0
C      1  0.5364720000000  0.5712410000000  0.5401700000000 1.0
C      1  0.5094210000000  0.4183280000000  0.5578430000000 1.0
C      1  0.4923160000000  0.5548900000000  0.5067890000000 1.0
C      1  0.4601610000000  0.4463330000000  0.4929870000000 1.0
C      1  0.5726420000000  0.4893940000000  0.4381660000000 1.0
C      1  0.4900820000000  0.4589510000000  0.5357120000000 1.0
C      1  0.3997440000000  0.4831730000000  0.4758820000000 1.0
C      1  0.4426140000000  0.5416140000000  0.4251740000000 1.0
C      1  0.4330830000000  0.4458840000000  0.5424460000000 1.0
C      1  0.5152770000000  0.5123600000000  0.5988150000000 1.0
C      1  0.5586990000000  0.4227060000000  0.5515010000000 1.0
C      1  0.5097100000000  0.4625820000000  0.5572610000000 1.0
C      1  0.5590430000000  0.4676020000000  0.4939600000000 1.0
C      1  0.5585390000000  0.4650260000000  0.4478950000000 1.0
C      1  0.4925040000000  0.5374300000000  0.4593240000000 1.0
C      1  0.5267480000000  0.4702260000000  0.4124560000000 1.0
C      1  0.5384680000000  0.5670650000000  0.4846820000000 1.0
C      1  0.5315820000000  0.5531620000000  0.5614190000000 1.0
C      1  0.4906880000000  0.5064630000000  0.5249340000000 1.0
C      1  0.4720030000000  0.5102000000000  0.5776560000000 1.0
C      1  0.4767250000000  0.4001370000000  0.4891800000000 1.0
C      1  0.4652010000000  0.6169920000000  0.4949760000000 1.0
C      1  0.4518290000000  0.5979500000000  0.4793500000000 1.0
C      1  0.5352550000000  0.5313150000000  0.5236660000000 1.0
C      1  0.4304960000000  0.4911890000000  0.5635140000000 1.0
C      1  0.4977140000000  0.4744950000000  0.4559250000000 1.0
C      1  0.5269880000000  0.4058060000000  0.4877460000000 1.0
C      1  0.4566490000000  0.5427430000000  0.4739240000000 1.0
C      1  0.4245040000000  0.4877100000000  0.5166410000000 1.0
C      1  0.5131030000000  0.5811470000000  0.4399740000000 1.0
C      1  0.5683620000000  0.5609440000000  0.4828770000000 1.0
C      1  0.4727570000000  0.4837230000000  0.5320100000000 1.0
C      1  0.4218330000000  0.5177250000000  0.5623140000000 1.0
C      1  0.5446610000000  0.4837450000000  0.5784090000000 1.0
C      1  0.5058030000000  0.4897290000000  0.4115470000000 1.0
C      1  0.4857870000000  0.4157120000000  0.5379970000000 1.0
C      1  0.4533530000000  0.4768540000000  0.5062590000000 1.0
C      1  0.4569190000000  0.4235430000000  0.5125260000000 1.0
C      1  0.5791630000000  0.4473400000000  0.4599750000000 1.0
C      1  0.5574530000000  0.4385310000000  0.5061650000000 1.0
C      1  0.5062500000000  0.4847240000000  0.6063450000000 1.0
C      1  0.4911190000000  0.5671990000000  0.4241380000000 1.0
C      1  0.4406640000000  0.5767850000000  0.4969910000000 1.0
C      1  0.6106190000000  0.5062780000000  0.5001980000000 1.0
C      1  0.4860170000000  0.4033630000000  0.4609400000000 1.0
C      1  0.4946300000000  0.4926120000000  0.4800920000000 1.0
C      1  0.4661140000000  0.5788580000000  0.4331290000000 1.0
C      1  0.4976440000000  0.4459900000000  0.4624870000000 1.0
C      1  0.5283140000000  0.5945380000000  0.5252440000000 1.0
C      1  0.4939180000000  0.4644370000000  0.5836170000000 1.0
C      1  0.5485320000000  0.4866260000000  0.5156330000000 1.0
C      1  0.4359760000000  0.4825900000000  0.4186380000000 1.0
C      1  0.4409730000000  0.5609080000000  0.5457300000000 1.0
C      1  0.4372840000000  0.4544180000000  0.4181570000000 1.0
C      1  0.5707740000000  0.5462400000000  0.5300650000000 1.0
C      1  0.4781300000000  0.5297870000000  0.5144660000000 1.0
C      1  0.4825920000000  0.5768810000000  0.5290820000000 1.0
C      1  0.4314800000000  0.5333570000000  0.5415240000000 1.0
C      1  0.5674610000000  0.4656300000000  0.5751630000000 1.0
C      1  0.4305140000000  0.4465000000000  0.4443600000000 1.0
C      1  0.5846070000000  0.4719840000000  0.5529410000000 1.0
C      1  0.5395320000000  0.4749780000000  0.4698560000000 1.0
C      1  0.4599250000000  0.4881930000000  0.5627170000000 1.0
C      1  0.5954880000000  0.4894970000000  0.4820320000000 1.0
C      1  0.4352400000000  0.5465540000000  0.4518290000000 1.0
C      1  0.5320530000000  0.4167180000000  0.5403670000000 1.0
C      1  0.4656720000000  0.4617350000000  0.5750050000000 1.0
C      1  0.4471370000000  0.4953230000000  0.4598770000000 1.0
C      1  0.5571180000000  0.4149950000000  0.4871760000000 1.0
C      1  0.4831870000000  0.5670300000000  0.5576600000000 1.0
C      1  0.5339440000000  0.5948470000000  0.4956430000000 1.0
C      1  0.5071200000000  0.4544170000000  0.5115110000000 1.0
C      1  0.5391850000000  0.5185920000000  0.4333460000000 1.0
C      1  0.4627380000000  0.4968390000000  0.4853980000000 1.0
C      1  0.4521700000000  0.5781140000000  0.5240290000000 1.0
C      1  0.5756280000000  0.4346450000000  0.5305800000000 1.0
C      1  0.3973270000000  0.4933150000000  0.5028350000000 1.0
C      1  0.5217810000000  0.5481810000000  0.5027780000000 1.0
C      1  0.5290730000000  0.4328770000000  0.5158470000000 1.0
C      1  0.4894460000000  0.4445920000000  0.4906890000000 1.0
END
