TITL C-951348-1603-549 -3.62202808358099e-07 125000 -408.304288738492 0 0 66 (C1) n - 1
REM
REM in /home/bkarasulu/work/CARBON/AIRSS/Generating-Clusters/EDIP-Nigel-Params/with-SteepDescent/Only-C1/SD-CG/HFTN-CG
REM
REM
REM
REM
REM
REM ./C.cell (11c1c37f851c82e70ff6c80c92926a4b)
REM
REM compiler GCC version 9.2.1 20190827 (Red Hat 9.2.1-1)
REM options -cpp -mtune=generic -march=x86-64 -g -O0 -fpre-include=/usr/include/finclude/math-vector-fortran.h
REM seed 1601821402 1142844639 -1684562069 418808791 44144215 870826476 724497429 -1900164854 1964355408 2035126889 47731508 -1025246838 -1521563490 2132984266 -2054530325 778067418 486288170 399080328 1694226455 -119056299 -1056373949 663719646 731842228 735362443 1006210004 1572738376 -384547544 -1554492839 1114721395 -1958339884 -155182160 -1374489660 -2019205178
REM
CELL 1.54180   50.00000   50.00000   50.00000   90.00000   90.00000   90.00000
LATT -1
SFAC C  
C      1  0.5412800000000  0.5161860000000  0.4601260000000 1.0
C      1  0.4729590000000  0.5437340000000  0.4741770000000 1.0
C      1  0.4552560000000  0.4466000000000  0.4943540000000 1.0
C      1  0.5071690000000  0.4463900000000  0.4950730000000 1.0
C      1  0.4972640000000  0.4552580000000  0.4331800000000 1.0
C      1  0.4551850000000  0.5203930000000  0.4713860000000 1.0
C      1  0.4635840000000  0.4490450000000  0.5469980000000 1.0
C      1  0.5397500000000  0.4773040000000  0.4380580000000 1.0
C      1  0.4812560000000  0.4271130000000  0.5483260000000 1.0
C      1  0.5281420000000  0.4822420000000  0.5423780000000 1.0
C      1  0.4229030000000  0.5245620000000  0.5078170000000 1.0
C      1  0.4852510000000  0.5099170000000  0.4288420000000 1.0
C      1  0.5650250000000  0.4669730000000  0.5068110000000 1.0
C      1  0.5471130000000  0.5570530000000  0.5210400000000 1.0
C      1  0.4268990000000  0.5229020000000  0.4790380000000 1.0
C      1  0.5312970000000  0.5237540000000  0.4317990000000 1.0
C      1  0.4746560000000  0.4492880000000  0.4510720000000 1.0
C      1  0.4977010000000  0.4910670000000  0.4665460000000 1.0
C      1  0.4644500000000  0.5006870000000  0.4497000000000 1.0
C      1  0.4508400000000  0.5237180000000  0.5517450000000 1.0
C      1  0.5465960000000  0.4318750000000  0.5248300000000 1.0
C      1  0.5005470000000  0.4883840000000  0.4162460000000 1.0
C      1  0.5661790000000  0.4380220000000  0.5051360000000 1.0
C      1  0.4557070000000  0.4588160000000  0.5208020000000 1.0
C      1  0.4975100000000  0.5753250000000  0.4981070000000 1.0
C      1  0.4489630000000  0.5317840000000  0.5216430000000 1.0
C      1  0.5060890000000  0.4385020000000  0.5420790000000 1.0
C      1  0.5185980000000  0.4288410000000  0.5179520000000 1.0
C      1  0.4803390000000  0.4379020000000  0.4797780000000 1.0
C      1  0.5031320000000  0.5335680000000  0.4357220000000 1.0
C      1  0.5199380000000  0.5572260000000  0.5619930000000 1.0
C      1  0.5021880000000  0.4681810000000  0.5373950000000 1.0
C      1  0.5710660000000  0.5164950000000  0.4954450000000 1.0
C      1  0.4433230000000  0.4681550000000  0.4791270000000 1.0
C      1  0.5401570000000  0.5521240000000  0.4925550000000 1.0
C      1  0.5205370000000  0.5041180000000  0.5608160000000 1.0
C      1  0.5518280000000  0.5083370000000  0.5156640000000 1.0
C      1  0.5531840000000  0.4686020000000  0.5344870000000 1.0
C      1  0.5010680000000  0.5406860000000  0.4657320000000 1.0
C      1  0.5544550000000  0.4895580000000  0.4607990000000 1.0
C      1  0.4745920000000  0.4860280000000  0.4913380000000 1.0
C      1  0.4707200000000  0.5646370000000  0.4942470000000 1.0
C      1  0.4974310000000  0.5514070000000  0.5265400000000 1.0
C      1  0.5456560000000  0.4756640000000  0.4859050000000 1.0
C      1  0.5290720000000  0.4967600000000  0.4181830000000 1.0
C      1  0.4709360000000  0.4761940000000  0.5589980000000 1.0
C      1  0.4710680000000  0.5145830000000  0.5067980000000 1.0
C      1  0.4551790000000  0.5595750000000  0.5169360000000 1.0
C      1  0.5573160000000  0.5337850000000  0.4777660000000 1.0
C      1  0.5008100000000  0.4736960000000  0.5071620000000 1.0
C      1  0.4431300000000  0.4845680000000  0.5228330000000 1.0
C      1  0.4552910000000  0.4719620000000  0.4535520000000 1.0
C      1  0.5152380000000  0.4678660000000  0.4533520000000 1.0
C      1  0.4224090000000  0.4958030000000  0.5064000000000 1.0
C      1  0.4967340000000  0.5201400000000  0.5222970000000 1.0
C      1  0.4890790000000  0.5551790000000  0.5573250000000 1.0
C      1  0.5356900000000  0.5299100000000  0.5594970000000 1.0
C      1  0.5150170000000  0.5139530000000  0.4758810000000 1.0
C      1  0.5199960000000  0.5057350000000  0.5056810000000 1.0
C      1  0.4770220000000  0.5296940000000  0.5658710000000 1.0
C      1  0.5537630000000  0.5315530000000  0.5352760000000 1.0
C      1  0.5279780000000  0.4535160000000  0.4762980000000 1.0
C      1  0.4492660000000  0.4943550000000  0.5492630000000 1.0
C      1  0.5164400000000  0.5635380000000  0.4791220000000 1.0
C      1  0.4922540000000  0.5077850000000  0.5511780000000 1.0
C      1  0.5285320000000  0.5714270000000  0.5375260000000 1.0
END
