TITL C-951348-1603-333 1.90002420671297e-08 125000 -268.193127968809 0 0 45 (C1) n - 1
REM
REM in /home/bkarasulu/work/CARBON/AIRSS/Generating-Clusters/EDIP-Nigel-Params/with-SteepDescent/Only-C1/SD-CG/HFTN-CG
REM
REM
REM
REM
REM
REM ./C.cell (11c1c37f851c82e70ff6c80c92926a4b)
REM
REM compiler GCC version 9.2.1 20190827 (Red Hat 9.2.1-1)
REM options -cpp -mtune=generic -march=x86-64 -g -O0 -fpre-include=/usr/include/finclude/math-vector-fortran.h
REM seed 696088934 957435347 825418975 1143391237 483126681 340579855 -1420770047 141871877 1316980356 -302106645 -1285968461 -77707490 -631174527 -1749977241 112764107 -58623101 -264602746 802973206 1991521130 -1568469372 1695760888 1456155490 1709825393 1717952101 1316258245 205257683 -304946489 529730783 -219602883 -1976632426 2103990187 -1552567785 -737560353
REM
CELL 1.54180   50.00000   50.00000   50.00000   90.00000   90.00000   90.00000
LATT -1
SFAC C  
C      1  0.4914690000000  0.4570560000000  0.5440780000000 1.0
C      1  0.4829220000000  0.5012750000000  0.4813540000000 1.0
C      1  0.4816290000000  0.4817140000000  0.5288700000000 1.0
C      1  0.5566080000000  0.5091640000000  0.5492650000000 1.0
C      1  0.5279910000000  0.4832420000000  0.4676540000000 1.0
C      1  0.5141800000000  0.4695540000000  0.5591940000000 1.0
C      1  0.4978720000000  0.4857670000000  0.4583530000000 1.0
C      1  0.5014810000000  0.5597620000000  0.4730280000000 1.0
C      1  0.4471050000000  0.5463290000000  0.4765490000000 1.0
C      1  0.5551110000000  0.4836100000000  0.5079180000000 1.0
C      1  0.5219930000000  0.5448480000000  0.5430790000000 1.0
C      1  0.4468510000000  0.5148980000000  0.5104670000000 1.0
C      1  0.5489780000000  0.5050800000000  0.4650610000000 1.0
C      1  0.5569330000000  0.4836550000000  0.5372040000000 1.0
C      1  0.5016190000000  0.5472620000000  0.4993890000000 1.0
C      1  0.5402780000000  0.4646910000000  0.5496700000000 1.0
C      1  0.4896610000000  0.5045240000000  0.4358230000000 1.0
C      1  0.5031110000000  0.5175350000000  0.4957800000000 1.0
C      1  0.5040190000000  0.5291060000000  0.4345780000000 1.0
C      1  0.5434690000000  0.5328510000000  0.4738050000000 1.0
C      1  0.4940650000000  0.5506350000000  0.5497300000000 1.0
C      1  0.4761710000000  0.5532980000000  0.5158810000000 1.0
C      1  0.4471170000000  0.4877320000000  0.4560800000000 1.0
C      1  0.5074800000000  0.4272630000000  0.5060650000000 1.0
C      1  0.5063530000000  0.4907080000000  0.5106130000000 1.0
C      1  0.4609680000000  0.5090760000000  0.4437890000000 1.0
C      1  0.4810290000000  0.5027850000000  0.5512530000000 1.0
C      1  0.4509400000000  0.5417320000000  0.5038970000000 1.0
C      1  0.4869900000000  0.4595750000000  0.4542810000000 1.0
C      1  0.5493900000000  0.5405490000000  0.5008070000000 1.0
C      1  0.4370490000000  0.4516870000000  0.4849250000000 1.0
C      1  0.5293220000000  0.5165420000000  0.5485890000000 1.0
C      1  0.4430120000000  0.4772480000000  0.4816470000000 1.0
C      1  0.4903530000000  0.4208420000000  0.4853400000000 1.0
C      1  0.4605540000000  0.4913880000000  0.5011490000000 1.0
C      1  0.5292330000000  0.4741660000000  0.4967100000000 1.0
C      1  0.5271800000000  0.5533670000000  0.5146470000000 1.0
C      1  0.5265360000000  0.4458400000000  0.4990560000000 1.0
C      1  0.5087910000000  0.4990740000000  0.5612500000000 1.0
C      1  0.4964460000000  0.4331000000000  0.5306720000000 1.0
C      1  0.4646990000000  0.5338680000000  0.4585810000000 1.0
C      1  0.5653550000000  0.5063110000000  0.4920940000000 1.0
C      1  0.4837550000000  0.4346670000000  0.4634220000000 1.0
C      1  0.4895220000000  0.5461500000000  0.4516180000000 1.0
C      1  0.4744080000000  0.5304740000000  0.5467840000000 1.0
END
