TITL C-950524-1808-89 -1.4325810859742e-06 125000 -336.078365098918 0 0 55 (C1) n - 1
REM
REM in /home/bkarasulu/work/CARBON/AIRSS/Generating-Clusters/EDIP-Nigel-Params/with-SteepDescent/Only-C1/SD-CG/HFTN-CG
REM
REM
REM
REM
REM
REM ./C.cell (11c1c37f851c82e70ff6c80c92926a4b)
REM
REM compiler GCC version 9.2.1 20190827 (Red Hat 9.2.1-1)
REM options -cpp -mtune=generic -march=x86-64 -g -O0 -fpre-include=/usr/include/finclude/math-vector-fortran.h
REM seed -780743940 -1194085977 -853683363 731413436 -1852948136 6844646 1259831728 2131654320 -1657349187 -284818715 -297285450 -1603490542 1500204468 226310365 982419418 677670793 1192338937 -1497258001 1727349374 -19726973 115314983 531245790 -1303944421 -344053310 -219882201 -602859921 -1389654843 1187115046 1394525407 -1804173906 -1874785024 -1419183796 1919203576
REM
CELL 1.54180   50.00000   50.00000   50.00000   90.00000   90.00000   90.00000
LATT -1
SFAC C  
C      1  0.4682060000000  0.4767440000000  0.4692300000000 1.0
C      1  0.4524080000000  0.5230010000000  0.4604380000000 1.0
C      1  0.5111960000000  0.5465780000000  0.4351760000000 1.0
C      1  0.4944970000000  0.5082350000000  0.4984350000000 1.0
C      1  0.5527890000000  0.5284560000000  0.4589620000000 1.0
C      1  0.5486570000000  0.4349910000000  0.4992780000000 1.0
C      1  0.5306710000000  0.4366090000000  0.4776110000000 1.0
C      1  0.5199160000000  0.4913230000000  0.5604020000000 1.0
C      1  0.5388260000000  0.5398990000000  0.5278030000000 1.0
C      1  0.5395640000000  0.4545480000000  0.5171350000000 1.0
C      1  0.5430850000000  0.4906320000000  0.5430160000000 1.0
C      1  0.4799580000000  0.5679800000000  0.4899620000000 1.0
C      1  0.4700050000000  0.4926270000000  0.4947340000000 1.0
C      1  0.5173470000000  0.4723960000000  0.4531690000000 1.0
C      1  0.5033120000000  0.4462720000000  0.4877720000000 1.0
C      1  0.4576340000000  0.4941460000000  0.5601730000000 1.0
C      1  0.4656320000000  0.4737210000000  0.5172810000000 1.0
C      1  0.4809600000000  0.4306560000000  0.5023050000000 1.0
C      1  0.4991250000000  0.5632570000000  0.5099050000000 1.0
C      1  0.4571270000000  0.4484620000000  0.5020890000000 1.0
C      1  0.4923070000000  0.5518400000000  0.5361820000000 1.0
C      1  0.5037900000000  0.4444340000000  0.5705210000000 1.0
C      1  0.4847370000000  0.5351820000000  0.4271750000000 1.0
C      1  0.4876530000000  0.4237330000000  0.5287790000000 1.0
C      1  0.5578050000000  0.5534990000000  0.4705440000000 1.0
C      1  0.5068050000000  0.5707840000000  0.4494420000000 1.0
C      1  0.5546240000000  0.4657860000000  0.5375860000000 1.0
C      1  0.4856590000000  0.5051160000000  0.4306420000000 1.0
C      1  0.4654780000000  0.5460190000000  0.4473690000000 1.0
C      1  0.4817430000000  0.5662760000000  0.4620100000000 1.0
C      1  0.4272540000000  0.5013620000000  0.5238250000000 1.0
C      1  0.5050630000000  0.5169380000000  0.5649720000000 1.0
C      1  0.4910860000000  0.4455280000000  0.5458000000000 1.0
C      1  0.4219360000000  0.5152760000000  0.5015330000000 1.0
C      1  0.5266570000000  0.5243740000000  0.4465910000000 1.0
C      1  0.5139870000000  0.4985460000000  0.4393560000000 1.0
C      1  0.5161690000000  0.5406220000000  0.5487620000000 1.0
C      1  0.4931560000000  0.4613310000000  0.4642050000000 1.0
C      1  0.4302980000000  0.5238410000000  0.4775560000000 1.0
C      1  0.5494340000000  0.5120710000000  0.5244160000000 1.0
C      1  0.4456530000000  0.4848520000000  0.5365330000000 1.0
C      1  0.4702900000000  0.5339110000000  0.5407690000000 1.0
C      1  0.4951330000000  0.5081550000000  0.5282360000000 1.0
C      1  0.4481190000000  0.4562730000000  0.4757930000000 1.0
C      1  0.5140160000000  0.4688880000000  0.5755650000000 1.0
C      1  0.4730230000000  0.5172450000000  0.5644240000000 1.0
C      1  0.5494200000000  0.5604130000000  0.4959960000000 1.0
C      1  0.5137690000000  0.4665170000000  0.5084990000000 1.0
C      1  0.4932880000000  0.4715450000000  0.5311310000000 1.0
C      1  0.5389670000000  0.4541240000000  0.4566180000000 1.0
C      1  0.5646010000000  0.5062910000000  0.5016920000000 1.0
C      1  0.5633580000000  0.5081330000000  0.4748010000000 1.0
C      1  0.5244930000000  0.5505940000000  0.5038420000000 1.0
C      1  0.4620680000000  0.4977860000000  0.4482660000000 1.0
C      1  0.5172470000000  0.4921840000000  0.4956930000000 1.0
END
