TITL C-950536-5891-618 -5.44227241460753e-06 125000 -960.973147198977 0 0 153 (C1) n - 1
REM
REM in /home/bkarasulu/work/CARBON/AIRSS/Generating-Clusters/EDIP-Nigel-Params/with-SteepDescent/Only-C1/SD-CG/HFTN-CG
REM
REM
REM
REM
REM
REM ./C.cell (11c1c37f851c82e70ff6c80c92926a4b)
REM
REM compiler GCC version 9.2.1 20190827 (Red Hat 9.2.1-1)
REM options -cpp -mtune=generic -march=x86-64 -g -O0 -fpre-include=/usr/include/finclude/math-vector-fortran.h
REM seed -1491726103 1866763271 1237493115 -31993423 938946300 -1975012154 -594740131 1109276934 1395943879 -2010489763 -1384527452 1601510761 71302291 -704513167 -1388106784 -305247300 -1918406285 -434910351 -779741688 1187001214 -1529595930 581634524 357670456 150438300 -270806208 590795415 -382504808 -1926587040 102737254 748300834 -1162874588 -1021558824 -92119361
REM
CELL 1.54180   50.00000   50.00000   50.00000   90.00000   90.00000   90.00000
LATT -1
SFAC C  
C      1  0.5229700000000  0.3912840000000  0.5008440000000 1.0
C      1  0.6014590000000  0.4827120000000  0.4823940000000 1.0
C      1  0.4935760000000  0.6133930000000  0.4938750000000 1.0
C      1  0.4695240000000  0.5237260000000  0.5900130000000 1.0
C      1  0.4579420000000  0.5313520000000  0.5288900000000 1.0
C      1  0.4317940000000  0.4914500000000  0.5880140000000 1.0
C      1  0.4934050000000  0.4647620000000  0.4865320000000 1.0
C      1  0.5202330000000  0.5819510000000  0.4198340000000 1.0
C      1  0.4519260000000  0.4442090000000  0.4348120000000 1.0
C      1  0.4835480000000  0.4138430000000  0.4814350000000 1.0
C      1  0.4391500000000  0.5497310000000  0.5455980000000 1.0
C      1  0.4974780000000  0.5172450000000  0.5891480000000 1.0
C      1  0.5447770000000  0.5685600000000  0.5368530000000 1.0
C      1  0.5560550000000  0.4945580000000  0.5868520000000 1.0
C      1  0.5170720000000  0.4964480000000  0.5466190000000 1.0
C      1  0.4420270000000  0.5172990000000  0.5846790000000 1.0
C      1  0.5385310000000  0.5170570000000  0.5489840000000 1.0
C      1  0.4676190000000  0.4277920000000  0.5455310000000 1.0
C      1  0.5684200000000  0.4514220000000  0.5623460000000 1.0
C      1  0.4893290000000  0.4660060000000  0.5922870000000 1.0
C      1  0.4954150000000  0.5343730000000  0.4963710000000 1.0
C      1  0.5720120000000  0.5847480000000  0.4959660000000 1.0
C      1  0.5180370000000  0.5891580000000  0.5353020000000 1.0
C      1  0.5513100000000  0.4362290000000  0.5796890000000 1.0
C      1  0.5326970000000  0.4753480000000  0.5347680000000 1.0
C      1  0.4392020000000  0.5209220000000  0.5058410000000 1.0
C      1  0.4403370000000  0.4852210000000  0.4795950000000 1.0
C      1  0.5444940000000  0.5894090000000  0.4862150000000 1.0
C      1  0.5231670000000  0.4357270000000  0.5115340000000 1.0
C      1  0.5462110000000  0.5186420000000  0.4636370000000 1.0
C      1  0.5529120000000  0.4809250000000  0.5129740000000 1.0
C      1  0.4345980000000  0.4334680000000  0.4828670000000 1.0
C      1  0.5058520000000  0.4431080000000  0.5979780000000 1.0
C      1  0.4551750000000  0.5303630000000  0.4790460000000 1.0
C      1  0.4451340000000  0.4595480000000  0.4931490000000 1.0
C      1  0.4755830000000  0.5937290000000  0.4405420000000 1.0
C      1  0.4095340000000  0.4264330000000  0.4969750000000 1.0
C      1  0.5439350000000  0.4357950000000  0.4404180000000 1.0
C      1  0.5015070000000  0.4120480000000  0.5061920000000 1.0
C      1  0.5877380000000  0.4987410000000  0.5490930000000 1.0
C      1  0.5258370000000  0.5625340000000  0.5796230000000 1.0
C      1  0.5020620000000  0.5458660000000  0.5412040000000 1.0
C      1  0.4636170000000  0.5031850000000  0.4731000000000 1.0
C      1  0.4869220000000  0.4056700000000  0.5328370000000 1.0
C      1  0.4724280000000  0.4556830000000  0.5319770000000 1.0
C      1  0.5829330000000  0.5411770000000  0.5120790000000 1.0
C      1  0.5052540000000  0.5532030000000  0.4742550000000 1.0
C      1  0.4389960000000  0.4265790000000  0.5503500000000 1.0
C      1  0.4655690000000  0.5902310000000  0.5456760000000 1.0
C      1  0.5386490000000  0.4041180000000  0.4781340000000 1.0
C      1  0.5597190000000  0.5110470000000  0.5170950000000 1.0
C      1  0.5515700000000  0.4221660000000  0.5189720000000 1.0
C      1  0.3929040000000  0.5056050000000  0.4790820000000 1.0
C      1  0.5133520000000  0.3996330000000  0.5479290000000 1.0
C      1  0.5058310000000  0.4896050000000  0.5798620000000 1.0
C      1  0.5842070000000  0.5241590000000  0.4588160000000 1.0
C      1  0.5901380000000  0.4940010000000  0.4579410000000 1.0
C      1  0.4283710000000  0.4523150000000  0.5558760000000 1.0
C      1  0.5434560000000  0.5799220000000  0.4351790000000 1.0
C      1  0.4279210000000  0.4378870000000  0.4530430000000 1.0
C      1  0.4522500000000  0.5713930000000  0.5624840000000 1.0
C      1  0.5842330000000  0.5280320000000  0.5470900000000 1.0
C      1  0.4858570000000  0.4572550000000  0.4601470000000 1.0
C      1  0.4883410000000  0.4973000000000  0.3964340000000 1.0
C      1  0.4245470000000  0.5623280000000  0.5201950000000 1.0
C      1  0.4072330000000  0.4648550000000  0.5396360000000 1.0
C      1  0.5990780000000  0.4846560000000  0.5267330000000 1.0
C      1  0.4550540000000  0.5780590000000  0.4553540000000 1.0
C      1  0.5367250000000  0.3952580000000  0.5283330000000 1.0
C      1  0.4982210000000  0.5921430000000  0.5125210000000 1.0
C      1  0.4159790000000  0.4978450000000  0.4370670000000 1.0
C      1  0.5371300000000  0.5275510000000  0.5060950000000 1.0
C      1  0.5316210000000  0.4803060000000  0.5941000000000 1.0
C      1  0.3975990000000  0.4704130000000  0.5122480000000 1.0
C      1  0.5258280000000  0.4282560000000  0.4630520000000 1.0
C      1  0.4033330000000  0.4580910000000  0.4628050000000 1.0
C      1  0.5293860000000  0.5237310000000  0.4060670000000 1.0
C      1  0.4961910000000  0.5058970000000  0.5233370000000 1.0
C      1  0.4669670000000  0.5014690000000  0.4406910000000 1.0
C      1  0.3942160000000  0.4498000000000  0.4909300000000 1.0
C      1  0.5226270000000  0.4479760000000  0.4037840000000 1.0
C      1  0.5300730000000  0.5416990000000  0.5322080000000 1.0
C      1  0.5726360000000  0.5352520000000  0.4322160000000 1.0
C      1  0.4730490000000  0.5783060000000  0.5201510000000 1.0
C      1  0.5177180000000  0.4222050000000  0.5675960000000 1.0
C      1  0.4087610000000  0.5248650000000  0.4369960000000 1.0
C      1  0.5391930000000  0.4277840000000  0.4139400000000 1.0
C      1  0.5010250000000  0.4452520000000  0.5560150000000 1.0
C      1  0.5222070000000  0.4517580000000  0.4860170000000 1.0
C      1  0.5902360000000  0.4571500000000  0.4918970000000 1.0
C      1  0.4310530000000  0.4929020000000  0.5267970000000 1.0
C      1  0.5337110000000  0.4508140000000  0.5975990000000 1.0
C      1  0.5404240000000  0.4750780000000  0.4855240000000 1.0
C      1  0.4817220000000  0.5483090000000  0.5206310000000 1.0
C      1  0.4472300000000  0.5757310000000  0.5047830000000 1.0
C      1  0.4641860000000  0.5494900000000  0.4575900000000 1.0
C      1  0.4568210000000  0.4159270000000  0.4899910000000 1.0
C      1  0.5475370000000  0.5216710000000  0.5774050000000 1.0
C      1  0.4819080000000  0.5177070000000  0.4179620000000 1.0
C      1  0.4256570000000  0.5294730000000  0.5631690000000 1.0
C      1  0.4495040000000  0.4657950000000  0.4144630000000 1.0
C      1  0.5339890000000  0.5620500000000  0.4732090000000 1.0
C      1  0.5706920000000  0.5680710000000  0.5198610000000 1.0
C      1  0.4133040000000  0.4868650000000  0.4647980000000 1.0
C      1  0.5181600000000  0.4986250000000  0.3927910000000 1.0
C      1  0.5640990000000  0.5617560000000  0.4303000000000 1.0
C      1  0.5041080000000  0.5694030000000  0.5594830000000 1.0
C      1  0.3993060000000  0.5346000000000  0.4793880000000 1.0
C      1  0.4130920000000  0.5370380000000  0.5071090000000 1.0
C      1  0.4930500000000  0.5490200000000  0.4473100000000 1.0
C      1  0.5584630000000  0.4865000000000  0.4173470000000 1.0
C      1  0.4827820000000  0.6167490000000  0.4566420000000 1.0
C      1  0.4885370000000  0.4784980000000  0.4398420000000 1.0
C      1  0.5156370000000  0.4539670000000  0.5321960000000 1.0
C      1  0.4938140000000  0.4284450000000  0.4563490000000 1.0
C      1  0.3956580000000  0.5198820000000  0.5252960000000 1.0
C      1  0.5527400000000  0.5656390000000  0.5658790000000 1.0
C      1  0.5085900000000  0.5220350000000  0.4301930000000 1.0
C      1  0.4800180000000  0.4701550000000  0.4096050000000 1.0
C      1  0.4714500000000  0.5067890000000  0.5390000000000 1.0
C      1  0.4716640000000  0.4499620000000  0.5023680000000 1.0
C      1  0.5614340000000  0.4181640000000  0.4906950000000 1.0
C      1  0.5882780000000  0.5709090000000  0.4768540000000 1.0
C      1  0.4467160000000  0.5929270000000  0.4803820000000 1.0
C      1  0.4780660000000  0.4273920000000  0.4285380000000 1.0
C      1  0.3874030000000  0.4975170000000  0.5067580000000 1.0
C      1  0.4904230000000  0.4963550000000  0.4902360000000 1.0
C      1  0.4784230000000  0.5696270000000  0.5755450000000 1.0
C      1  0.5689120000000  0.4477980000000  0.4486670000000 1.0
C      1  0.5701190000000  0.4430500000000  0.4772610000000 1.0
C      1  0.5741810000000  0.4757720000000  0.4401710000000 1.0
C      1  0.5444200000000  0.5966910000000  0.4582370000000 1.0
C      1  0.4372510000000  0.4650240000000  0.5810460000000 1.0
C      1  0.5290600000000  0.4969880000000  0.4693880000000 1.0
C      1  0.4958660000000  0.5743290000000  0.4313650000000 1.0
C      1  0.4931150000000  0.4434790000000  0.4057300000000 1.0
C      1  0.5129700000000  0.4956280000000  0.4451070000000 1.0
C      1  0.5228550000000  0.5344260000000  0.5903010000000 1.0
C      1  0.4055410000000  0.5453490000000  0.4542240000000 1.0
C      1  0.6098680000000  0.4988000000000  0.5045070000000 1.0
C      1  0.5935300000000  0.5435080000000  0.4822360000000 1.0
C      1  0.4567430000000  0.4820050000000  0.5390060000000 1.0
C      1  0.5717880000000  0.4809950000000  0.5664070000000 1.0
C      1  0.5695800000000  0.5407220000000  0.5702890000000 1.0
C      1  0.5499780000000  0.5389470000000  0.4829380000000 1.0
C      1  0.5572030000000  0.5161170000000  0.4150420000000 1.0
C      1  0.4627050000000  0.4592270000000  0.5894710000000 1.0
C      1  0.5330110000000  0.4759580000000  0.4051190000000 1.0
C      1  0.5723230000000  0.4408170000000  0.5351300000000 1.0
C      1  0.4117730000000  0.5083040000000  0.5473470000000 1.0
C      1  0.5793000000000  0.4644840000000  0.5179860000000 1.0
C      1  0.4423070000000  0.4926840000000  0.4249830000000 1.0
C      1  0.4672200000000  0.6168520000000  0.4812970000000 1.0
END
