TITL C-950530-3293-507 -7.39777997747593e-07 125000 -1058.14195593572 0 0 170 (C1) n - 1
REM
REM in /home/bkarasulu/work/CARBON/AIRSS/Generating-Clusters/EDIP-Nigel-Params/with-SteepDescent/Only-C1/SD-CG/HFTN-CG
REM
REM
REM
REM
REM
REM ./C.cell (11c1c37f851c82e70ff6c80c92926a4b)
REM
REM compiler GCC version 9.2.1 20190827 (Red Hat 9.2.1-1)
REM options -cpp -mtune=generic -march=x86-64 -g -O0 -fpre-include=/usr/include/finclude/math-vector-fortran.h
REM seed -1628219080 23337668 -190667179 745406595 -1094358852 -1939907566 468879537 -821125190 -967900363 -2135111126 1659602566 511229673 1479092467 1452949539 232405954 -2101260240 -782042391 1227299935 -1647480807 2111651433 -1069486215 66396573 -694041488 -2024280493 1814838412 -526405909 1601722264 2041750817 -1069634157 1047577284 -438485297 477186332 -1530311977
REM
CELL 1.54180   50.00000   50.00000   50.00000   90.00000   90.00000   90.00000
LATT -1
SFAC C  
C      1  0.4804220000000  0.4184180000000  0.5645890000000 1.0
C      1  0.5952570000000  0.4965550000000  0.4823540000000 1.0
C      1  0.4770370000000  0.5056130000000  0.4558720000000 1.0
C      1  0.5265070000000  0.4274170000000  0.5787890000000 1.0
C      1  0.4087590000000  0.5284100000000  0.5479780000000 1.0
C      1  0.5342150000000  0.4946770000000  0.5992560000000 1.0
C      1  0.5055980000000  0.5677910000000  0.5837010000000 1.0
C      1  0.4420980000000  0.4952370000000  0.4905790000000 1.0
C      1  0.4403110000000  0.6008220000000  0.5142710000000 1.0
C      1  0.5152180000000  0.4069400000000  0.5279470000000 1.0
C      1  0.4112840000000  0.4252860000000  0.4722540000000 1.0
C      1  0.6164220000000  0.4710100000000  0.5162060000000 1.0
C      1  0.5422250000000  0.5379000000000  0.4745930000000 1.0
C      1  0.4477590000000  0.5463220000000  0.4264190000000 1.0
C      1  0.5381980000000  0.3927190000000  0.5377620000000 1.0
C      1  0.5170300000000  0.5888020000000  0.5461620000000 1.0
C      1  0.5050170000000  0.5618550000000  0.4459710000000 1.0
C      1  0.5074620000000  0.4744670000000  0.6130360000000 1.0
C      1  0.5766870000000  0.5197600000000  0.4370550000000 1.0
C      1  0.4637540000000  0.4621670000000  0.4534670000000 1.0
C      1  0.4825200000000  0.6117970000000  0.4824730000000 1.0
C      1  0.5216530000000  0.5244060000000  0.4290150000000 1.0
C      1  0.4306010000000  0.4638100000000  0.4620350000000 1.0
C      1  0.5659850000000  0.4195170000000  0.5087660000000 1.0
C      1  0.5826630000000  0.4824280000000  0.5573290000000 1.0
C      1  0.5281970000000  0.4448950000000  0.5571280000000 1.0
C      1  0.5662200000000  0.5754690000000  0.5147020000000 1.0
C      1  0.5876840000000  0.5459490000000  0.5545680000000 1.0
C      1  0.4921250000000  0.4432630000000  0.4124380000000 1.0
C      1  0.5291600000000  0.6075490000000  0.4560710000000 1.0
C      1  0.4930020000000  0.5551380000000  0.4202710000000 1.0
C      1  0.4535560000000  0.5016370000000  0.5384480000000 1.0
C      1  0.6067960000000  0.5235850000000  0.5037310000000 1.0
C      1  0.5922170000000  0.5469520000000  0.4591260000000 1.0
C      1  0.4908680000000  0.4529270000000  0.5998870000000 1.0
C      1  0.5090380000000  0.3921510000000  0.4754410000000 1.0
C      1  0.5048770000000  0.4962820000000  0.4415380000000 1.0
C      1  0.5523130000000  0.4016290000000  0.4528940000000 1.0
C      1  0.4949480000000  0.4771910000000  0.5259660000000 1.0
C      1  0.4464030000000  0.4248250000000  0.4210130000000 1.0
C      1  0.5189350000000  0.4911160000000  0.4000150000000 1.0
C      1  0.4646000000000  0.6009070000000  0.5272320000000 1.0
C      1  0.5778570000000  0.5717290000000  0.4531560000000 1.0
C      1  0.5161960000000  0.5226580000000  0.4753510000000 1.0
C      1  0.5170060000000  0.4101750000000  0.4960850000000 1.0
C      1  0.4114030000000  0.4577080000000  0.4418430000000 1.0
C      1  0.4932560000000  0.5883700000000  0.5657300000000 1.0
C      1  0.4321770000000  0.5773340000000  0.5026600000000 1.0
C      1  0.4602160000000  0.5710330000000  0.4323370000000 1.0
C      1  0.4754460000000  0.4406530000000  0.4984630000000 1.0
C      1  0.4086790000000  0.4775370000000  0.4814330000000 1.0
C      1  0.4691580000000  0.4425990000000  0.5508250000000 1.0
C      1  0.4400930000000  0.4392540000000  0.5416890000000 1.0
C      1  0.4894910000000  0.3992240000000  0.5430710000000 1.0
C      1  0.4113150000000  0.4339110000000  0.5005820000000 1.0
C      1  0.4439650000000  0.5368390000000  0.4732210000000 1.0
C      1  0.5245000000000  0.4008320000000  0.4516980000000 1.0
C      1  0.4460760000000  0.5812780000000  0.4555070000000 1.0
C      1  0.5472780000000  0.5419920000000  0.5885020000000 1.0
C      1  0.5691370000000  0.5872230000000  0.4780020000000 1.0
C      1  0.4728520000000  0.4945000000000  0.4852240000000 1.0
C      1  0.5117630000000  0.4644630000000  0.4816680000000 1.0
C      1  0.4880120000000  0.4483700000000  0.5262700000000 1.0
C      1  0.5638110000000  0.4870050000000  0.5974350000000 1.0
C      1  0.4872640000000  0.5186300000000  0.5087670000000 1.0
C      1  0.5462180000000  0.4424360000000  0.5096510000000 1.0
C      1  0.4733850000000  0.5443580000000  0.5102680000000 1.0
C      1  0.4683730000000  0.5801880000000  0.5480820000000 1.0
C      1  0.5234210000000  0.4814260000000  0.4605360000000 1.0
C      1  0.4459260000000  0.3992490000000  0.5109810000000 1.0
C      1  0.5892230000000  0.4962070000000  0.4523100000000 1.0
C      1  0.5162270000000  0.4792520000000  0.5066580000000 1.0
C      1  0.4871140000000  0.6054200000000  0.5103640000000 1.0
C      1  0.4307320000000  0.5097660000000  0.4632890000000 1.0
C      1  0.4372380000000  0.5121230000000  0.5153650000000 1.0
C      1  0.4455600000000  0.5414900000000  0.5039480000000 1.0
C      1  0.5280140000000  0.4376780000000  0.4843360000000 1.0
C      1  0.5380910000000  0.5780910000000  0.5076880000000 1.0
C      1  0.4505390000000  0.4967580000000  0.4421180000000 1.0
C      1  0.5218870000000  0.4943350000000  0.5706570000000 1.0
C      1  0.5896010000000  0.5402390000000  0.4872630000000 1.0
C      1  0.4762700000000  0.5338920000000  0.5583650000000 1.0
C      1  0.5932160000000  0.4311100000000  0.5067840000000 1.0
C      1  0.3954160000000  0.4362100000000  0.4510810000000 1.0
C      1  0.4012260000000  0.5473560000000  0.4915330000000 1.0
C      1  0.5148020000000  0.4286460000000  0.4487700000000 1.0
C      1  0.6131660000000  0.4729500000000  0.4880030000000 1.0
C      1  0.4439630000000  0.4831050000000  0.5607720000000 1.0
C      1  0.4063780000000  0.4769610000000  0.5290550000000 1.0
C      1  0.5007190000000  0.5385680000000  0.5764760000000 1.0
C      1  0.4412820000000  0.5664040000000  0.5568630000000 1.0
C      1  0.5629320000000  0.5667540000000  0.5433130000000 1.0
C      1  0.5768840000000  0.4707810000000  0.4436100000000 1.0
C      1  0.4824660000000  0.5552110000000  0.5362390000000 1.0
C      1  0.4748590000000  0.4230940000000  0.4251230000000 1.0
C      1  0.5185790000000  0.4371580000000  0.5311730000000 1.0
C      1  0.4208430000000  0.5532280000000  0.5383340000000 1.0
C      1  0.4302520000000  0.4970850000000  0.5819280000000 1.0
C      1  0.4251100000000  0.5589160000000  0.4636200000000 1.0
C      1  0.5047140000000  0.6164500000000  0.4662850000000 1.0
C      1  0.5294100000000  0.5048190000000  0.5014160000000 1.0
C      1  0.4097070000000  0.5645680000000  0.5132500000000 1.0
C      1  0.4428510000000  0.4842560000000  0.4145000000000 1.0
C      1  0.4808100000000  0.4639200000000  0.4801290000000 1.0
C      1  0.4521780000000  0.3968920000000  0.4819620000000 1.0
C      1  0.4496830000000  0.5424920000000  0.5718670000000 1.0
C      1  0.5709150000000  0.4207650000000  0.4501710000000 1.0
C      1  0.3901610000000  0.5014780000000  0.4784090000000 1.0
C      1  0.5646110000000  0.4678950000000  0.5758920000000 1.0
C      1  0.3882870000000  0.5132230000000  0.4535230000000 1.0
C      1  0.5142840000000  0.5598090000000  0.5321560000000 1.0
C      1  0.4205440000000  0.5461480000000  0.4363350000000 1.0
C      1  0.4678840000000  0.3923700000000  0.5268780000000 1.0
C      1  0.5828890000000  0.4449870000000  0.4566870000000 1.0
C      1  0.5618940000000  0.3991510000000  0.5271430000000 1.0
C      1  0.5220210000000  0.5238440000000  0.5574500000000 1.0
C      1  0.4065700000000  0.5215320000000  0.4352110000000 1.0
C      1  0.5443200000000  0.5845000000000  0.5602470000000 1.0
C      1  0.4912510000000  0.4886620000000  0.5744870000000 1.0
C      1  0.5395700000000  0.4720730000000  0.5589780000000 1.0
C      1  0.4332860000000  0.4249490000000  0.5172880000000 1.0
C      1  0.5603210000000  0.4753420000000  0.4196650000000 1.0
C      1  0.5482520000000  0.4929820000000  0.4694530000000 1.0
C      1  0.5122200000000  0.6098040000000  0.5242330000000 1.0
C      1  0.4705170000000  0.5355160000000  0.4556870000000 1.0
C      1  0.4294470000000  0.4042350000000  0.4638590000000 1.0
C      1  0.5536220000000  0.5653070000000  0.4375090000000 1.0
C      1  0.5157190000000  0.5265310000000  0.5191430000000 1.0
C      1  0.4594970000000  0.6005670000000  0.4709730000000 1.0
C      1  0.4859250000000  0.5277110000000  0.4149390000000 1.0
C      1  0.4701010000000  0.4805760000000  0.4041950000000 1.0
C      1  0.4857150000000  0.4244440000000  0.4521180000000 1.0
C      1  0.5829570000000  0.5068240000000  0.5854820000000 1.0
C      1  0.5660620000000  0.4678180000000  0.5136360000000 1.0
C      1  0.5311660000000  0.4698050000000  0.4182630000000 1.0
C      1  0.5638940000000  0.5299530000000  0.4947430000000 1.0
C      1  0.5358520000000  0.5665870000000  0.4792750000000 1.0
C      1  0.4692700000000  0.4664560000000  0.5716200000000 1.0
C      1  0.5605130000000  0.4868260000000  0.5358270000000 1.0
C      1  0.5493320000000  0.5371630000000  0.5446980000000 1.0
C      1  0.4819180000000  0.5035250000000  0.5347200000000 1.0
C      1  0.4902940000000  0.5025810000000  0.4001440000000 1.0
C      1  0.6005050000000  0.4462190000000  0.4805280000000 1.0
C      1  0.3935910000000  0.5205030000000  0.5000880000000 1.0
C      1  0.4344060000000  0.4048990000000  0.4362480000000 1.0
C      1  0.5750910000000  0.5344110000000  0.5802680000000 1.0
C      1  0.5524450000000  0.6116140000000  0.4730750000000 1.0
C      1  0.4286490000000  0.4581860000000  0.4183110000000 1.0
C      1  0.4843690000000  0.4687780000000  0.4278690000000 1.0
C      1  0.5355490000000  0.5691780000000  0.5842950000000 1.0
C      1  0.4256110000000  0.4641030000000  0.5475260000000 1.0
C      1  0.5341010000000  0.6074350000000  0.5062990000000 1.0
C      1  0.5369350000000  0.5143600000000  0.4044680000000 1.0
C      1  0.5639890000000  0.5042870000000  0.4126560000000 1.0
C      1  0.5492500000000  0.5358520000000  0.4446390000000 1.0
C      1  0.4011100000000  0.4612150000000  0.5046870000000 1.0
C      1  0.5298510000000  0.5778010000000  0.4517410000000 1.0
C      1  0.5197740000000  0.4425320000000  0.4214600000000 1.0
C      1  0.4082200000000  0.5088480000000  0.5241900000000 1.0
C      1  0.5020210000000  0.5248980000000  0.6037580000000 1.0
C      1  0.4269050000000  0.5229330000000  0.5710940000000 1.0
C      1  0.5939690000000  0.5229830000000  0.5317670000000 1.0
C      1  0.4776820000000  0.4144840000000  0.4798740000000 1.0
C      1  0.5641560000000  0.5183850000000  0.5253420000000 1.0
C      1  0.4994920000000  0.4280420000000  0.5863540000000 1.0
C      1  0.4963610000000  0.5441190000000  0.4676350000000 1.0
C      1  0.5679110000000  0.4863270000000  0.4899700000000 1.0
C      1  0.4900460000000  0.4972920000000  0.6030650000000 1.0
C      1  0.5320890000000  0.5235900000000  0.6066750000000 1.0
C      1  0.5930090000000  0.4560330000000  0.5232530000000 1.0
END
