TITL C-951333-8791-581 -4.60518749120716e-06 125000 -976.209679957429 0 0 157 (C1) n - 1
REM
REM in /home/bkarasulu/work/CARBON/AIRSS/Generating-Clusters/EDIP-Nigel-Params/with-SteepDescent/Only-C1/SD-CG/HFTN-CG
REM
REM
REM
REM
REM
REM ./C.cell (11c1c37f851c82e70ff6c80c92926a4b)
REM
REM compiler GCC version 9.2.1 20190827 (Red Hat 9.2.1-1)
REM options -cpp -mtune=generic -march=x86-64 -g -O0 -fpre-include=/usr/include/finclude/math-vector-fortran.h
REM seed -193936692 992104820 -1644977579 -1803070664 1539526531 -1024950478 -1392040542 -1447244459 -675805021 -23002996 1350208576 1482321408 -1151289150 -1190503116 -1410429974 610003383 -729267175 -80951594 989046929 -443633910 203947396 -1001899700 461004729 1531187353 -1051324629 1756420787 -641852966 -1968075401 -300142073 -1863401304 99246288 -1374976298 -1213904918
REM
CELL 1.54180   50.00000   50.00000   50.00000   90.00000   90.00000   90.00000
LATT -1
SFAC C  
C      1  0.5565840000000  0.5440470000000  0.4855700000000 1.0
C      1  0.5547030000000  0.4390890000000  0.4487350000000 1.0
C      1  0.3927090000000  0.4765520000000  0.4768500000000 1.0
C      1  0.4531400000000  0.5084640000000  0.5765080000000 1.0
C      1  0.5366600000000  0.4063310000000  0.5386400000000 1.0
C      1  0.4213280000000  0.5170710000000  0.4761010000000 1.0
C      1  0.4901640000000  0.4063450000000  0.4463740000000 1.0
C      1  0.5715610000000  0.4386470000000  0.4724070000000 1.0
C      1  0.5001310000000  0.4289660000000  0.5737640000000 1.0
C      1  0.5958730000000  0.4670170000000  0.5556730000000 1.0
C      1  0.5268150000000  0.4547910000000  0.4918350000000 1.0
C      1  0.5361950000000  0.5651090000000  0.4750110000000 1.0
C      1  0.3938960000000  0.5056710000000  0.4833990000000 1.0
C      1  0.5352530000000  0.4676390000000  0.5444190000000 1.0
C      1  0.4370410000000  0.4167550000000  0.5131820000000 1.0
C      1  0.4816850000000  0.5163310000000  0.4513950000000 1.0
C      1  0.4602640000000  0.4627890000000  0.5418150000000 1.0
C      1  0.5092810000000  0.5259340000000  0.4049170000000 1.0
C      1  0.4373090000000  0.4899140000000  0.4716630000000 1.0
C      1  0.4547500000000  0.4447480000000  0.5818360000000 1.0
C      1  0.5288000000000  0.4560880000000  0.4475220000000 1.0
C      1  0.4364930000000  0.4656740000000  0.4946820000000 1.0
C      1  0.5509630000000  0.5144060000000  0.5903570000000 1.0
C      1  0.4058180000000  0.4694850000000  0.5255220000000 1.0
C      1  0.5734200000000  0.4713160000000  0.5124290000000 1.0
C      1  0.4985080000000  0.5107720000000  0.5912360000000 1.0
C      1  0.4551230000000  0.4854840000000  0.4062940000000 1.0
C      1  0.5783640000000  0.4284030000000  0.5308550000000 1.0
C      1  0.5923340000000  0.4576100000000  0.4666900000000 1.0
C      1  0.5330810000000  0.4061310000000  0.4285170000000 1.0
C      1  0.4510560000000  0.4551230000000  0.4427740000000 1.0
C      1  0.5138400000000  0.5935970000000  0.4401280000000 1.0
C      1  0.4878740000000  0.4594140000000  0.5538820000000 1.0
C      1  0.4728880000000  0.5842840000000  0.4626110000000 1.0
C      1  0.4517880000000  0.5831080000000  0.5667500000000 1.0
C      1  0.5154280000000  0.4837940000000  0.4518260000000 1.0
C      1  0.4734590000000  0.4538610000000  0.4622720000000 1.0
C      1  0.4723300000000  0.4215950000000  0.5678240000000 1.0
C      1  0.4487600000000  0.5943190000000  0.4737490000000 1.0
C      1  0.5583380000000  0.5973820000000  0.5020330000000 1.0
C      1  0.5256380000000  0.4994880000000  0.5986260000000 1.0
C      1  0.4885640000000  0.5298510000000  0.4960300000000 1.0
C      1  0.5027950000000  0.4207570000000  0.5259250000000 1.0
C      1  0.4579860000000  0.4023540000000  0.5240180000000 1.0
C      1  0.4820040000000  0.5310690000000  0.4074100000000 1.0
C      1  0.3966830000000  0.5146240000000  0.5122330000000 1.0
C      1  0.4029080000000  0.5280710000000  0.5659540000000 1.0
C      1  0.5049250000000  0.5682790000000  0.5104320000000 1.0
C      1  0.6027340000000  0.5367940000000  0.4885520000000 1.0
C      1  0.5565800000000  0.5431290000000  0.4397330000000 1.0
C      1  0.4021590000000  0.4697510000000  0.4505350000000 1.0
C      1  0.4149560000000  0.4499900000000  0.5450160000000 1.0
C      1  0.5277800000000  0.5479930000000  0.4048110000000 1.0
C      1  0.4453950000000  0.5698040000000  0.5227050000000 1.0
C      1  0.4495880000000  0.5408230000000  0.5918740000000 1.0
C      1  0.4853390000000  0.4779540000000  0.4733210000000 1.0
C      1  0.4736520000000  0.4937510000000  0.5931760000000 1.0
C      1  0.4652010000000  0.4366370000000  0.4123650000000 1.0
C      1  0.5447320000000  0.4938160000000  0.4028700000000 1.0
C      1  0.5078230000000  0.4777480000000  0.5437310000000 1.0
C      1  0.5532810000000  0.5485780000000  0.5146120000000 1.0
C      1  0.4656720000000  0.5140500000000  0.5489450000000 1.0
C      1  0.5712010000000  0.5563710000000  0.5705280000000 1.0
C      1  0.5744760000000  0.4677500000000  0.4222980000000 1.0
C      1  0.4089630000000  0.5021370000000  0.5580260000000 1.0
C      1  0.4298920000000  0.4777340000000  0.4456930000000 1.0
C      1  0.4956360000000  0.5174600000000  0.5582920000000 1.0
C      1  0.4749930000000  0.4640560000000  0.5954750000000 1.0
C      1  0.4386240000000  0.5248720000000  0.4296990000000 1.0
C      1  0.4383000000000  0.4290750000000  0.4393420000000 1.0
C      1  0.5230450000000  0.5456890000000  0.5192460000000 1.0
C      1  0.4433010000000  0.4342780000000  0.4892320000000 1.0
C      1  0.5118700000000  0.6064610000000  0.5317220000000 1.0
C      1  0.4166150000000  0.5505940000000  0.5573440000000 1.0
C      1  0.5261410000000  0.4840010000000  0.5010390000000 1.0
C      1  0.4740650000000  0.4211260000000  0.5372880000000 1.0
C      1  0.4496870000000  0.5052240000000  0.5227620000000 1.0
C      1  0.5478600000000  0.4850830000000  0.5237390000000 1.0
C      1  0.4614280000000  0.5852730000000  0.5407320000000 1.0
C      1  0.5065720000000  0.4295010000000  0.4957280000000 1.0
C      1  0.4148350000000  0.4977420000000  0.5291350000000 1.0
C      1  0.5183980000000  0.4992230000000  0.4159510000000 1.0
C      1  0.5622690000000  0.4980570000000  0.5675170000000 1.0
C      1  0.5664400000000  0.5752240000000  0.5225010000000 1.0
C      1  0.4879500000000  0.4180420000000  0.4195040000000 1.0
C      1  0.5952580000000  0.5190660000000  0.5207050000000 1.0
C      1  0.4526260000000  0.5624160000000  0.4957520000000 1.0
C      1  0.6062570000000  0.5113220000000  0.5465020000000 1.0
C      1  0.5507220000000  0.4653890000000  0.4059530000000 1.0
C      1  0.4281660000000  0.5749610000000  0.4768950000000 1.0
C      1  0.5023400000000  0.4731870000000  0.4110290000000 1.0
C      1  0.5750790000000  0.5223210000000  0.4337040000000 1.0
C      1  0.5280130000000  0.4709340000000  0.5920030000000 1.0
C      1  0.4653820000000  0.5009950000000  0.4713210000000 1.0
C      1  0.5588450000000  0.4163640000000  0.4322780000000 1.0
C      1  0.4706130000000  0.4052590000000  0.4658520000000 1.0
C      1  0.5922110000000  0.4935930000000  0.5632900000000 1.0
C      1  0.5536680000000  0.4098340000000  0.4918220000000 1.0
C      1  0.5795420000000  0.4758020000000  0.4492610000000 1.0
C      1  0.5561880000000  0.4483420000000  0.4965340000000 1.0
C      1  0.5257400000000  0.5020420000000  0.4748470000000 1.0
C      1  0.5257360000000  0.5526880000000  0.5682850000000 1.0
C      1  0.4188700000000  0.4256770000000  0.5322010000000 1.0
C      1  0.4840800000000  0.5999000000000  0.5322390000000 1.0
C      1  0.4954290000000  0.5524120000000  0.5762910000000 1.0
C      1  0.5241590000000  0.4532370000000  0.4175770000000 1.0
C      1  0.4358070000000  0.5616310000000  0.5763580000000 1.0
C      1  0.4827110000000  0.4742420000000  0.5027090000000 1.0
C      1  0.5681080000000  0.5276410000000  0.5281370000000 1.0
C      1  0.5581860000000  0.4120440000000  0.5211650000000 1.0
C      1  0.5247440000000  0.4076700000000  0.4828110000000 1.0
C      1  0.4568320000000  0.4763520000000  0.5158300000000 1.0
C      1  0.5494260000000  0.5437410000000  0.5847320000000 1.0
C      1  0.4291000000000  0.4246340000000  0.4655200000000 1.0
C      1  0.5429840000000  0.5879550000000  0.4379050000000 1.0
C      1  0.5994400000000  0.5092390000000  0.4780420000000 1.0
C      1  0.4302390000000  0.4891970000000  0.5728040000000 1.0
C      1  0.5634570000000  0.5782640000000  0.5531660000000 1.0
C      1  0.4680200000000  0.5347840000000  0.4322130000000 1.0
C      1  0.5160000000000  0.4238880000000  0.4108200000000 1.0
C      1  0.5135410000000  0.3939970000000  0.5303820000000 1.0
C      1  0.4378830000000  0.4614910000000  0.5613620000000 1.0
C      1  0.4124600000000  0.5379960000000  0.5078490000000 1.0
C      1  0.4242780000000  0.5524960000000  0.5296080000000 1.0
C      1  0.5768580000000  0.5048230000000  0.4580930000000 1.0
C      1  0.5030420000000  0.5662190000000  0.4355230000000 1.0
C      1  0.5526320000000  0.5151270000000  0.4737920000000 1.0
C      1  0.5246560000000  0.6066640000000  0.5566020000000 1.0
C      1  0.5168740000000  0.5852040000000  0.4888560000000 1.0
C      1  0.4735770000000  0.5644080000000  0.4403590000000 1.0
C      1  0.4354070000000  0.4962650000000  0.4228100000000 1.0
C      1  0.5209590000000  0.5482260000000  0.4538830000000 1.0
C      1  0.4201780000000  0.5334850000000  0.4508680000000 1.0
C      1  0.4742850000000  0.4653370000000  0.4071850000000 1.0
C      1  0.5831080000000  0.5550420000000  0.4778350000000 1.0
C      1  0.4595150000000  0.5203280000000  0.4966070000000 1.0
C      1  0.5227910000000  0.5309440000000  0.5457050000000 1.0
C      1  0.4939220000000  0.5329130000000  0.6100140000000 1.0
C      1  0.4991950000000  0.5980360000000  0.4664180000000 1.0
C      1  0.3988320000000  0.4597920000000  0.4995530000000 1.0
C      1  0.5044600000000  0.5249680000000  0.4697330000000 1.0
C      1  0.5485840000000  0.4705360000000  0.5703090000000 1.0
C      1  0.5350870000000  0.5804110000000  0.5587980000000 1.0
C      1  0.5022790000000  0.4534410000000  0.5899000000000 1.0
C      1  0.4200480000000  0.5608590000000  0.4547140000000 1.0
C      1  0.5024060000000  0.4876790000000  0.5168960000000 1.0
C      1  0.4743800000000  0.4303270000000  0.4803830000000 1.0
C      1  0.5871930000000  0.4545300000000  0.5323720000000 1.0
C      1  0.5173800000000  0.4012350000000  0.4539640000000 1.0
C      1  0.4831300000000  0.5572520000000  0.4958260000000 1.0
C      1  0.5612720000000  0.5855980000000  0.4706750000000 1.0
C      1  0.5471520000000  0.5624860000000  0.4212690000000 1.0
C      1  0.5668570000000  0.5092120000000  0.4105520000000 1.0
C      1  0.5939930000000  0.4935680000000  0.5033450000000 1.0
C      1  0.4756030000000  0.5521700000000  0.5997630000000 1.0
C      1  0.5292070000000  0.6052740000000  0.5060670000000 1.0
C      1  0.5500380000000  0.5103040000000  0.5418580000000 1.0
END
