TITL C-951335-1172-296 -2.0467521615184e-06 125000 -438.98275174784 0 0 71 (C1) n - 1
REM
REM in /home/bkarasulu/work/CARBON/AIRSS/Generating-Clusters/EDIP-Nigel-Params/with-SteepDescent/Only-C1/SD-CG/HFTN-CG
REM
REM
REM
REM
REM
REM ./C.cell (11c1c37f851c82e70ff6c80c92926a4b)
REM
REM compiler GCC version 9.2.1 20190827 (Red Hat 9.2.1-1)
REM options -cpp -mtune=generic -march=x86-64 -g -O0 -fpre-include=/usr/include/finclude/math-vector-fortran.h
REM seed 1419629699 -275675918 -84029000 -161060114 1038035407 1026270955 -881748417 1654355929 -731232849 -1321535457 125797942 671551702 -1329654137 83879774 -1868483451 -1390834540 798900632 -441986204 -1547178156 -2063653793 432140401 1436573930 2083704164 1488685861 1194946593 -793688736 1907449094 -585913050 -2018623825 1573794060 -3839116 1402060399 1207948415
REM
CELL 1.54180   50.00000   50.00000   50.00000   90.00000   90.00000   90.00000
LATT -1
SFAC C  
C      1  0.4515070000000  0.4848400000000  0.5285220000000 1.0
C      1  0.5788990000000  0.5284570000000  0.5131430000000 1.0
C      1  0.5074310000000  0.5170340000000  0.4745940000000 1.0
C      1  0.5449850000000  0.5324020000000  0.5558210000000 1.0
C      1  0.5506710000000  0.5044370000000  0.5238000000000 1.0
C      1  0.5204730000000  0.5273940000000  0.4496840000000 1.0
C      1  0.4647810000000  0.4797360000000  0.5551730000000 1.0
C      1  0.4811780000000  0.4361200000000  0.4634450000000 1.0
C      1  0.5399450000000  0.4805150000000  0.4452700000000 1.0
C      1  0.5033500000000  0.5034120000000  0.4166030000000 1.0
C      1  0.4701050000000  0.5302060000000  0.4444840000000 1.0
C      1  0.4756940000000  0.5404410000000  0.5248910000000 1.0
C      1  0.5872910000000  0.4675960000000  0.5163110000000 1.0
C      1  0.5262870000000  0.4716270000000  0.5518450000000 1.0
C      1  0.5678390000000  0.5228240000000  0.4875240000000 1.0
C      1  0.5010280000000  0.5802560000000  0.5200480000000 1.0
C      1  0.4327560000000  0.5442640000000  0.5065660000000 1.0
C      1  0.4842410000000  0.4575900000000  0.5537240000000 1.0
C      1  0.5371710000000  0.5073090000000  0.4345170000000 1.0
C      1  0.5571460000000  0.4510030000000  0.4803120000000 1.0
C      1  0.4749920000000  0.5697850000000  0.5166880000000 1.0
C      1  0.5353150000000  0.5521090000000  0.4595420000000 1.0
C      1  0.4760730000000  0.4231810000000  0.4896580000000 1.0
C      1  0.4919380000000  0.5163420000000  0.5822960000000 1.0
C      1  0.4891270000000  0.5684160000000  0.4686150000000 1.0
C      1  0.4532590000000  0.5049240000000  0.4395420000000 1.0
C      1  0.4675650000000  0.4448110000000  0.5092090000000 1.0
C      1  0.4315720000000  0.5129520000000  0.4586670000000 1.0
C      1  0.5115100000000  0.4319440000000  0.5196640000000 1.0
C      1  0.4656530000000  0.5245640000000  0.5004590000000 1.0
C      1  0.4234240000000  0.5176670000000  0.5079680000000 1.0
C      1  0.4670240000000  0.5714150000000  0.4878250000000 1.0
C      1  0.5321770000000  0.4977580000000  0.5631480000000 1.0
C      1  0.4997200000000  0.4854440000000  0.5099880000000 1.0
C      1  0.4323990000000  0.5002290000000  0.4856470000000 1.0
C      1  0.5195340000000  0.5645720000000  0.5058890000000 1.0
C      1  0.5468150000000  0.4573700000000  0.5384330000000 1.0
C      1  0.4732490000000  0.5076800000000  0.5616710000000 1.0
C      1  0.5070410000000  0.4619390000000  0.5707520000000 1.0
C      1  0.5653930000000  0.5381470000000  0.5362430000000 1.0
C      1  0.4563990000000  0.5276660000000  0.5472560000000 1.0
C      1  0.5076740000000  0.5363230000000  0.5282710000000 1.0
C      1  0.5127870000000  0.4967850000000  0.5856830000000 1.0
C      1  0.4970460000000  0.5296370000000  0.4291550000000 1.0
C      1  0.5741730000000  0.4988620000000  0.4744080000000 1.0
C      1  0.4415330000000  0.4604930000000  0.5131340000000 1.0
C      1  0.5131380000000  0.4723350000000  0.4543230000000 1.0
C      1  0.5593240000000  0.4764550000000  0.4661330000000 1.0
C      1  0.4948280000000  0.4795440000000  0.4315490000000 1.0
C      1  0.5105580000000  0.4437300000000  0.4611290000000 1.0
C      1  0.4343230000000  0.4543150000000  0.4664300000000 1.0
C      1  0.4596380000000  0.4550910000000  0.4547610000000 1.0
C      1  0.5772290000000  0.4485470000000  0.4995900000000 1.0
C      1  0.4414070000000  0.5568730000000  0.4826660000000 1.0
C      1  0.4282810000000  0.4706810000000  0.4884810000000 1.0
C      1  0.5191110000000  0.5458330000000  0.5544540000000 1.0
C      1  0.4362710000000  0.5422360000000  0.4581460000000 1.0
C      1  0.5588080000000  0.5444620000000  0.4725920000000 1.0
C      1  0.4680720000000  0.4797930000000  0.4424510000000 1.0
C      1  0.4815770000000  0.5318750000000  0.4745500000000 1.0
C      1  0.5027440000000  0.4150090000000  0.4984250000000 1.0
C      1  0.5028340000000  0.5417260000000  0.5769620000000 1.0
C      1  0.5316540000000  0.4339990000000  0.4805820000000 1.0
C      1  0.4920130000000  0.4544700000000  0.5241590000000 1.0
C      1  0.4718750000000  0.4965260000000  0.5097290000000 1.0
C      1  0.5649910000000  0.4781150000000  0.5301830000000 1.0
C      1  0.4337940000000  0.5088260000000  0.5343050000000 1.0
C      1  0.5185670000000  0.5064810000000  0.5263690000000 1.0
C      1  0.5390490000000  0.4379650000000  0.5188460000000 1.0
C      1  0.5067430000000  0.4885790000000  0.4800270000000 1.0
C      1  0.5170010000000  0.5680570000000  0.4770660000000 1.0
END
