TITL C-951340-9809-718 6.98749444455204e-07 125000 -201.84629226426 0 0 34 (C1) n - 1
REM
REM in /home/bkarasulu/work/CARBON/AIRSS/Generating-Clusters/EDIP-Nigel-Params/with-SteepDescent/Only-C1/SD-CG/HFTN-CG
REM
REM
REM
REM
REM
REM ./C.cell (11c1c37f851c82e70ff6c80c92926a4b)
REM
REM compiler GCC version 9.2.1 20190827 (Red Hat 9.2.1-1)
REM options -cpp -mtune=generic -march=x86-64 -g -O0 -fpre-include=/usr/include/finclude/math-vector-fortran.h
REM seed 1139214186 492013324 -1598265352 -1039442979 -207463944 -1182653883 1779255057 107484002 -1291323920 -1654578694 -276524667 1007535817 458032157 -1997295562 -1050632056 -381346987 81501980 1361167874 1223057128 1501795285 1728202265 -1704552935 1009129858 -142460036 -1508948827 -1254758796 -563331765 1450558763 -1091541696 1542502133 -670528471 -1684155496 726529573
REM
CELL 1.54180   50.00000   50.00000   50.00000   90.00000   90.00000   90.00000
LATT -1
SFAC C  
C      1  0.4758560000000  0.5268000000000  0.5407440000000 1.0
C      1  0.5233550000000  0.5220540000000  0.4537870000000 1.0
C      1  0.4892710000000  0.4810050000000  0.4856380000000 1.0
C      1  0.4939840000000  0.5505910000000  0.4790990000000 1.0
C      1  0.5242380000000  0.4522670000000  0.4764880000000 1.0
C      1  0.4758480000000  0.5248090000000  0.4437230000000 1.0
C      1  0.4414690000000  0.4843590000000  0.4942490000000 1.0
C      1  0.4586380000000  0.5385710000000  0.5176620000000 1.0
C      1  0.5550740000000  0.4900480000000  0.5214740000000 1.0
C      1  0.4502720000000  0.4914600000000  0.4685040000000 1.0
C      1  0.5656970000000  0.4778750000000  0.4989830000000 1.0
C      1  0.4681500000000  0.4723740000000  0.4551890000000 1.0
C      1  0.5532770000000  0.4798500000000  0.5481560000000 1.0
C      1  0.5291280000000  0.5391610000000  0.5037720000000 1.0
C      1  0.5058220000000  0.4795970000000  0.5648210000000 1.0
C      1  0.5174770000000  0.5601540000000  0.4913820000000 1.0
C      1  0.5564980000000  0.4992850000000  0.4839000000000 1.0
C      1  0.5310110000000  0.4662060000000  0.5619770000000 1.0
C      1  0.5029630000000  0.5340120000000  0.5412510000000 1.0
C      1  0.4349490000000  0.5229560000000  0.5192380000000 1.0
C      1  0.4994020000000  0.5371630000000  0.4533980000000 1.0
C      1  0.5218840000000  0.4740280000000  0.4576850000000 1.0
C      1  0.4452160000000  0.4964140000000  0.5189760000000 1.0
C      1  0.4907390000000  0.4757840000000  0.5413240000000 1.0
C      1  0.5357500000000  0.4989400000000  0.4639400000000 1.0
C      1  0.5048390000000  0.4589620000000  0.4957020000000 1.0
C      1  0.5083930000000  0.4603190000000  0.5241390000000 1.0
C      1  0.4747290000000  0.5300760000000  0.4919370000000 1.0
C      1  0.4742800000000  0.4982840000000  0.5282290000000 1.0
C      1  0.4949010000000  0.4798100000000  0.4473270000000 1.0
C      1  0.4607860000000  0.5192190000000  0.4670610000000 1.0
C      1  0.4910390000000  0.5068990000000  0.5036580000000 1.0
C      1  0.5140740000000  0.5211120000000  0.5187350000000 1.0
C      1  0.5309920000000  0.4495550000000  0.5378520000000 1.0
END
