TITL C-951348-1603-35 1.31909433515211e-06 125000 -554.233997809142 0 0 90 (C1) n - 1
REM
REM in /home/bkarasulu/work/CARBON/AIRSS/Generating-Clusters/EDIP-Nigel-Params/with-SteepDescent/Only-C1/SD-CG/HFTN-CG
REM
REM
REM
REM
REM
REM ./C.cell (11c1c37f851c82e70ff6c80c92926a4b)
REM
REM compiler GCC version 9.2.1 20190827 (Red Hat 9.2.1-1)
REM options -cpp -mtune=generic -march=x86-64 -g -O0 -fpre-include=/usr/include/finclude/math-vector-fortran.h
REM seed -663876394 -1126012626 -35140027 -1830468100 487251931 519606542 -361408265 1288160268 2055427927 1991739597 -1724507017 -342038191 1095613767 -725715931 1038447060 407178211 190960392 -2053438781 -154677526 745490686 -1027155601 -680393557 -1295251193 584701517 488486605 -627340434 2090410492 -317833089 -1810097157 1004256187 -222640456 -1772096009 2124572989
REM
CELL 1.54180   50.00000   50.00000   50.00000   90.00000   90.00000   90.00000
LATT -1
SFAC C  
C      1  0.5334190000000  0.4444440000000  0.5309270000000 1.0
C      1  0.5134550000000  0.5870070000000  0.5460630000000 1.0
C      1  0.5162830000000  0.4193210000000  0.4931570000000 1.0
C      1  0.5445820000000  0.5473340000000  0.4409530000000 1.0
C      1  0.5390910000000  0.5631720000000  0.4632330000000 1.0
C      1  0.4650470000000  0.5081750000000  0.5428910000000 1.0
C      1  0.5583760000000  0.4516900000000  0.5458170000000 1.0
C      1  0.4384420000000  0.4386460000000  0.4677250000000 1.0
C      1  0.4827800000000  0.5675440000000  0.4370520000000 1.0
C      1  0.4480620000000  0.5470470000000  0.5621950000000 1.0
C      1  0.5054420000000  0.5456440000000  0.5651780000000 1.0
C      1  0.5169030000000  0.5192960000000  0.5651830000000 1.0
C      1  0.4636340000000  0.4454160000000  0.4566390000000 1.0
C      1  0.4920810000000  0.5498920000000  0.4181350000000 1.0
C      1  0.5166820000000  0.5512470000000  0.4797630000000 1.0
C      1  0.4287020000000  0.5406840000000  0.5394690000000 1.0
C      1  0.4523450000000  0.4550710000000  0.5120570000000 1.0
C      1  0.4962690000000  0.4801970000000  0.5189560000000 1.0
C      1  0.5115120000000  0.4541170000000  0.4621710000000 1.0
C      1  0.4609880000000  0.4653900000000  0.5563580000000 1.0
C      1  0.5412320000000  0.4981070000000  0.4631690000000 1.0
C      1  0.5305130000000  0.5412530000000  0.5292460000000 1.0
C      1  0.5606260000000  0.5700560000000  0.4799800000000 1.0
C      1  0.4303500000000  0.4850400000000  0.4800120000000 1.0
C      1  0.5330430000000  0.4699060000000  0.4780340000000 1.0
C      1  0.5292700000000  0.5153980000000  0.5167000000000 1.0
C      1  0.4864050000000  0.4333120000000  0.5415340000000 1.0
C      1  0.4833190000000  0.5492320000000  0.5462790000000 1.0
C      1  0.5583590000000  0.4542870000000  0.4738540000000 1.0
C      1  0.5512460000000  0.5510420000000  0.5600600000000 1.0
C      1  0.4616570000000  0.5198450000000  0.5700270000000 1.0
C      1  0.4577550000000  0.5013240000000  0.4171490000000 1.0
C      1  0.4622460000000  0.5352150000000  0.5017170000000 1.0
C      1  0.5266260000000  0.4696500000000  0.5135230000000 1.0
C      1  0.5123500000000  0.5346190000000  0.4090570000000 1.0
C      1  0.4207810000000  0.5133420000000  0.4408270000000 1.0
C      1  0.5109950000000  0.4437140000000  0.5508940000000 1.0
C      1  0.4775070000000  0.4259240000000  0.4383390000000 1.0
C      1  0.5245000000000  0.5676270000000  0.5638470000000 1.0
C      1  0.4953090000000  0.4092920000000  0.4554120000000 1.0
C      1  0.5227590000000  0.4796410000000  0.4206110000000 1.0
C      1  0.5795930000000  0.5020800000000  0.4934450000000 1.0
C      1  0.4648830000000  0.5336110000000  0.4467400000000 1.0
C      1  0.4785560000000  0.5062590000000  0.5891990000000 1.0
C      1  0.4935980000000  0.4003690000000  0.4923240000000 1.0
C      1  0.4809440000000  0.5561540000000  0.4857320000000 1.0
C      1  0.5542600000000  0.5712760000000  0.5072470000000 1.0
C      1  0.5711780000000  0.4963240000000  0.4678400000000 1.0
C      1  0.5225400000000  0.5214750000000  0.4734310000000 1.0
C      1  0.5347950000000  0.5274260000000  0.4238160000000 1.0
C      1  0.5072470000000  0.5831190000000  0.5187080000000 1.0
C      1  0.5401500000000  0.4231940000000  0.5103850000000 1.0
C      1  0.5012700000000  0.5086230000000  0.5104240000000 1.0
C      1  0.4318360000000  0.4558330000000  0.4890890000000 1.0
C      1  0.4736600000000  0.4730440000000  0.4986190000000 1.0
C      1  0.4798680000000  0.5265850000000  0.5243240000000 1.0
C      1  0.4558190000000  0.5776730000000  0.5230650000000 1.0
C      1  0.5762130000000  0.4596980000000  0.5220150000000 1.0
C      1  0.5623260000000  0.5520410000000  0.5299960000000 1.0
C      1  0.4824520000000  0.4842200000000  0.5476860000000 1.0
C      1  0.4723050000000  0.5074650000000  0.4638380000000 1.0
C      1  0.5001010000000  0.4946850000000  0.5718730000000 1.0
C      1  0.5586400000000  0.4990020000000  0.5616520000000 1.0
C      1  0.4430610000000  0.5243370000000  0.4272200000000 1.0
C      1  0.4406380000000  0.5525180000000  0.5148370000000 1.0
C      1  0.4837410000000  0.4580370000000  0.4739440000000 1.0
C      1  0.4988760000000  0.5073990000000  0.4804890000000 1.0
C      1  0.4178920000000  0.5145450000000  0.5368300000000 1.0
C      1  0.4935110000000  0.4403020000000  0.4194360000000 1.0
C      1  0.4312760000000  0.4884050000000  0.4504540000000 1.0
C      1  0.4558970000000  0.4997380000000  0.4892770000000 1.0
C      1  0.5790060000000  0.4698700000000  0.4620620000000 1.0
C      1  0.5364710000000  0.4998320000000  0.4335170000000 1.0
C      1  0.5253520000000  0.5625390000000  0.5077300000000 1.0
C      1  0.5178840000000  0.4675960000000  0.5690940000000 1.0
C      1  0.4399630000000  0.4987180000000  0.5304610000000 1.0
C      1  0.4608010000000  0.4871130000000  0.4423860000000 1.0
C      1  0.5721940000000  0.4893600000000  0.5172000000000 1.0
C      1  0.4705180000000  0.4078000000000  0.5055850000000 1.0
C      1  0.5180880000000  0.4250970000000  0.4651970000000 1.0
C      1  0.4418310000000  0.4699060000000  0.5356980000000 1.0
C      1  0.5649810000000  0.4396120000000  0.4989470000000 1.0
C      1  0.5106380000000  0.4580900000000  0.4326110000000 1.0
C      1  0.4804010000000  0.5794990000000  0.5055420000000 1.0
C      1  0.5476540000000  0.4723120000000  0.5653810000000 1.0
C      1  0.4670250000000  0.5611360000000  0.4601270000000 1.0
C      1  0.5441120000000  0.4922700000000  0.5267520000000 1.0
C      1  0.5449090000000  0.5223880000000  0.5700510000000 1.0
C      1  0.4662340000000  0.4296140000000  0.5222180000000 1.0
C      1  0.4638700000000  0.5726520000000  0.5513150000000 1.0
END
