TITL C-950528-5794-12 1.17514942060342e-06 125000 -504.813895211403 0 0 81 (C1) n - 1
REM
REM in /home/bkarasulu/work/CARBON/AIRSS/Generating-Clusters/EDIP-Nigel-Params/with-SteepDescent/Only-C1/SD-CG/HFTN-CG
REM
REM
REM
REM
REM
REM ./C.cell (11c1c37f851c82e70ff6c80c92926a4b)
REM
REM compiler GCC version 9.2.1 20190827 (Red Hat 9.2.1-1)
REM options -cpp -mtune=generic -march=x86-64 -g -O0 -fpre-include=/usr/include/finclude/math-vector-fortran.h
REM seed 506690005 -1142955281 1754301124 266907072 1983574001 1666139145 2134238503 1526467208 -220035553 1109595864 1063616112 -1825034307 855660592 -455587184 -973270557 -1257491408 -2123044423 197784041 -1019325553 -649393282 242607206 633110896 1041338779 1939996652 -625982725 1001038027 -1719158645 594949407 702081657 281744582 392533535 412521903 705765745
REM
CELL 1.54180   50.00000   50.00000   50.00000   90.00000   90.00000   90.00000
LATT -1
SFAC C  
C      1  0.5808030000000  0.4711730000000  0.4746900000000 1.0
C      1  0.5275220000000  0.4684770000000  0.4767930000000 1.0
C      1  0.5047970000000  0.4919500000000  0.4157360000000 1.0
C      1  0.4382140000000  0.4776840000000  0.4514480000000 1.0
C      1  0.4710450000000  0.5162830000000  0.4933520000000 1.0
C      1  0.5627890000000  0.5233930000000  0.4618880000000 1.0
C      1  0.4604360000000  0.5535590000000  0.5283460000000 1.0
C      1  0.5456660000000  0.5713150000000  0.5312590000000 1.0
C      1  0.4659010000000  0.4484190000000  0.4983780000000 1.0
C      1  0.4270600000000  0.5140410000000  0.5168640000000 1.0
C      1  0.4765850000000  0.5268860000000  0.5220820000000 1.0
C      1  0.5609800000000  0.4613130000000  0.5396490000000 1.0
C      1  0.4965250000000  0.5279880000000  0.4810270000000 1.0
C      1  0.5414070000000  0.4385570000000  0.5317720000000 1.0
C      1  0.4973510000000  0.5789130000000  0.5126740000000 1.0
C      1  0.5259240000000  0.5653400000000  0.5503990000000 1.0
C      1  0.4227710000000  0.4668220000000  0.5082800000000 1.0
C      1  0.4664890000000  0.4448230000000  0.4413920000000 1.0
C      1  0.5651240000000  0.5326130000000  0.5131650000000 1.0
C      1  0.4955730000000  0.4265270000000  0.5304780000000 1.0
C      1  0.5263830000000  0.5497980000000  0.4438950000000 1.0
C      1  0.5472370000000  0.4776400000000  0.4382000000000 1.0
C      1  0.4648240000000  0.5683800000000  0.4821780000000 1.0
C      1  0.4625920000000  0.5156600000000  0.4159430000000 1.0
C      1  0.4708580000000  0.4421080000000  0.5275760000000 1.0
C      1  0.4894890000000  0.4813390000000  0.5359780000000 1.0
C      1  0.5609390000000  0.5124470000000  0.5609010000000 1.0
C      1  0.5145850000000  0.5363650000000  0.5525290000000 1.0
C      1  0.5516330000000  0.5507860000000  0.4593080000000 1.0
C      1  0.4653520000000  0.4749280000000  0.4397340000000 1.0
C      1  0.4720330000000  0.5142070000000  0.5697640000000 1.0
C      1  0.4738640000000  0.4913670000000  0.5863840000000 1.0
C      1  0.4768880000000  0.5621780000000  0.5547880000000 1.0
C      1  0.5547910000000  0.4753760000000  0.5645500000000 1.0
C      1  0.5717280000000  0.5240560000000  0.5385350000000 1.0
C      1  0.5269940000000  0.4847100000000  0.5685000000000 1.0
C      1  0.5044090000000  0.4662000000000  0.5588630000000 1.0
C      1  0.5290360000000  0.4984440000000  0.4761940000000 1.0
C      1  0.4859140000000  0.4847520000000  0.4599590000000 1.0
C      1  0.5322030000000  0.5134210000000  0.5630280000000 1.0
C      1  0.4347110000000  0.4502620000000  0.4615140000000 1.0
C      1  0.4777270000000  0.4655020000000  0.5750660000000 1.0
C      1  0.5070650000000  0.4636160000000  0.4553070000000 1.0
C      1  0.4212610000000  0.4941540000000  0.4954510000000 1.0
C      1  0.4753320000000  0.4907540000000  0.4155820000000 1.0
C      1  0.5579480000000  0.5596790000000  0.5092520000000 1.0
C      1  0.5155040000000  0.4394230000000  0.5479170000000 1.0
C      1  0.4575080000000  0.4554280000000  0.5505230000000 1.0
C      1  0.4682160000000  0.5263940000000  0.4412140000000 1.0
C      1  0.5480300000000  0.4355560000000  0.4766860000000 1.0
C      1  0.5415510000000  0.5052180000000  0.4507930000000 1.0
C      1  0.4932060000000  0.5150230000000  0.4531400000000 1.0
C      1  0.5603580000000  0.4581490000000  0.4598980000000 1.0
C      1  0.4374140000000  0.4980800000000  0.4715540000000 1.0
C      1  0.5677640000000  0.5148530000000  0.4905230000000 1.0
C      1  0.4690900000000  0.5760390000000  0.5101630000000 1.0
C      1  0.5232210000000  0.4914220000000  0.5189650000000 1.0
C      1  0.5066300000000  0.4218240000000  0.5028490000000 1.0
C      1  0.4395090000000  0.5000420000000  0.5396910000000 1.0
C      1  0.4979680000000  0.4771750000000  0.5079790000000 1.0
C      1  0.4340530000000  0.4713530000000  0.5382520000000 1.0
C      1  0.4474730000000  0.5250400000000  0.4637510000000 1.0
C      1  0.4843510000000  0.4292020000000  0.4835320000000 1.0
C      1  0.5059870000000  0.5310090000000  0.5242680000000 1.0
C      1  0.5485560000000  0.4731960000000  0.5135850000000 1.0
C      1  0.4429330000000  0.5482770000000  0.4826360000000 1.0
C      1  0.4690760000000  0.5054250000000  0.5419680000000 1.0
C      1  0.4948070000000  0.5588030000000  0.4793110000000 1.0
C      1  0.5069380000000  0.5670480000000  0.4546020000000 1.0
C      1  0.4757700000000  0.4847320000000  0.4891700000000 1.0
C      1  0.5711380000000  0.4860110000000  0.4963410000000 1.0
C      1  0.5526910000000  0.5663770000000  0.4827960000000 1.0
C      1  0.4911700000000  0.4374660000000  0.4556810000000 1.0
C      1  0.5336620000000  0.4337070000000  0.5022370000000 1.0
C      1  0.5197740000000  0.4702760000000  0.4288340000000 1.0
C      1  0.5252780000000  0.5178580000000  0.5021190000000 1.0
C      1  0.5191730000000  0.5204620000000  0.4364310000000 1.0
C      1  0.4362490000000  0.5420560000000  0.5110520000000 1.0
C      1  0.4890620000000  0.5387160000000  0.5700070000000 1.0
C      1  0.4999320000000  0.5778070000000  0.5421050000000 1.0
C      1  0.4371970000000  0.4463500000000  0.4907750000000 1.0
END
