TITL C-951343-2256-31 1.73024109346683e-06 125000 -769.716279878168 0 0 125 (C1) n - 1
REM
REM in /home/bkarasulu/work/CARBON/AIRSS/Generating-Clusters/EDIP-Nigel-Params/with-SteepDescent/Only-C1/SD-CG/HFTN-CG
REM
REM
REM
REM
REM
REM ./C.cell (11c1c37f851c82e70ff6c80c92926a4b)
REM
REM compiler GCC version 9.2.1 20190827 (Red Hat 9.2.1-1)
REM options -cpp -mtune=generic -march=x86-64 -g -O0 -fpre-include=/usr/include/finclude/math-vector-fortran.h
REM seed -323753887 -232018610 -2132640730 -903730657 347249181 -1523506445 2132352045 2124080162 -626376038 -388195688 -886544632 1548992283 -643207175 -33089816 -1122538401 798468793 250304572 1497073090 381758571 1331691320 -2101141647 -1861536626 -207333583 936724847 1515510369 1628043885 1228326197 859880984 862237205 -1639044170 954849172 -1187105387 801586234
REM
CELL 1.54180   50.00000   50.00000   50.00000   90.00000   90.00000   90.00000
LATT -1
SFAC C  
C      1  0.4113030000000  0.5183730000000  0.4605270000000 1.0
C      1  0.4228220000000  0.5409530000000  0.4476640000000 1.0
C      1  0.4620320000000  0.5062270000000  0.5764400000000 1.0
C      1  0.5985150000000  0.4894580000000  0.5272270000000 1.0
C      1  0.5280300000000  0.5028900000000  0.5291020000000 1.0
C      1  0.4545650000000  0.4809770000000  0.4182150000000 1.0
C      1  0.4439810000000  0.5053850000000  0.5285110000000 1.0
C      1  0.4425770000000  0.5549630000000  0.4649930000000 1.0
C      1  0.5644220000000  0.4303960000000  0.5543010000000 1.0
C      1  0.5541500000000  0.5430610000000  0.4389230000000 1.0
C      1  0.5807700000000  0.5228620000000  0.4783690000000 1.0
C      1  0.4769180000000  0.4083460000000  0.4946610000000 1.0
C      1  0.4329810000000  0.5523230000000  0.5422770000000 1.0
C      1  0.5704100000000  0.5518720000000  0.5467030000000 1.0
C      1  0.5234940000000  0.4583130000000  0.4327380000000 1.0
C      1  0.4138260000000  0.4269870000000  0.5299770000000 1.0
C      1  0.4343450000000  0.5679490000000  0.5174850000000 1.0
C      1  0.4885110000000  0.5762970000000  0.5623500000000 1.0
C      1  0.4133160000000  0.4675750000000  0.4856770000000 1.0
C      1  0.5180480000000  0.4697690000000  0.5771790000000 1.0
C      1  0.4474190000000  0.4752350000000  0.5272400000000 1.0
C      1  0.4308920000000  0.5152880000000  0.5543210000000 1.0
C      1  0.4330250000000  0.4300570000000  0.5117180000000 1.0
C      1  0.5564710000000  0.5708130000000  0.4407380000000 1.0
C      1  0.4893730000000  0.5752710000000  0.4714850000000 1.0
C      1  0.5658050000000  0.4839330000000  0.5665500000000 1.0
C      1  0.4622260000000  0.4564230000000  0.5851240000000 1.0
C      1  0.4568980000000  0.4133340000000  0.5163670000000 1.0
C      1  0.4412540000000  0.5484550000000  0.4961430000000 1.0
C      1  0.5139920000000  0.4366150000000  0.4548370000000 1.0
C      1  0.4829150000000  0.5584490000000  0.4261060000000 1.0
C      1  0.5008270000000  0.4878200000000  0.5927920000000 1.0
C      1  0.5160110000000  0.5818860000000  0.4635640000000 1.0
C      1  0.4779550000000  0.5290970000000  0.5878220000000 1.0
C      1  0.4126190000000  0.4799040000000  0.4572950000000 1.0
C      1  0.5463290000000  0.5549920000000  0.5637510000000 1.0
C      1  0.4289050000000  0.5204460000000  0.5056180000000 1.0
C      1  0.6020930000000  0.4803700000000  0.4506100000000 1.0
C      1  0.5161240000000  0.5079560000000  0.5558940000000 1.0
C      1  0.4759160000000  0.4476210000000  0.5615800000000 1.0
C      1  0.5345120000000  0.4201430000000  0.4692350000000 1.0
C      1  0.4696650000000  0.4165150000000  0.5428510000000 1.0
C      1  0.5721830000000  0.4982080000000  0.4333550000000 1.0
C      1  0.5379600000000  0.5270300000000  0.5741150000000 1.0
C      1  0.4682080000000  0.4372930000000  0.4340950000000 1.0
C      1  0.5040720000000  0.5577320000000  0.5439790000000 1.0
C      1  0.5817070000000  0.5481970000000  0.4944740000000 1.0
C      1  0.4611890000000  0.5459920000000  0.5452320000000 1.0
C      1  0.4753640000000  0.4598760000000  0.4178040000000 1.0
C      1  0.5033500000000  0.4662830000000  0.4114170000000 1.0
C      1  0.5279220000000  0.4120840000000  0.4964420000000 1.0
C      1  0.4664610000000  0.5554410000000  0.4039750000000 1.0
C      1  0.4305500000000  0.5346950000000  0.4216970000000 1.0
C      1  0.5300870000000  0.5321470000000  0.4272630000000 1.0
C      1  0.5057000000000  0.5176710000000  0.5924650000000 1.0
C      1  0.5067920000000  0.5239080000000  0.4843280000000 1.0
C      1  0.5435910000000  0.4273810000000  0.5349200000000 1.0
C      1  0.5845980000000  0.4717890000000  0.5465810000000 1.0
C      1  0.5953680000000  0.4689020000000  0.4784190000000 1.0
C      1  0.5619430000000  0.5452980000000  0.5180240000000 1.0
C      1  0.5920880000000  0.4909430000000  0.4974960000000 1.0
C      1  0.5443060000000  0.5836060000000  0.4620450000000 1.0
C      1  0.5546250000000  0.4404240000000  0.5782080000000 1.0
C      1  0.6003730000000  0.5145320000000  0.5391900000000 1.0
C      1  0.4726830000000  0.5552170000000  0.4550190000000 1.0
C      1  0.5488530000000  0.5182250000000  0.5157260000000 1.0
C      1  0.5315320000000  0.4999190000000  0.4736460000000 1.0
C      1  0.4721390000000  0.5499730000000  0.5028210000000 1.0
C      1  0.4927150000000  0.5108330000000  0.4377940000000 1.0
C      1  0.4976660000000  0.4096080000000  0.5362580000000 1.0
C      1  0.4988420000000  0.4587880000000  0.5223530000000 1.0
C      1  0.4818230000000  0.5257530000000  0.4621330000000 1.0
C      1  0.5190990000000  0.4792270000000  0.5155090000000 1.0
C      1  0.4835940000000  0.4987430000000  0.5529130000000 1.0
C      1  0.4313660000000  0.4684030000000  0.4361480000000 1.0
C      1  0.5259180000000  0.4754780000000  0.4881390000000 1.0
C      1  0.5645360000000  0.5124180000000  0.5720990000000 1.0
C      1  0.4705930000000  0.5538500000000  0.5727940000000 1.0
C      1  0.5013300000000  0.5954790000000  0.5113000000000 1.0
C      1  0.4383520000000  0.4587970000000  0.5027260000000 1.0
C      1  0.4449800000000  0.4460290000000  0.4480580000000 1.0
C      1  0.5470830000000  0.4670140000000  0.5817520000000 1.0
C      1  0.3849240000000  0.5009730000000  0.5084510000000 1.0
C      1  0.5751600000000  0.5245060000000  0.4481870000000 1.0
C      1  0.5351290000000  0.5870560000000  0.5272350000000 1.0
C      1  0.4755450000000  0.4703760000000  0.5403320000000 1.0
C      1  0.4947250000000  0.4803770000000  0.4512890000000 1.0
C      1  0.5082980000000  0.5481710000000  0.4213990000000 1.0
C      1  0.5310160000000  0.5047090000000  0.4190760000000 1.0
C      1  0.5019620000000  0.4033230000000  0.5076240000000 1.0
C      1  0.4835130000000  0.5211300000000  0.5061700000000 1.0
C      1  0.5604780000000  0.4299040000000  0.4667990000000 1.0
C      1  0.4536380000000  0.5310780000000  0.4071300000000 1.0
C      1  0.4877880000000  0.4511870000000  0.4950690000000 1.0
C      1  0.5267090000000  0.5746040000000  0.5528480000000 1.0
C      1  0.4652060000000  0.4770710000000  0.4608010000000 1.0
C      1  0.4707950000000  0.5069100000000  0.4138710000000 1.0
C      1  0.4627010000000  0.4609510000000  0.4858360000000 1.0
C      1  0.5183410000000  0.5516380000000  0.4953950000000 1.0
C      1  0.5570960000000  0.5067980000000  0.4904540000000 1.0
C      1  0.3915460000000  0.4763910000000  0.5003710000000 1.0
C      1  0.4704220000000  0.5179070000000  0.5333450000000 1.0
C      1  0.4587050000000  0.5054550000000  0.4685680000000 1.0
C      1  0.5693360000000  0.4563450000000  0.4660420000000 1.0
C      1  0.5430070000000  0.5661610000000  0.5072100000000 1.0
C      1  0.4597210000000  0.5853310000000  0.5173230000000 1.0
C      1  0.4775080000000  0.5943400000000  0.4914710000000 1.0
C      1  0.4307020000000  0.5063360000000  0.4791740000000 1.0
C      1  0.4712640000000  0.4821280000000  0.5921770000000 1.0
C      1  0.5061400000000  0.4600340000000  0.4737130000000 1.0
C      1  0.5871540000000  0.4438100000000  0.5448940000000 1.0
C      1  0.5056680000000  0.4449670000000  0.5681660000000 1.0
C      1  0.5061440000000  0.4951990000000  0.4043550000000 1.0
C      1  0.5141540000000  0.4338930000000  0.5409380000000 1.0
C      1  0.5495380000000  0.4101060000000  0.5137740000000 1.0
C      1  0.5593230000000  0.5774890000000  0.4857980000000 1.0
C      1  0.5366380000000  0.4863100000000  0.4425240000000 1.0
C      1  0.5845860000000  0.5285280000000  0.5576180000000 1.0
C      1  0.4014530000000  0.5206810000000  0.5184880000000 1.0
C      1  0.4724800000000  0.5913190000000  0.5431200000000 1.0
C      1  0.4884280000000  0.4210850000000  0.4476040000000 1.0
C      1  0.5766070000000  0.4682120000000  0.4388750000000 1.0
C      1  0.4033920000000  0.5199950000000  0.5467260000000 1.0
C      1  0.4989310000000  0.5637770000000  0.5151620000000 1.0
C      1  0.4763420000000  0.4046560000000  0.4669220000000 1.0
END
