TITL C-951343-2256-753 -2.5686437902448e-06 125000 -438.621645788786 0 0 73 (C1) n - 1
REM
REM in /home/bkarasulu/work/CARBON/AIRSS/Generating-Clusters/EDIP-Nigel-Params/with-SteepDescent/Only-C1/SD-CG/HFTN-CG
REM
REM
REM
REM
REM
REM ./C.cell (11c1c37f851c82e70ff6c80c92926a4b)
REM
REM compiler GCC version 9.2.1 20190827 (Red Hat 9.2.1-1)
REM options -cpp -mtune=generic -march=x86-64 -g -O0 -fpre-include=/usr/include/finclude/math-vector-fortran.h
REM seed 876977058 1439820594 -1129156561 887886322 -581239651 -699882895 862346882 -1246763859 100751141 -1909872919 931954543 -877547426 -898786341 316135750 -16553613 2056493586 1682098251 -427868552 -491238269 1238557915 -2016775002 -2010512196 -758972472 539133544 1134279104 -1721148370 1554092422 782643089 -1672512978 693179420 -1077183531 450225196 -401512369
REM
CELL 1.54180   50.00000   50.00000   50.00000   90.00000   90.00000   90.00000
LATT -1
SFAC C  
C      1  0.5025900000000  0.4745900000000  0.4682110000000 1.0
C      1  0.4504900000000  0.4504250000000  0.5063040000000 1.0
C      1  0.5292790000000  0.4691010000000  0.4803880000000 1.0
C      1  0.4206480000000  0.5275130000000  0.5376940000000 1.0
C      1  0.4385300000000  0.5165360000000  0.4502900000000 1.0
C      1  0.4905050000000  0.4940260000000  0.5311310000000 1.0
C      1  0.5141440000000  0.4915880000000  0.5714390000000 1.0
C      1  0.5437290000000  0.5549120000000  0.5059280000000 1.0
C      1  0.5379300000000  0.4730500000000  0.5691440000000 1.0
C      1  0.5644370000000  0.4793830000000  0.5318120000000 1.0
C      1  0.4299780000000  0.4720460000000  0.4685730000000 1.0
C      1  0.4785230000000  0.4987060000000  0.4788330000000 1.0
C      1  0.4113360000000  0.5128380000000  0.5158740000000 1.0
C      1  0.4947200000000  0.5860670000000  0.5113330000000 1.0
C      1  0.4270410000000  0.4648700000000  0.4966780000000 1.0
C      1  0.5303310000000  0.4480990000000  0.5579890000000 1.0
C      1  0.4947840000000  0.5566010000000  0.5077230000000 1.0
C      1  0.5197160000000  0.5484390000000  0.4916040000000 1.0
C      1  0.5510690000000  0.4632810000000  0.4622220000000 1.0
C      1  0.5554890000000  0.5331690000000  0.5444750000000 1.0
C      1  0.4781930000000  0.5581240000000  0.4539510000000 1.0
C      1  0.4193510000000  0.4834260000000  0.5195840000000 1.0
C      1  0.4723490000000  0.4567340000000  0.4313240000000 1.0
C      1  0.5191100000000  0.5656570000000  0.4687870000000 1.0
C      1  0.4661730000000  0.5294450000000  0.5583180000000 1.0
C      1  0.5515720000000  0.4398700000000  0.5135850000000 1.0
C      1  0.5279990000000  0.4468710000000  0.5007580000000 1.0
C      1  0.4435570000000  0.4822590000000  0.5371990000000 1.0
C      1  0.5152420000000  0.5300220000000  0.5720430000000 1.0
C      1  0.5361870000000  0.4957340000000  0.4931190000000 1.0
C      1  0.5763230000000  0.4758160000000  0.4646050000000 1.0
C      1  0.4886590000000  0.5208860000000  0.5751620000000 1.0
C      1  0.4799460000000  0.4851490000000  0.4313590000000 1.0
C      1  0.4439340000000  0.5416620000000  0.5432270000000 1.0
C      1  0.5286200000000  0.5254900000000  0.5473160000000 1.0
C      1  0.4352800000000  0.5405760000000  0.4640210000000 1.0
C      1  0.5089360000000  0.4346720000000  0.5450810000000 1.0
C      1  0.5365390000000  0.4853110000000  0.5212020000000 1.0
C      1  0.5725480000000  0.5190390000000  0.5007000000000 1.0
C      1  0.5165880000000  0.5083690000000  0.5251610000000 1.0
C      1  0.5164070000000  0.5181700000000  0.4839990000000 1.0
C      1  0.4554330000000  0.4552870000000  0.5343470000000 1.0
C      1  0.4984370000000  0.5778180000000  0.4563730000000 1.0
C      1  0.5568030000000  0.5063860000000  0.4306920000000 1.0
C      1  0.5405370000000  0.5272740000000  0.4413050000000 1.0
C      1  0.5833030000000  0.4941420000000  0.5120490000000 1.0
C      1  0.5137340000000  0.5173550000000  0.4526990000000 1.0
C      1  0.4558750000000  0.5570150000000  0.4736260000000 1.0
C      1  0.4497820000000  0.5583260000000  0.5218130000000 1.0
C      1  0.4872340000000  0.4248320000000  0.4694600000000 1.0
C      1  0.5754910000000  0.5023520000000  0.4520430000000 1.0
C      1  0.4907050000000  0.4807280000000  0.5563000000000 1.0
C      1  0.4603000000000  0.5149810000000  0.5005980000000 1.0
C      1  0.4674520000000  0.4405220000000  0.4551930000000 1.0
C      1  0.5887210000000  0.4775010000000  0.4899600000000 1.0
C      1  0.4191580000000  0.4970090000000  0.4588140000000 1.0
C      1  0.5076560000000  0.4885310000000  0.4433500000000 1.0
C      1  0.4586280000000  0.4253330000000  0.4959500000000 1.0
C      1  0.4680150000000  0.5082420000000  0.4506320000000 1.0
C      1  0.4310470000000  0.5088730000000  0.4928440000000 1.0
C      1  0.4593190000000  0.4676340000000  0.4664380000000 1.0
C      1  0.4868880000000  0.5312610000000  0.4452540000000 1.0
C      1  0.4869280000000  0.4203050000000  0.4984840000000 1.0
C      1  0.4653180000000  0.5468200000000  0.5005690000000 1.0
C      1  0.4990670000000  0.5711310000000  0.5334070000000 1.0
C      1  0.5628610000000  0.4844180000000  0.5607560000000 1.0
C      1  0.4835510000000  0.4530890000000  0.5467860000000 1.0
C      1  0.5024340000000  0.4406270000000  0.5150820000000 1.0
C      1  0.4634230000000  0.5046170000000  0.5294720000000 1.0
C      1  0.5732170000000  0.5244810000000  0.4713340000000 1.0
C      1  0.5630080000000  0.5397980000000  0.5184730000000 1.0
C      1  0.5706500000000  0.4510390000000  0.5288550000000 1.0
C      1  0.5562440000000  0.5437510000000  0.4588970000000 1.0
END
