TITL C-951334-9093-521 -1.8244869412969e-06 125000 -573.287179102944 0 0 94 (C1) n - 1
REM
REM in /home/bkarasulu/work/CARBON/AIRSS/Generating-Clusters/EDIP-Nigel-Params/with-SteepDescent/Only-C1/SD-CG/HFTN-CG
REM
REM
REM
REM
REM
REM ./C.cell (11c1c37f851c82e70ff6c80c92926a4b)
REM
REM compiler GCC version 9.2.1 20190827 (Red Hat 9.2.1-1)
REM options -cpp -mtune=generic -march=x86-64 -g -O0 -fpre-include=/usr/include/finclude/math-vector-fortran.h
REM seed 1815248756 -1081757850 2012943133 -242783921 -732905566 1628628768 -870600048 -329358056 1886217185 -2041588166 246654116 1767885073 -46163528 -1079362858 1211633055 -798231221 -1811996623 1524983327 -1312721634 -2000937355 -374059809 -1741035592 2118674023 184946866 -1499026307 83069589 -568797775 -69142306 -1701025988 392936494 -1386176270 -807911669 1425922493
REM
CELL 1.54180   50.00000   50.00000   50.00000   90.00000   90.00000   90.00000
LATT -1
SFAC C  
C      1  0.4935060000000  0.5019810000000  0.4115360000000 1.0
C      1  0.4976960000000  0.4793190000000  0.4311980000000 1.0
C      1  0.4511210000000  0.5717340000000  0.5036840000000 1.0
C      1  0.4626010000000  0.4175630000000  0.4983510000000 1.0
C      1  0.5132460000000  0.5579670000000  0.5581220000000 1.0
C      1  0.5701330000000  0.5173370000000  0.4698560000000 1.0
C      1  0.5514200000000  0.5826220000000  0.5236090000000 1.0
C      1  0.4640010000000  0.4298880000000  0.5252750000000 1.0
C      1  0.4436070000000  0.5304000000000  0.4431050000000 1.0
C      1  0.4298770000000  0.4883660000000  0.4636120000000 1.0
C      1  0.4309760000000  0.4486680000000  0.5010980000000 1.0
C      1  0.4838890000000  0.4192590000000  0.5455720000000 1.0
C      1  0.4359030000000  0.4796510000000  0.5369190000000 1.0
C      1  0.4941820000000  0.5104270000000  0.4541590000000 1.0
C      1  0.5318770000000  0.4479710000000  0.4798100000000 1.0
C      1  0.5373890000000  0.4866660000000  0.5481980000000 1.0
C      1  0.5789690000000  0.5153780000000  0.4980570000000 1.0
C      1  0.4664210000000  0.5429690000000  0.5635460000000 1.0
C      1  0.5109740000000  0.4991610000000  0.5588780000000 1.0
C      1  0.4244410000000  0.5172510000000  0.4610060000000 1.0
C      1  0.4785590000000  0.4218320000000  0.4522740000000 1.0
C      1  0.5235770000000  0.5165030000000  0.5185590000000 1.0
C      1  0.4827150000000  0.5595610000000  0.4519880000000 1.0
C      1  0.4796320000000  0.5708010000000  0.5069140000000 1.0
C      1  0.5437500000000  0.5310090000000  0.5796020000000 1.0
C      1  0.5441270000000  0.5338560000000  0.4666160000000 1.0
C      1  0.5215110000000  0.4711340000000  0.4997340000000 1.0
C      1  0.5779700000000  0.5695380000000  0.5230660000000 1.0
C      1  0.5363410000000  0.5588400000000  0.5394650000000 1.0
C      1  0.4374070000000  0.4248850000000  0.4869750000000 1.0
C      1  0.5810100000000  0.5400970000000  0.5155800000000 1.0
C      1  0.4701630000000  0.4987250000000  0.5777480000000 1.0
C      1  0.5408070000000  0.4966810000000  0.4218480000000 1.0
C      1  0.5554740000000  0.5437620000000  0.5570300000000 1.0
C      1  0.5406670000000  0.5816520000000  0.4946850000000 1.0
C      1  0.4985060000000  0.5764950000000  0.4683200000000 1.0
C      1  0.5704870000000  0.4906440000000  0.4598920000000 1.0
C      1  0.4423880000000  0.4512250000000  0.5281220000000 1.0
C      1  0.4208470000000  0.5341130000000  0.4850580000000 1.0
C      1  0.4964940000000  0.4505990000000  0.4211030000000 1.0
C      1  0.5329970000000  0.4547220000000  0.4497400000000 1.0
C      1  0.4937140000000  0.4679790000000  0.5095490000000 1.0
C      1  0.4825150000000  0.4941530000000  0.5163550000000 1.0
C      1  0.4891980000000  0.5726100000000  0.5501450000000 1.0
C      1  0.4653680000000  0.5030320000000  0.4693380000000 1.0
C      1  0.4715720000000  0.4739660000000  0.4652850000000 1.0
C      1  0.5395900000000  0.4642050000000  0.5236630000000 1.0
C      1  0.5264430000000  0.4410760000000  0.5415750000000 1.0
C      1  0.5256820000000  0.4823050000000  0.4413390000000 1.0
C      1  0.4678880000000  0.5110130000000  0.4982500000000 1.0
C      1  0.4984450000000  0.4545200000000  0.5379240000000 1.0
C      1  0.4923590000000  0.5879650000000  0.5255790000000 1.0
C      1  0.5289000000000  0.5438540000000  0.5150110000000 1.0
C      1  0.5258010000000  0.5000110000000  0.4947410000000 1.0
C      1  0.4211300000000  0.4916750000000  0.5140980000000 1.0
C      1  0.5193870000000  0.5405910000000  0.4233010000000 1.0
C      1  0.5826050000000  0.4642420000000  0.5235310000000 1.0
C      1  0.5210440000000  0.5139740000000  0.4104210000000 1.0
C      1  0.5140710000000  0.4230020000000  0.4859540000000 1.0
C      1  0.5807080000000  0.5376570000000  0.5447350000000 1.0
C      1  0.5853510000000  0.4867090000000  0.5044030000000 1.0
C      1  0.5761010000000  0.4652280000000  0.5505930000000 1.0
C      1  0.5171010000000  0.4083220000000  0.5091350000000 1.0
C      1  0.5405970000000  0.5466650000000  0.4409400000000 1.0
C      1  0.5372160000000  0.4445550000000  0.5685810000000 1.0
C      1  0.4552360000000  0.5527600000000  0.4577970000000 1.0
C      1  0.4459230000000  0.4846160000000  0.4281460000000 1.0
C      1  0.4252860000000  0.5370590000000  0.5338310000000 1.0
C      1  0.4420760000000  0.5273700000000  0.5548070000000 1.0
C      1  0.5187240000000  0.4372390000000  0.4325580000000 1.0
C      1  0.4587950000000  0.5355670000000  0.5144180000000 1.0
C      1  0.4390420000000  0.5578370000000  0.4816710000000 1.0
C      1  0.5451680000000  0.5518910000000  0.4920750000000 1.0
C      1  0.5784630000000  0.4721450000000  0.4801280000000 1.0
C      1  0.4804360000000  0.4564380000000  0.4858680000000 1.0
C      1  0.4714880000000  0.4385930000000  0.4306940000000 1.0
C      1  0.4914610000000  0.5357020000000  0.4352630000000 1.0
C      1  0.5612270000000  0.4510690000000  0.4939580000000 1.0
C      1  0.4808660000000  0.5378030000000  0.5358510000000 1.0
C      1  0.5111670000000  0.5880590000000  0.4917100000000 1.0
C      1  0.5206130000000  0.5149600000000  0.4705130000000 1.0
C      1  0.4987570000000  0.5114860000000  0.5337390000000 1.0
C      1  0.4485080000000  0.4990860000000  0.5566050000000 1.0
C      1  0.5143190000000  0.5312660000000  0.5743780000000 1.0
C      1  0.5526120000000  0.4681930000000  0.5656860000000 1.0
C      1  0.4581940000000  0.4624710000000  0.4423890000000 1.0
C      1  0.4915150000000  0.4795020000000  0.5735430000000 1.0
C      1  0.4819540000000  0.4545010000000  0.5623110000000 1.0
C      1  0.4819970000000  0.5260250000000  0.5826590000000 1.0
C      1  0.5131290000000  0.4134010000000  0.5360780000000 1.0
C      1  0.4209990000000  0.4747600000000  0.4900060000000 1.0
C      1  0.4595650000000  0.5108710000000  0.4273700000000 1.0
C      1  0.4173070000000  0.5209130000000  0.5116270000000 1.0
C      1  0.4847330000000  0.4278620000000  0.4799670000000 1.0
END
