TITL C-951344-124-522 1.04064107452065e-06 125000 -309.403730843408 0 0 52 (C1) n - 1
REM
REM in /home/bkarasulu/work/CARBON/AIRSS/Generating-Clusters/EDIP-Nigel-Params/with-SteepDescent/Only-C1/SD-CG/HFTN-CG
REM
REM
REM
REM
REM
REM ./C.cell (11c1c37f851c82e70ff6c80c92926a4b)
REM
REM compiler GCC version 9.2.1 20190827 (Red Hat 9.2.1-1)
REM options -cpp -mtune=generic -march=x86-64 -g -O0 -fpre-include=/usr/include/finclude/math-vector-fortran.h
REM seed -1353973260 -1981123168 1231798300 1093060805 1027653767 948042210 -518664913 374206730 1544149632 1435869558 441900058 1940806548 482290441 -1941650666 -36666280 -557678554 1877550824 -960104794 -1970111004 -2088008315 1168664839 -1207480152 -395463188 1141742494 254041061 600484392 2113997859 -53639866 669440239 2015505635 1853392769 550559341 -327243028
REM
CELL 1.54180   50.00000   50.00000   50.00000   90.00000   90.00000   90.00000
LATT -1
SFAC C  
C      1  0.5016430000000  0.5039340000000  0.4725500000000 1.0
C      1  0.5263960000000  0.5066550000000  0.5747330000000 1.0
C      1  0.4857400000000  0.5611070000000  0.5377420000000 1.0
C      1  0.4746200000000  0.4711520000000  0.5402790000000 1.0
C      1  0.4541450000000  0.5314150000000  0.4966620000000 1.0
C      1  0.4791350000000  0.4881780000000  0.5641150000000 1.0
C      1  0.5244110000000  0.4378400000000  0.5002560000000 1.0
C      1  0.4501130000000  0.4565450000000  0.5362810000000 1.0
C      1  0.5195840000000  0.4764670000000  0.5216960000000 1.0
C      1  0.4557680000000  0.5600320000000  0.5003510000000 1.0
C      1  0.5198190000000  0.4782740000000  0.4826570000000 1.0
C      1  0.4405300000000  0.5161810000000  0.5192030000000 1.0
C      1  0.5006040000000  0.5238730000000  0.5476230000000 1.0
C      1  0.5070450000000  0.5525170000000  0.5522840000000 1.0
C      1  0.5420380000000  0.5265120000000  0.5624480000000 1.0
C      1  0.4486720000000  0.4471790000000  0.5096960000000 1.0
C      1  0.5578990000000  0.4953310000000  0.4526060000000 1.0
C      1  0.4518540000000  0.4941150000000  0.4667570000000 1.0
C      1  0.4426740000000  0.4871800000000  0.5140290000000 1.0
C      1  0.4448270000000  0.5234560000000  0.4686700000000 1.0
C      1  0.5485240000000  0.4743250000000  0.4695270000000 1.0
C      1  0.5058790000000  0.4886390000000  0.5730280000000 1.0
C      1  0.5407530000000  0.5325520000000  0.4839310000000 1.0
C      1  0.5207760000000  0.5266050000000  0.4622030000000 1.0
C      1  0.5435320000000  0.4573270000000  0.5136850000000 1.0
C      1  0.5037700000000  0.5519890000000  0.4651610000000 1.0
C      1  0.5086510000000  0.5075700000000  0.5199020000000 1.0
C      1  0.4796080000000  0.5533320000000  0.4517350000000 1.0
C      1  0.4632500000000  0.4862430000000  0.4928670000000 1.0
C      1  0.4891410000000  0.4811390000000  0.4314370000000 1.0
C      1  0.4731380000000  0.5163750000000  0.5592570000000 1.0
C      1  0.5638270000000  0.5122220000000  0.5339980000000 1.0
C      1  0.5045010000000  0.5561030000000  0.4943750000000 1.0
C      1  0.5401980000000  0.5067800000000  0.4978650000000 1.0
C      1  0.4887930000000  0.4538430000000  0.4428530000000 1.0
C      1  0.4788570000000  0.5007930000000  0.4516690000000 1.0
C      1  0.5182890000000  0.4846640000000  0.4298960000000 1.0
C      1  0.5644220000000  0.4703500000000  0.4957600000000 1.0
C      1  0.4680860000000  0.4573130000000  0.4908910000000 1.0
C      1  0.4868510000000  0.5096950000000  0.4982250000000 1.0
C      1  0.5420140000000  0.5326110000000  0.5335730000000 1.0
C      1  0.4500010000000  0.5217320000000  0.5445870000000 1.0
C      1  0.4712610000000  0.4490500000000  0.4643690000000 1.0
C      1  0.4642130000000  0.5310110000000  0.4460570000000 1.0
C      1  0.5681020000000  0.4995320000000  0.5077450000000 1.0
C      1  0.5304660000000  0.5484270000000  0.5071780000000 1.0
C      1  0.4989940000000  0.4579350000000  0.5309490000000 1.0
C      1  0.4815750000000  0.5635810000000  0.5102680000000 1.0
C      1  0.5343070000000  0.5062120000000  0.4417900000000 1.0
C      1  0.5244410000000  0.4373270000000  0.4719530000000 1.0
C      1  0.5170590000000  0.4513410000000  0.4488580000000 1.0
C      1  0.4992030000000  0.4354380000000  0.5137690000000 1.0
END
