TITL C-950523-3027-271 1.36555234811199e-07 125000 -506.914198788517 0 0 81 (C1) n - 1
REM
REM in /home/bkarasulu/work/CARBON/AIRSS/Generating-Clusters/EDIP-Nigel-Params/with-SteepDescent/Only-C1/SD-CG/HFTN-CG
REM
REM
REM
REM
REM
REM ./C.cell (11c1c37f851c82e70ff6c80c92926a4b)
REM
REM compiler GCC version 9.2.1 20190827 (Red Hat 9.2.1-1)
REM options -cpp -mtune=generic -march=x86-64 -g -O0 -fpre-include=/usr/include/finclude/math-vector-fortran.h
REM seed 1476244389 -1412661877 -1713348698 777035464 1151632841 1724389724 -1341286559 -1032724550 -897636422 698445188 1656495579 2055578312 2112183709 -1273274695 1046477795 -360495823 -1265556490 -1212924349 -16481601 -1834655259 573779985 -353282677 -1940272456 -1899185067 1358973391 -2099006864 -929386252 475516516 542316424 1315094917 -1958740623 1842502126 -803371849
REM
CELL 1.54180   50.00000   50.00000   50.00000   90.00000   90.00000   90.00000
LATT -1
SFAC C  
C      1  0.5567230000000  0.5673490000000  0.4857460000000 1.0
C      1  0.4510580000000  0.4274070000000  0.4791730000000 1.0
C      1  0.5340100000000  0.5070500000000  0.5287180000000 1.0
C      1  0.4202300000000  0.5237370000000  0.5127770000000 1.0
C      1  0.5255290000000  0.4918270000000  0.4714540000000 1.0
C      1  0.5102980000000  0.5170180000000  0.4673740000000 1.0
C      1  0.5583880000000  0.4700080000000  0.5442280000000 1.0
C      1  0.5095300000000  0.4941060000000  0.5186150000000 1.0
C      1  0.4309150000000  0.5219930000000  0.5406810000000 1.0
C      1  0.4840130000000  0.4498330000000  0.4597230000000 1.0
C      1  0.4326700000000  0.5434620000000  0.4925810000000 1.0
C      1  0.4398160000000  0.4553110000000  0.4859420000000 1.0
C      1  0.5173460000000  0.5378830000000  0.5648960000000 1.0
C      1  0.4832530000000  0.5175550000000  0.4778960000000 1.0
C      1  0.4598210000000  0.4887500000000  0.5718720000000 1.0
C      1  0.4300170000000  0.4973230000000  0.5022980000000 1.0
C      1  0.4913000000000  0.5397850000000  0.4243730000000 1.0
C      1  0.5172110000000  0.4424710000000  0.5514170000000 1.0
C      1  0.4810890000000  0.4750370000000  0.5559470000000 1.0
C      1  0.5658330000000  0.4597850000000  0.4986440000000 1.0
C      1  0.5261400000000  0.5039290000000  0.4232110000000 1.0
C      1  0.5352780000000  0.5460250000000  0.4447450000000 1.0
C      1  0.5323350000000  0.4557810000000  0.4469550000000 1.0
C      1  0.4957340000000  0.4229090000000  0.5080210000000 1.0
C      1  0.4162790000000  0.4716350000000  0.5099810000000 1.0
C      1  0.4288830000000  0.4996140000000  0.4725280000000 1.0
C      1  0.5039740000000  0.5480070000000  0.5165080000000 1.0
C      1  0.4804470000000  0.5311420000000  0.5043340000000 1.0
C      1  0.5713770000000  0.5335090000000  0.5156770000000 1.0
C      1  0.5142330000000  0.4751080000000  0.4960930000000 1.0
C      1  0.5446440000000  0.5738500000000  0.5114150000000 1.0
C      1  0.4644240000000  0.5307210000000  0.4582350000000 1.0
C      1  0.5120750000000  0.5663820000000  0.4920040000000 1.0
C      1  0.4455450000000  0.4453030000000  0.5353190000000 1.0
C      1  0.5142490000000  0.4376520000000  0.4611460000000 1.0
C      1  0.5392730000000  0.4496690000000  0.5337160000000 1.0
C      1  0.5696350000000  0.4722340000000  0.4730520000000 1.0
C      1  0.5729200000000  0.4797530000000  0.5197790000000 1.0
C      1  0.4606440000000  0.5539230000000  0.5009270000000 1.0
C      1  0.4358180000000  0.5284250000000  0.4667180000000 1.0
C      1  0.4747320000000  0.5137820000000  0.5796660000000 1.0
C      1  0.4768990000000  0.5270880000000  0.5519540000000 1.0
C      1  0.5339930000000  0.5539120000000  0.4732680000000 1.0
C      1  0.5514010000000  0.5515530000000  0.5291400000000 1.0
C      1  0.4605440000000  0.4924370000000  0.5109530000000 1.0
C      1  0.5594920000000  0.5302890000000  0.4359590000000 1.0
C      1  0.5590350000000  0.5055090000000  0.5096310000000 1.0
C      1  0.4272470000000  0.4677820000000  0.5368040000000 1.0
C      1  0.5068950000000  0.5130290000000  0.5803130000000 1.0
C      1  0.5217890000000  0.4290110000000  0.4897200000000 1.0
C      1  0.5433240000000  0.4937690000000  0.5540160000000 1.0
C      1  0.5799900000000  0.5491300000000  0.4919600000000 1.0
C      1  0.4425560000000  0.4748060000000  0.4622880000000 1.0
C      1  0.4693990000000  0.4169200000000  0.4975600000000 1.0
C      1  0.4811390000000  0.5687830000000  0.4805710000000 1.0
C      1  0.4754540000000  0.5582230000000  0.4539340000000 1.0
C      1  0.4619660000000  0.4635120000000  0.5055930000000 1.0
C      1  0.4743900000000  0.4935390000000  0.4292370000000 1.0
C      1  0.4717010000000  0.4485230000000  0.5456810000000 1.0
C      1  0.5270580000000  0.5356130000000  0.5353990000000 1.0
C      1  0.4650730000000  0.4278550000000  0.4549850000000 1.0
C      1  0.4960480000000  0.5575150000000  0.5628590000000 1.0
C      1  0.5723010000000  0.5188380000000  0.4601340000000 1.0
C      1  0.5115540000000  0.4606600000000  0.5738920000000 1.0
C      1  0.4826540000000  0.4977070000000  0.5329470000000 1.0
C      1  0.5528350000000  0.5097920000000  0.4172300000000 1.0
C      1  0.5595180000000  0.4563290000000  0.4526480000000 1.0
C      1  0.4514620000000  0.5423800000000  0.5475350000000 1.0
C      1  0.5201160000000  0.4881310000000  0.5708540000000 1.0
C      1  0.4939710000000  0.4319600000000  0.5370590000000 1.0
C      1  0.5140380000000  0.5265910000000  0.4386520000000 1.0
C      1  0.4690780000000  0.5210150000000  0.4300920000000 1.0
C      1  0.4602350000000  0.5647010000000  0.5291190000000 1.0
C      1  0.4880420000000  0.4569970000000  0.4908420000000 1.0
C      1  0.5922270000000  0.5349280000000  0.4711490000000 1.0
C      1  0.4895920000000  0.5664640000000  0.5359360000000 1.0
C      1  0.4688210000000  0.4747040000000  0.4491960000000 1.0
C      1  0.5558170000000  0.4986400000000  0.4776600000000 1.0
C      1  0.5195410000000  0.4785480000000  0.4354770000000 1.0
C      1  0.4389930000000  0.4931790000000  0.5496080000000 1.0
C      1  0.5361260000000  0.4525950000000  0.5037640000000 1.0
END
