TITL C-950535-5962-646 -6.17200369210693e-07 125000 -516.703319769488 0 0 83 (C1) n - 1
REM
REM in /home/bkarasulu/work/CARBON/AIRSS/Generating-Clusters/EDIP-Nigel-Params/with-SteepDescent/Only-C1/SD-CG/HFTN-CG
REM
REM
REM
REM
REM
REM ./C.cell (11c1c37f851c82e70ff6c80c92926a4b)
REM
REM compiler GCC version 9.2.1 20190827 (Red Hat 9.2.1-1)
REM options -cpp -mtune=generic -march=x86-64 -g -O0 -fpre-include=/usr/include/finclude/math-vector-fortran.h
REM seed 515460972 2084864712 -1104786378 -805422029 -630581426 -1995306232 770093035 -1254973997 1122924297 -1457678306 -78345812 1080808340 330945765 -1411261034 1248827383 -1616595687 2125084345 -1129831178 1923212723 1217341572 -1057204428 839547372 118780762 1339832265 -431374896 -1034232986 1537604675 1157774968 1994150244 1473661351 -1952492984 -443957907 357708273
REM
CELL 1.54180   50.00000   50.00000   50.00000   90.00000   90.00000   90.00000
LATT -1
SFAC C  
C      1  0.4596270000000  0.4746810000000  0.5358720000000 1.0
C      1  0.5057110000000  0.5085000000000  0.4633990000000 1.0
C      1  0.5323560000000  0.5258220000000  0.5683640000000 1.0
C      1  0.4351920000000  0.4746370000000  0.4657200000000 1.0
C      1  0.4666220000000  0.5711040000000  0.5442020000000 1.0
C      1  0.4234950000000  0.4628270000000  0.4910670000000 1.0
C      1  0.5078250000000  0.5543730000000  0.4876080000000 1.0
C      1  0.4825550000000  0.6030680000000  0.4565330000000 1.0
C      1  0.5564340000000  0.5510920000000  0.4633920000000 1.0
C      1  0.5350710000000  0.5698610000000  0.4560900000000 1.0
C      1  0.5068330000000  0.4885520000000  0.5339420000000 1.0
C      1  0.5610870000000  0.4790190000000  0.5408240000000 1.0
C      1  0.4414170000000  0.4395460000000  0.4999200000000 1.0
C      1  0.5390420000000  0.4395370000000  0.5139490000000 1.0
C      1  0.5211980000000  0.4754390000000  0.5736290000000 1.0
C      1  0.4193160000000  0.4862620000000  0.5101440000000 1.0
C      1  0.4658940000000  0.4515060000000  0.5138320000000 1.0
C      1  0.5198060000000  0.4624160000000  0.5079880000000 1.0
C      1  0.4800800000000  0.4657910000000  0.4883670000000 1.0
C      1  0.4910450000000  0.5284360000000  0.5237940000000 1.0
C      1  0.5295370000000  0.4690960000000  0.4454620000000 1.0
C      1  0.4954100000000  0.4130030000000  0.5036760000000 1.0
C      1  0.5296720000000  0.5088550000000  0.4837460000000 1.0
C      1  0.5304170000000  0.5371320000000  0.4957470000000 1.0
C      1  0.4732840000000  0.5387960000000  0.4274420000000 1.0
C      1  0.4564320000000  0.5198130000000  0.4574390000000 1.0
C      1  0.4727550000000  0.5972450000000  0.5041560000000 1.0
C      1  0.5118710000000  0.4592620000000  0.4788240000000 1.0
C      1  0.4304930000000  0.4824310000000  0.5370750000000 1.0
C      1  0.5558350000000  0.5243130000000  0.4521320000000 1.0
C      1  0.5218150000000  0.5278350000000  0.5229090000000 1.0
C      1  0.5448940000000  0.4627330000000  0.5580490000000 1.0
C      1  0.5646990000000  0.5005040000000  0.4684410000000 1.0
C      1  0.5724210000000  0.5302670000000  0.5083310000000 1.0
C      1  0.4608140000000  0.5144220000000  0.4293200000000 1.0
C      1  0.4809860000000  0.4628020000000  0.4404210000000 1.0
C      1  0.4852060000000  0.4312010000000  0.5245970000000 1.0
C      1  0.5312170000000  0.4911060000000  0.5119290000000 1.0
C      1  0.4393080000000  0.5035430000000  0.5782650000000 1.0
C      1  0.4624640000000  0.4599090000000  0.4641980000000 1.0
C      1  0.5132540000000  0.5666040000000  0.4368850000000 1.0
C      1  0.5634100000000  0.4511160000000  0.4725730000000 1.0
C      1  0.5710660000000  0.5030360000000  0.4976800000000 1.0
C      1  0.5725080000000  0.4779530000000  0.5148150000000 1.0
C      1  0.4265300000000  0.5113980000000  0.4956460000000 1.0
C      1  0.4552060000000  0.4311520000000  0.4738400000000 1.0
C      1  0.4587600000000  0.5773350000000  0.5179510000000 1.0
C      1  0.5408640000000  0.5372430000000  0.5434970000000 1.0
C      1  0.4331150000000  0.5044460000000  0.4679730000000 1.0
C      1  0.5045240000000  0.4832300000000  0.4430560000000 1.0
C      1  0.4973190000000  0.4589600000000  0.5656430000000 1.0
C      1  0.4768570000000  0.4936340000000  0.4957970000000 1.0
C      1  0.5489540000000  0.4297390000000  0.4605530000000 1.0
C      1  0.4948670000000  0.5876680000000  0.4380300000000 1.0
C      1  0.5008480000000  0.5404850000000  0.4333840000000 1.0
C      1  0.4799830000000  0.4995680000000  0.5242880000000 1.0
C      1  0.4910170000000  0.6005390000000  0.4831390000000 1.0
C      1  0.5441360000000  0.5204970000000  0.4271820000000 1.0
C      1  0.5218370000000  0.4299990000000  0.4715030000000 1.0
C      1  0.4798860000000  0.5158590000000  0.4774110000000 1.0
C      1  0.4866870000000  0.5131710000000  0.5716230000000 1.0
C      1  0.5660000000000  0.4507540000000  0.5023980000000 1.0
C      1  0.4658250000000  0.4947480000000  0.5797950000000 1.0
C      1  0.5676430000000  0.5342590000000  0.5356700000000 1.0
C      1  0.5503290000000  0.4750690000000  0.4638650000000 1.0
C      1  0.4895710000000  0.5405320000000  0.5811930000000 1.0
C      1  0.5340200000000  0.4388240000000  0.5431560000000 1.0
C      1  0.5174150000000  0.5442500000000  0.5837900000000 1.0
C      1  0.4226690000000  0.5000320000000  0.5573860000000 1.0
C      1  0.4898480000000  0.4366990000000  0.4352720000000 1.0
C      1  0.4995120000000  0.4184820000000  0.4544810000000 1.0
C      1  0.5653000000000  0.5524020000000  0.4910730000000 1.0
C      1  0.4696550000000  0.4698580000000  0.5643630000000 1.0
C      1  0.4754440000000  0.5600900000000  0.5671160000000 1.0
C      1  0.4829560000000  0.5399740000000  0.4970970000000 1.0
C      1  0.5048060000000  0.4413840000000  0.5442110000000 1.0
C      1  0.4798230000000  0.4134330000000  0.4767100000000 1.0
C      1  0.5132620000000  0.5024740000000  0.5627050000000 1.0
C      1  0.4558210000000  0.5538330000000  0.5005010000000 1.0
C      1  0.5248070000000  0.4166460000000  0.4984010000000 1.0
C      1  0.5162480000000  0.5166780000000  0.4268280000000 1.0
C      1  0.4340000000000  0.5366710000000  0.5055490000000 1.0
C      1  0.5132790000000  0.5825410000000  0.4851760000000 1.0
END
