TITL C-950524-1808-652 -7.53567808102057e-09 125000 -370.553852955035 0 0 61 (C1) n - 1
REM
REM in /home/bkarasulu/work/CARBON/AIRSS/Generating-Clusters/EDIP-Nigel-Params/with-SteepDescent/Only-C1/SD-CG/HFTN-CG
REM
REM
REM
REM
REM
REM ./C.cell (11c1c37f851c82e70ff6c80c92926a4b)
REM
REM compiler GCC version 9.2.1 20190827 (Red Hat 9.2.1-1)
REM options -cpp -mtune=generic -march=x86-64 -g -O0 -fpre-include=/usr/include/finclude/math-vector-fortran.h
REM seed -2069879566 1052213638 -409065649 -958172902 2033574888 469839582 927597661 -3480564 -2073109843 1280101587 517280762 1401739225 -724498545 54101481 501554273 938837395 -1494466669 -1344227009 -447251717 798101457 -2099643731 -1680283123 238637050 333211022 -1644949986 -730666722 775192196 -1830824427 -1750327324 -513016446 -860726169 299660748 -1404700076
REM
CELL 1.54180   50.00000   50.00000   50.00000   90.00000   90.00000   90.00000
LATT -1
SFAC C  
C      1  0.5022170000000  0.4396410000000  0.5194110000000 1.0
C      1  0.5469150000000  0.4523410000000  0.5355740000000 1.0
C      1  0.4942160000000  0.5483300000000  0.4424520000000 1.0
C      1  0.4947290000000  0.5239710000000  0.4268710000000 1.0
C      1  0.4530310000000  0.4695160000000  0.4499880000000 1.0
C      1  0.4471060000000  0.5545540000000  0.5128510000000 1.0
C      1  0.5302490000000  0.4327060000000  0.5205030000000 1.0
C      1  0.5140800000000  0.4351080000000  0.4749730000000 1.0
C      1  0.4575020000000  0.4498050000000  0.5382190000000 1.0
C      1  0.4683550000000  0.5143110000000  0.4244880000000 1.0
C      1  0.5650330000000  0.5005020000000  0.4712670000000 1.0
C      1  0.4547230000000  0.4453070000000  0.4632850000000 1.0
C      1  0.5108670000000  0.5625800000000  0.5418360000000 1.0
C      1  0.5095000000000  0.5326940000000  0.5490650000000 1.0
C      1  0.4385640000000  0.4979220000000  0.4934310000000 1.0
C      1  0.5046160000000  0.4761720000000  0.4433740000000 1.0
C      1  0.4627050000000  0.4875790000000  0.5370790000000 1.0
C      1  0.5130580000000  0.4893830000000  0.4860670000000 1.0
C      1  0.5213480000000  0.4991660000000  0.5123170000000 1.0
C      1  0.5231420000000  0.4647430000000  0.4669360000000 1.0
C      1  0.4562080000000  0.5219400000000  0.4490060000000 1.0
C      1  0.5597150000000  0.4686360000000  0.5144370000000 1.0
C      1  0.4408740000000  0.4969930000000  0.4626170000000 1.0
C      1  0.5030720000000  0.4677070000000  0.5594770000000 1.0
C      1  0.4711470000000  0.5687390000000  0.5078770000000 1.0
C      1  0.5474620000000  0.5247710000000  0.4676480000000 1.0
C      1  0.4839240000000  0.5286180000000  0.5651610000000 1.0
C      1  0.5430940000000  0.5058410000000  0.4267200000000 1.0
C      1  0.4908880000000  0.4333620000000  0.4937080000000 1.0
C      1  0.4656120000000  0.4982700000000  0.5066330000000 1.0
C      1  0.5593660000000  0.5432790000000  0.4994460000000 1.0
C      1  0.5497820000000  0.4964870000000  0.5210170000000 1.0
C      1  0.5544160000000  0.4568680000000  0.4883160000000 1.0
C      1  0.5132110000000  0.5510670000000  0.4763610000000 1.0
C      1  0.5341410000000  0.5571340000000  0.4973050000000 1.0
C      1  0.4824670000000  0.4813480000000  0.4868820000000 1.0
C      1  0.5264830000000  0.5706330000000  0.5202630000000 1.0
C      1  0.4896380000000  0.4827280000000  0.5788060000000 1.0
C      1  0.5551480000000  0.5296200000000  0.4391440000000 1.0
C      1  0.4469310000000  0.5372450000000  0.5345610000000 1.0
C      1  0.4818120000000  0.5687510000000  0.5373060000000 1.0
C      1  0.4763200000000  0.5251190000000  0.5130780000000 1.0
C      1  0.5636910000000  0.4919930000000  0.4430480000000 1.0
C      1  0.4777400000000  0.4854560000000  0.4566800000000 1.0
C      1  0.4702390000000  0.5466410000000  0.4594100000000 1.0
C      1  0.5392860000000  0.4321340000000  0.4917130000000 1.0
C      1  0.4873310000000  0.4512120000000  0.5410160000000 1.0
C      1  0.5182840000000  0.5143010000000  0.4672540000000 1.0
C      1  0.4733480000000  0.5003160000000  0.5640340000000 1.0
C      1  0.5469090000000  0.4981570000000  0.5519240000000 1.0
C      1  0.5149190000000  0.5045290000000  0.4385220000000 1.0
C      1  0.4685840000000  0.4519070000000  0.4878720000000 1.0
C      1  0.4476780000000  0.4506900000000  0.5095140000000 1.0
C      1  0.4653390000000  0.5486270000000  0.5530930000000 1.0
C      1  0.5673490000000  0.5157850000000  0.5052190000000 1.0
C      1  0.4841470000000  0.5517260000000  0.4855810000000 1.0
C      1  0.4334980000000  0.4803590000000  0.5386480000000 1.0
C      1  0.5038810000000  0.5191920000000  0.5237290000000 1.0
C      1  0.5331920000000  0.4706590000000  0.5559590000000 1.0
C      1  0.4282490000000  0.4742810000000  0.5097750000000 1.0
C      1  0.5326740000000  0.5205460000000  0.5612520000000 1.0
END
