TITL C-950527-2551-33 -2.62438648979344e-06 125000 -1104.51864597294 0 0 175 (C1) n - 1
REM
REM in /home/bkarasulu/work/CARBON/AIRSS/Generating-Clusters/EDIP-Nigel-Params/with-SteepDescent/Only-C1/SD-CG/HFTN-CG
REM
REM
REM
REM
REM
REM ./C.cell (11c1c37f851c82e70ff6c80c92926a4b)
REM
REM compiler GCC version 9.2.1 20190827 (Red Hat 9.2.1-1)
REM options -cpp -mtune=generic -march=x86-64 -g -O0 -fpre-include=/usr/include/finclude/math-vector-fortran.h
REM seed -1555188050 1992261773 -661021208 1471145743 1187728655 -854709076 -1977061633 534465776 -1847837912 2141359537 -60755627 2077192126 -323767706 -2138187199 -1833258450 2073367244 1915628434 -972622660 -970157980 -977921065 1627364607 -1544002221 1846879035 -787007648 -1467493594 371355081 978870895 -497426687 1265436075 -1847106405 1080780117 131928879 -514495887
REM
CELL 1.54180   50.00000   50.00000   50.00000   90.00000   90.00000   90.00000
LATT -1
SFAC C  
C      1  0.5842630000000  0.4584430000000  0.5338890000000 1.0
C      1  0.5594960000000  0.4814590000000  0.4162960000000 1.0
C      1  0.5956060000000  0.5335160000000  0.5378010000000 1.0
C      1  0.4486830000000  0.4792670000000  0.4121150000000 1.0
C      1  0.3913660000000  0.5228360000000  0.4933920000000 1.0
C      1  0.4175160000000  0.4563340000000  0.4727330000000 1.0
C      1  0.4138760000000  0.5189900000000  0.4383400000000 1.0
C      1  0.4930290000000  0.5490470000000  0.5903010000000 1.0
C      1  0.4363030000000  0.4437520000000  0.4532090000000 1.0
C      1  0.4533230000000  0.4492610000000  0.4094410000000 1.0
C      1  0.5184360000000  0.4163470000000  0.4149010000000 1.0
C      1  0.4174500000000  0.4548540000000  0.5670090000000 1.0
C      1  0.5132930000000  0.5079790000000  0.4964390000000 1.0
C      1  0.5687050000000  0.4408810000000  0.4795550000000 1.0
C      1  0.5747670000000  0.4479780000000  0.5614550000000 1.0
C      1  0.4712680000000  0.4759010000000  0.5388080000000 1.0
C      1  0.5567980000000  0.5297260000000  0.5663600000000 1.0
C      1  0.5397550000000  0.3927570000000  0.4753250000000 1.0
C      1  0.4029900000000  0.5479660000000  0.4926510000000 1.0
C      1  0.4472190000000  0.4977470000000  0.5741790000000 1.0
C      1  0.5042800000000  0.4300030000000  0.5856170000000 1.0
C      1  0.5558860000000  0.5393770000000  0.5020770000000 1.0
C      1  0.5653390000000  0.5736290000000  0.4615780000000 1.0
C      1  0.4848820000000  0.5968600000000  0.4232970000000 1.0
C      1  0.5010400000000  0.4373650000000  0.4078630000000 1.0
C      1  0.5742110000000  0.5065480000000  0.5710760000000 1.0
C      1  0.3801620000000  0.4909850000000  0.5415720000000 1.0
C      1  0.4711410000000  0.3994240000000  0.5274930000000 1.0
C      1  0.4904970000000  0.4391620000000  0.5251910000000 1.0
C      1  0.4962880000000  0.5891480000000  0.5287280000000 1.0
C      1  0.3888630000000  0.4802810000000  0.5172110000000 1.0
C      1  0.4937510000000  0.4007010000000  0.4587270000000 1.0
C      1  0.4290980000000  0.4475170000000  0.4248440000000 1.0
C      1  0.5207690000000  0.4915870000000  0.5534170000000 1.0
C      1  0.4830720000000  0.4357270000000  0.4938010000000 1.0
C      1  0.5670170000000  0.5653870000000  0.4324620000000 1.0
C      1  0.4640680000000  0.5856620000000  0.4071550000000 1.0
C      1  0.5221280000000  0.4605550000000  0.4860290000000 1.0
C      1  0.5966470000000  0.4437390000000  0.4898330000000 1.0
C      1  0.5991040000000  0.5134020000000  0.4685010000000 1.0
C      1  0.4745020000000  0.4983630000000  0.4033430000000 1.0
C      1  0.6149270000000  0.4892580000000  0.5085000000000 1.0
C      1  0.5142150000000  0.4633260000000  0.4015650000000 1.0
C      1  0.4569880000000  0.5795340000000  0.4531360000000 1.0
C      1  0.6049950000000  0.4812580000000  0.5356600000000 1.0
C      1  0.4522860000000  0.4289720000000  0.5578580000000 1.0
C      1  0.4432420000000  0.5118430000000  0.5234530000000 1.0
C      1  0.4041610000000  0.4419810000000  0.4921300000000 1.0
C      1  0.4601800000000  0.5017080000000  0.5461190000000 1.0
C      1  0.5337750000000  0.5727270000000  0.5790940000000 1.0
C      1  0.5322430000000  0.4245960000000  0.4389100000000 1.0
C      1  0.4545100000000  0.4868630000000  0.4414240000000 1.0
C      1  0.4511670000000  0.5687800000000  0.4263180000000 1.0
C      1  0.4126870000000  0.4418720000000  0.5396110000000 1.0
C      1  0.5747930000000  0.4446850000000  0.4510790000000 1.0
C      1  0.5227200000000  0.5123060000000  0.3970740000000 1.0
C      1  0.4906900000000  0.4899720000000  0.6039010000000 1.0
C      1  0.5710870000000  0.5082850000000  0.5110110000000 1.0
C      1  0.4454370000000  0.4079870000000  0.5146420000000 1.0
C      1  0.4232080000000  0.6032480000000  0.5291730000000 1.0
C      1  0.4141920000000  0.4849080000000  0.4735570000000 1.0
C      1  0.5133340000000  0.4649340000000  0.4569910000000 1.0
C      1  0.5496100000000  0.5081890000000  0.4094340000000 1.0
C      1  0.4466570000000  0.4159640000000  0.4580770000000 1.0
C      1  0.4876480000000  0.5853460000000  0.4938820000000 1.0
C      1  0.5006500000000  0.5505370000000  0.4567820000000 1.0
C      1  0.4199940000000  0.4844230000000  0.5686030000000 1.0
C      1  0.5644650000000  0.5904660000000  0.4968660000000 1.0
C      1  0.5169400000000  0.5309210000000  0.5948120000000 1.0
C      1  0.4839780000000  0.4466510000000  0.5981240000000 1.0
C      1  0.5315950000000  0.5209590000000  0.5466180000000 1.0
C      1  0.4575420000000  0.5076350000000  0.4967690000000 1.0
C      1  0.5907850000000  0.4341040000000  0.5168490000000 1.0
C      1  0.4670520000000  0.4801060000000  0.5896840000000 1.0
C      1  0.5343090000000  0.5202580000000  0.5157370000000 1.0
C      1  0.4602040000000  0.5408940000000  0.4253070000000 1.0
C      1  0.4565910000000  0.4583700000000  0.5196560000000 1.0
C      1  0.5614130000000  0.4765580000000  0.5171880000000 1.0
C      1  0.4762400000000  0.4369410000000  0.4229650000000 1.0
C      1  0.4949650000000  0.6059090000000  0.4705800000000 1.0
C      1  0.5568130000000  0.5446690000000  0.4709610000000 1.0
C      1  0.4503150000000  0.6018820000000  0.5213930000000 1.0
C      1  0.5162240000000  0.5482270000000  0.5542270000000 1.0
C      1  0.4467600000000  0.5271620000000  0.5830690000000 1.0
C      1  0.5214630000000  0.3975530000000  0.5195850000000 1.0
C      1  0.5676380000000  0.4161830000000  0.5099200000000 1.0
C      1  0.5534140000000  0.4880680000000  0.4682110000000 1.0
C      1  0.4674320000000  0.5276290000000  0.3994810000000 1.0
C      1  0.5012090000000  0.4160420000000  0.5611070000000 1.0
C      1  0.4412320000000  0.5738890000000  0.4764050000000 1.0
C      1  0.5236490000000  0.4042280000000  0.5473940000000 1.0
C      1  0.3968990000000  0.5005030000000  0.5617370000000 1.0
C      1  0.5993770000000  0.5136630000000  0.4987390000000 1.0
C      1  0.5242820000000  0.4398230000000  0.5317120000000 1.0
C      1  0.5144190000000  0.4316530000000  0.4922370000000 1.0
C      1  0.4137000000000  0.5562350000000  0.5185890000000 1.0
C      1  0.5722410000000  0.4755350000000  0.4463770000000 1.0
C      1  0.5268730000000  0.5995520000000  0.5335400000000 1.0
C      1  0.5348950000000  0.5900180000000  0.5057300000000 1.0
C      1  0.4389650000000  0.4407060000000  0.5799670000000 1.0
C      1  0.5774990000000  0.5279250000000  0.4555140000000 1.0
C      1  0.5814440000000  0.4617190000000  0.5851170000000 1.0
C      1  0.4724690000000  0.5310310000000  0.4510340000000 1.0
C      1  0.5658480000000  0.5692850000000  0.5398260000000 1.0
C      1  0.4827800000000  0.5384540000000  0.5240730000000 1.0
C      1  0.4811170000000  0.3927320000000  0.4837430000000 1.0
C      1  0.4307400000000  0.5029090000000  0.4555100000000 1.0
C      1  0.5415710000000  0.4686670000000  0.5411990000000 1.0
C      1  0.5521310000000  0.4657540000000  0.4885680000000 1.0
C      1  0.5844990000000  0.5408830000000  0.4296380000000 1.0
C      1  0.4569570000000  0.5539410000000  0.5238430000000 1.0
C      1  0.5072380000000  0.4926730000000  0.4506360000000 1.0
C      1  0.5310400000000  0.4394200000000  0.5886240000000 1.0
C      1  0.5153940000000  0.5011830000000  0.5908140000000 1.0
C      1  0.4717010000000  0.4139860000000  0.4417810000000 1.0
C      1  0.5976780000000  0.5486710000000  0.5121640000000 1.0
C      1  0.5046600000000  0.5734610000000  0.5809560000000 1.0
C      1  0.4253050000000  0.5486030000000  0.4725290000000 1.0
C      1  0.5004690000000  0.5598540000000  0.4847830000000 1.0
C      1  0.5048810000000  0.5586970000000  0.5289570000000 1.0
C      1  0.4525710000000  0.4749730000000  0.4918670000000 1.0
C      1  0.4851970000000  0.5424380000000  0.3832930000000 1.0
C      1  0.4573790000000  0.5786310000000  0.5022070000000 1.0
C      1  0.4708020000000  0.5412520000000  0.5706640000000 1.0
C      1  0.5763010000000  0.5475850000000  0.5537860000000 1.0
C      1  0.4008090000000  0.5285350000000  0.5623750000000 1.0
C      1  0.5696530000000  0.5287150000000  0.4075580000000 1.0
C      1  0.5608620000000  0.4249830000000  0.4358130000000 1.0
C      1  0.5183470000000  0.5967250000000  0.4527030000000 1.0
C      1  0.5083970000000  0.4804380000000  0.5039530000000 1.0
C      1  0.4995870000000  0.4644550000000  0.6153630000000 1.0
C      1  0.4811300000000  0.5225740000000  0.5493850000000 1.0
C      1  0.3959540000000  0.4957200000000  0.4935010000000 1.0
C      1  0.5472080000000  0.4372290000000  0.5632400000000 1.0
C      1  0.6001660000000  0.4853580000000  0.4596180000000 1.0
C      1  0.4579590000000  0.5668490000000  0.5523190000000 1.0
C      1  0.5100530000000  0.5392470000000  0.3964160000000 1.0
C      1  0.4126970000000  0.5788940000000  0.5385770000000 1.0
C      1  0.5031380000000  0.4901770000000  0.3963050000000 1.0
C      1  0.6075980000000  0.4711170000000  0.4855260000000 1.0
C      1  0.5414610000000  0.5470780000000  0.4271440000000 1.0
C      1  0.4250430000000  0.5331470000000  0.5324990000000 1.0
C      1  0.5454000000000  0.5954680000000  0.4633530000000 1.0
C      1  0.4127220000000  0.5451140000000  0.4464370000000 1.0
C      1  0.5442190000000  0.4005600000000  0.5018850000000 1.0
C      1  0.5207930000000  0.4125800000000  0.4659060000000 1.0
C      1  0.4401550000000  0.4333410000000  0.5314500000000 1.0
C      1  0.5804640000000  0.5730980000000  0.5154080000000 1.0
C      1  0.5210940000000  0.5616260000000  0.4122500000000 1.0
C      1  0.5267640000000  0.5066930000000  0.4672610000000 1.0
C      1  0.4999650000000  0.4761260000000  0.5322450000000 1.0
C      1  0.4732120000000  0.6038670000000  0.4503040000000 1.0
C      1  0.5400960000000  0.4866200000000  0.6006050000000 1.0
C      1  0.3971320000000  0.4526420000000  0.5170190000000 1.0
C      1  0.5051580000000  0.5755400000000  0.4345360000000 1.0
C      1  0.4561780000000  0.4086460000000  0.4858380000000 1.0
C      1  0.4223890000000  0.5428920000000  0.5752910000000 1.0
C      1  0.5643870000000  0.4840100000000  0.5846580000000 1.0
C      1  0.4463210000000  0.5237810000000  0.4718940000000 1.0
C      1  0.5428330000000  0.5445660000000  0.5887690000000 1.0
C      1  0.4803670000000  0.5035800000000  0.4414920000000 1.0
C      1  0.4940300000000  0.3959040000000  0.5098630000000 1.0
C      1  0.5292100000000  0.4608810000000  0.6093820000000 1.0
C      1  0.4697720000000  0.5939580000000  0.5434680000000 1.0
C      1  0.4761440000000  0.4615410000000  0.4804750000000 1.0
C      1  0.5340510000000  0.4542030000000  0.4391000000000 1.0
C      1  0.5931940000000  0.5057990000000  0.5486010000000 1.0
C      1  0.5430250000000  0.4618840000000  0.4024760000000 1.0
C      1  0.5298790000000  0.5362360000000  0.4555910000000 1.0
C      1  0.5433330000000  0.5826750000000  0.5517580000000 1.0
C      1  0.4742290000000  0.4103420000000  0.5538960000000 1.0
C      1  0.4294250000000  0.5696530000000  0.5623660000000 1.0
C      1  0.4857680000000  0.5208800000000  0.4998560000000 1.0
C      1  0.4602660000000  0.4611980000000  0.4555780000000 1.0
C      1  0.5241310000000  0.5611740000000  0.5040370000000 1.0
END
