TITL C-950522-5749-595 -1.0371601024723e-06 125000 -479.505081484626 0 0 79 (C1) n - 1
REM
REM in /home/bkarasulu/work/CARBON/AIRSS/Generating-Clusters/EDIP-Nigel-Params/with-SteepDescent/Only-C1/SD-CG/HFTN-CG
REM
REM
REM
REM
REM
REM ./C.cell (11c1c37f851c82e70ff6c80c92926a4b)
REM
REM compiler GCC version 9.2.1 20190827 (Red Hat 9.2.1-1)
REM options -cpp -mtune=generic -march=x86-64 -g -O0 -fpre-include=/usr/include/finclude/math-vector-fortran.h
REM seed -1227899114 -1271400573 -2142572689 -745133739 -361352016 -498760524 -1009444088 -885808160 1899536176 -1159063991 -1013836353 1367912934 2048433549 -772521060 -1858551655 142179438 102319685 1089601827 218229006 216803046 2138817958 1103977342 1327760035 -644513765 -1627473931 244159630 -825190424 135707461 1715581322 436343988 -350126052 -1794250453 336028159
REM
CELL 1.54180   50.00000   50.00000   50.00000   90.00000   90.00000   90.00000
LATT -1
SFAC C  
C      1  0.4599050000000  0.5160950000000  0.4381150000000 1.0
C      1  0.5270910000000  0.5385230000000  0.5778810000000 1.0
C      1  0.4370580000000  0.5294700000000  0.5239110000000 1.0
C      1  0.5374240000000  0.5064950000000  0.5176890000000 1.0
C      1  0.4983810000000  0.5293970000000  0.4182790000000 1.0
C      1  0.5509510000000  0.5319440000000  0.5603530000000 1.0
C      1  0.5333020000000  0.5002250000000  0.4883670000000 1.0
C      1  0.5581380000000  0.5037350000000  0.5576370000000 1.0
C      1  0.5308780000000  0.5689060000000  0.5110790000000 1.0
C      1  0.5511010000000  0.4344580000000  0.5395890000000 1.0
C      1  0.4660610000000  0.4390410000000  0.5087480000000 1.0
C      1  0.5416440000000  0.4753120000000  0.4281300000000 1.0
C      1  0.5132270000000  0.5258740000000  0.4839670000000 1.0
C      1  0.5150160000000  0.4764040000000  0.5413220000000 1.0
C      1  0.5236690000000  0.5265620000000  0.4307740000000 1.0
C      1  0.4661500000000  0.5428800000000  0.4886250000000 1.0
C      1  0.5631990000000  0.5416910000000  0.5243610000000 1.0
C      1  0.4275260000000  0.5143820000000  0.4735010000000 1.0
C      1  0.4638420000000  0.4798070000000  0.5394210000000 1.0
C      1  0.4715520000000  0.5270040000000  0.4138190000000 1.0
C      1  0.4446680000000  0.4892570000000  0.4362630000000 1.0
C      1  0.5752400000000  0.4752730000000  0.5213100000000 1.0
C      1  0.4259690000000  0.4621270000000  0.4767880000000 1.0
C      1  0.4217410000000  0.5154570000000  0.5029660000000 1.0
C      1  0.5729700000000  0.5313110000000  0.4610860000000 1.0
C      1  0.4115430000000  0.4910930000000  0.5122060000000 1.0
C      1  0.5528460000000  0.5551230000000  0.4980600000000 1.0
C      1  0.4249170000000  0.4669990000000  0.5061390000000 1.0
C      1  0.4979550000000  0.5204830000000  0.5452530000000 1.0
C      1  0.5323860000000  0.4503960000000  0.4393630000000 1.0
C      1  0.4831010000000  0.5109090000000  0.4559900000000 1.0
C      1  0.5045620000000  0.5584070000000  0.5041670000000 1.0
C      1  0.4899090000000  0.4700120000000  0.4271550000000 1.0
C      1  0.4914200000000  0.4934730000000  0.5330980000000 1.0
C      1  0.5275520000000  0.4978930000000  0.4387930000000 1.0
C      1  0.4935000000000  0.4346360000000  0.5026700000000 1.0
C      1  0.4938290000000  0.5647740000000  0.4761110000000 1.0
C      1  0.4898490000000  0.5626290000000  0.5552470000000 1.0
C      1  0.5194320000000  0.5631780000000  0.5619020000000 1.0
C      1  0.4812590000000  0.4653070000000  0.4844610000000 1.0
C      1  0.5492650000000  0.4458910000000  0.4900900000000 1.0
C      1  0.4621330000000  0.4961060000000  0.5830810000000 1.0
C      1  0.5652250000000  0.5032690000000  0.5286180000000 1.0
C      1  0.5614730000000  0.4914180000000  0.4769270000000 1.0
C      1  0.5107980000000  0.4746180000000  0.4746960000000 1.0
C      1  0.4276740000000  0.4876260000000  0.4608200000000 1.0
C      1  0.5072590000000  0.4545080000000  0.5597520000000 1.0
C      1  0.4875810000000  0.4302060000000  0.4530390000000 1.0
C      1  0.4471770000000  0.4947370000000  0.5593150000000 1.0
C      1  0.4401620000000  0.4388610000000  0.4684260000000 1.0
C      1  0.5058020000000  0.4288290000000  0.4764180000000 1.0
C      1  0.5506520000000  0.5447980000000  0.4703570000000 1.0
C      1  0.4792690000000  0.5417620000000  0.5725370000000 1.0
C      1  0.5345350000000  0.4891540000000  0.5580980000000 1.0
C      1  0.5009970000000  0.5216780000000  0.5759420000000 1.0
C      1  0.4738000000000  0.5711200000000  0.4562790000000 1.0
C      1  0.5246500000000  0.5306890000000  0.5320300000000 1.0
C      1  0.5264490000000  0.5446000000000  0.4539190000000 1.0
C      1  0.5457160000000  0.4294000000000  0.5126220000000 1.0
C      1  0.5040230000000  0.4437790000000  0.4305810000000 1.0
C      1  0.5703450000000  0.4547300000000  0.5401610000000 1.0
C      1  0.5686620000000  0.4678360000000  0.4930710000000 1.0
C      1  0.4618630000000  0.4653270000000  0.4342960000000 1.0
C      1  0.4363200000000  0.5189790000000  0.5498220000000 1.0
C      1  0.4922010000000  0.5014190000000  0.5038500000000 1.0
C      1  0.4741530000000  0.5137600000000  0.4838030000000 1.0
C      1  0.4839710000000  0.5572620000000  0.5264860000000 1.0
C      1  0.4510570000000  0.5579230000000  0.4671430000000 1.0
C      1  0.4896720000000  0.4955750000000  0.5883210000000 1.0
C      1  0.4576220000000  0.5486630000000  0.5162200000000 1.0
C      1  0.5292580000000  0.4371170000000  0.5571960000000 1.0
C      1  0.5018550000000  0.4704690000000  0.5830380000000 1.0
C      1  0.4520990000000  0.4630290000000  0.5172810000000 1.0
C      1  0.4396860000000  0.5342280000000  0.4539010000000 1.0
C      1  0.5385010000000  0.5680390000000  0.5393110000000 1.0
C      1  0.4657610000000  0.4502500000000  0.4602750000000 1.0
C      1  0.5828880000000  0.5079370000000  0.4693460000000 1.0
C      1  0.5269330000000  0.4491290000000  0.4697700000000 1.0
C      1  0.5017550000000  0.4883430000000  0.4485640000000 1.0
END
