TITL C-951346-9544-784 -1.18765472796529e-06 125000 -1132.03934284424 0 0 182 (C1) n - 1
REM
REM in /home/bkarasulu/work/CARBON/AIRSS/Generating-Clusters/EDIP-Nigel-Params/with-SteepDescent/Only-C1/SD-CG/HFTN-CG
REM
REM
REM
REM
REM
REM ./C.cell (11c1c37f851c82e70ff6c80c92926a4b)
REM
REM compiler GCC version 9.2.1 20190827 (Red Hat 9.2.1-1)
REM options -cpp -mtune=generic -march=x86-64 -g -O0 -fpre-include=/usr/include/finclude/math-vector-fortran.h
REM seed 1728585130 536053680 -185158 1009729364 -1559164952 -356773894 -766621185 1683796104 -1185379798 -1654830556 1319084666 1484723666 709171060 1433140594 -1743428005 -944888082 506795328 -523309034 -1547236758 743554409 1907085110 1205766333 345152531 1872367807 -1781039144 1728939297 -1146272514 185404601 -782176900 95450905 1668746315 419964663 -1827913828
REM
CELL 1.54180   50.00000   50.00000   50.00000   90.00000   90.00000   90.00000
LATT -1
SFAC C  
C      1  0.3971570000000  0.5408610000000  0.5015010000000 1.0
C      1  0.5498700000000  0.5969940000000  0.5338310000000 1.0
C      1  0.4507050000000  0.5490920000000  0.4764320000000 1.0
C      1  0.4925110000000  0.4891980000000  0.5671850000000 1.0
C      1  0.5553410000000  0.4355370000000  0.5884580000000 1.0
C      1  0.4347320000000  0.5548200000000  0.5576480000000 1.0
C      1  0.4724810000000  0.5634400000000  0.5923860000000 1.0
C      1  0.4211000000000  0.4551830000000  0.5688940000000 1.0
C      1  0.4151440000000  0.5717910000000  0.4628350000000 1.0
C      1  0.3984570000000  0.5239110000000  0.4548940000000 1.0
C      1  0.4529150000000  0.4643730000000  0.6105950000000 1.0
C      1  0.4127830000000  0.5495700000000  0.4437240000000 1.0
C      1  0.5984110000000  0.5399760000000  0.5291120000000 1.0
C      1  0.4241980000000  0.4261550000000  0.4467530000000 1.0
C      1  0.5208140000000  0.4366510000000  0.4670780000000 1.0
C      1  0.4931470000000  0.5311390000000  0.4428010000000 1.0
C      1  0.5591740000000  0.4425440000000  0.5588160000000 1.0
C      1  0.4543790000000  0.4232780000000  0.5493190000000 1.0
C      1  0.4789080000000  0.4868640000000  0.4499100000000 1.0
C      1  0.4726830000000  0.4635170000000  0.3883650000000 1.0
C      1  0.4457730000000  0.4673520000000  0.5279400000000 1.0
C      1  0.5799560000000  0.5578190000000  0.5430860000000 1.0
C      1  0.4797830000000  0.4103610000000  0.4668190000000 1.0
C      1  0.5966650000000  0.4918660000000  0.4227880000000 1.0
C      1  0.5337370000000  0.5251550000000  0.4674600000000 1.0
C      1  0.4676340000000  0.5533200000000  0.5218700000000 1.0
C      1  0.4752620000000  0.5148210000000  0.4601380000000 1.0
C      1  0.5752500000000  0.5840470000000  0.5303670000000 1.0
C      1  0.5163390000000  0.3870560000000  0.4759800000000 1.0
C      1  0.4727980000000  0.4391930000000  0.4322970000000 1.0
C      1  0.5431370000000  0.5377960000000  0.5570950000000 1.0
C      1  0.5469990000000  0.5055430000000  0.4828230000000 1.0
C      1  0.5760440000000  0.5718560000000  0.4465200000000 1.0
C      1  0.5459900000000  0.5492900000000  0.4123190000000 1.0
C      1  0.4352170000000  0.4703690000000  0.4713900000000 1.0
C      1  0.5586930000000  0.5208890000000  0.4115610000000 1.0
C      1  0.4713510000000  0.4552720000000  0.5367390000000 1.0
C      1  0.3888730000000  0.5194990000000  0.4837700000000 1.0
C      1  0.4303390000000  0.4544500000000  0.5031910000000 1.0
C      1  0.4214300000000  0.5300230000000  0.5164340000000 1.0
C      1  0.4581050000000  0.4392960000000  0.5969890000000 1.0
C      1  0.5040560000000  0.3976750000000  0.4515310000000 1.0
C      1  0.5968870000000  0.5098340000000  0.5744500000000 1.0
C      1  0.4736920000000  0.4755690000000  0.4947880000000 1.0
C      1  0.4510130000000  0.4177510000000  0.4307780000000 1.0
C      1  0.5081140000000  0.4822250000000  0.4477950000000 1.0
C      1  0.4660190000000  0.5893530000000  0.5376540000000 1.0
C      1  0.4725910000000  0.3918850000000  0.5168460000000 1.0
C      1  0.5195100000000  0.5120320000000  0.4445640000000 1.0
C      1  0.4468460000000  0.5255160000000  0.4566910000000 1.0
C      1  0.5110020000000  0.4285170000000  0.5366700000000 1.0
C      1  0.4420510000000  0.4762230000000  0.5707640000000 1.0
C      1  0.5235850000000  0.5639880000000  0.5972940000000 1.0
C      1  0.5413970000000  0.6137040000000  0.5096070000000 1.0
C      1  0.5609510000000  0.4817010000000  0.5404170000000 1.0
C      1  0.4916750000000  0.4799410000000  0.4020330000000 1.0
C      1  0.4673160000000  0.5798740000000  0.4442880000000 1.0
C      1  0.4975430000000  0.5800190000000  0.5958670000000 1.0
C      1  0.5862100000000  0.4687090000000  0.5490990000000 1.0
C      1  0.5695130000000  0.5506870000000  0.4635980000000 1.0
C      1  0.5764210000000  0.5265250000000  0.5836000000000 1.0
C      1  0.5171090000000  0.6112950000000  0.5660650000000 1.0
C      1  0.4888490000000  0.4057310000000  0.4959070000000 1.0
C      1  0.5256300000000  0.4672680000000  0.5970300000000 1.0
C      1  0.4937420000000  0.5943770000000  0.4475910000000 1.0
C      1  0.4455990000000  0.4892780000000  0.5978000000000 1.0
C      1  0.4563210000000  0.5166760000000  0.5829340000000 1.0
C      1  0.4913620000000  0.3862690000000  0.5372930000000 1.0
C      1  0.4707540000000  0.4885360000000  0.4207700000000 1.0
C      1  0.5071140000000  0.5026750000000  0.3885250000000 1.0
C      1  0.4551040000000  0.4986430000000  0.5351830000000 1.0
C      1  0.4928700000000  0.5288630000000  0.3877660000000 1.0
C      1  0.5847430000000  0.5240220000000  0.4580930000000 1.0
C      1  0.3944220000000  0.4791130000000  0.5220170000000 1.0
C      1  0.5040380000000  0.4311900000000  0.5074640000000 1.0
C      1  0.6011380000000  0.5109140000000  0.5280950000000 1.0
C      1  0.5193360000000  0.5482260000000  0.5708390000000 1.0
C      1  0.5151460000000  0.4004240000000  0.5434190000000 1.0
C      1  0.5439710000000  0.5004670000000  0.4294600000000 1.0
C      1  0.3826200000000  0.4712230000000  0.4757820000000 1.0
C      1  0.4662260000000  0.4667370000000  0.4686290000000 1.0
C      1  0.5487010000000  0.4268070000000  0.4279840000000 1.0
C      1  0.4742040000000  0.5110400000000  0.5576910000000 1.0
C      1  0.6093870000000  0.5026210000000  0.5007250000000 1.0
C      1  0.5396920000000  0.3950830000000  0.5310140000000 1.0
C      1  0.4367160000000  0.5554870000000  0.5272130000000 1.0
C      1  0.5609870000000  0.4799150000000  0.4473280000000 1.0
C      1  0.4695370000000  0.5168060000000  0.4151710000000 1.0
C      1  0.4014690000000  0.5644100000000  0.4864750000000 1.0
C      1  0.5035420000000  0.5637960000000  0.5527220000000 1.0
C      1  0.5748390000000  0.5558010000000  0.5722730000000 1.0
C      1  0.3935960000000  0.4716520000000  0.4484070000000 1.0
C      1  0.5953800000000  0.4492380000000  0.5269070000000 1.0
C      1  0.5300330000000  0.4117150000000  0.4845550000000 1.0
C      1  0.4645530000000  0.5027970000000  0.5046810000000 1.0
C      1  0.5767050000000  0.4269660000000  0.5370900000000 1.0
C      1  0.5356240000000  0.4664210000000  0.4031800000000 1.0
C      1  0.5181980000000  0.4857830000000  0.5533940000000 1.0
C      1  0.5364850000000  0.5278960000000  0.5284890000000 1.0
C      1  0.5426360000000  0.4645270000000  0.5217800000000 1.0
C      1  0.4412120000000  0.4264750000000  0.4995210000000 1.0
C      1  0.4272390000000  0.5108690000000  0.5427270000000 1.0
C      1  0.6035510000000  0.4942400000000  0.5521270000000 1.0
C      1  0.5413040000000  0.5982710000000  0.5615830000000 1.0
C      1  0.5304930000000  0.4500250000000  0.5463620000000 1.0
C      1  0.5302200000000  0.4231100000000  0.5947850000000 1.0
C      1  0.5679560000000  0.5579540000000  0.4933210000000 1.0
C      1  0.5005200000000  0.4372650000000  0.4212580000000 1.0
C      1  0.5265790000000  0.6072100000000  0.4837140000000 1.0
C      1  0.5907050000000  0.4845550000000  0.4883730000000 1.0
C      1  0.5169570000000  0.5791820000000  0.4386990000000 1.0
C      1  0.4378380000000  0.5463610000000  0.4247850000000 1.0
C      1  0.4370210000000  0.5125320000000  0.4971050000000 1.0
C      1  0.4405200000000  0.5199970000000  0.4134050000000 1.0
C      1  0.5186460000000  0.4794820000000  0.5098280000000 1.0
C      1  0.5147090000000  0.5717940000000  0.5252830000000 1.0
C      1  0.5368200000000  0.4953250000000  0.3919790000000 1.0
C      1  0.5954740000000  0.5453890000000  0.5007640000000 1.0
C      1  0.4991190000000  0.5553000000000  0.4632440000000 1.0
C      1  0.4503560000000  0.4105050000000  0.5231810000000 1.0
C      1  0.5351740000000  0.5517640000000  0.5082180000000 1.0
C      1  0.5781410000000  0.5860230000000  0.5011000000000 1.0
C      1  0.4830360000000  0.5199580000000  0.4892280000000 1.0
C      1  0.5108220000000  0.4650870000000  0.4192360000000 1.0
C      1  0.5643290000000  0.6095040000000  0.4915410000000 1.0
C      1  0.3843950000000  0.4461180000000  0.4888020000000 1.0
C      1  0.4314560000000  0.4126000000000  0.4752970000000 1.0
C      1  0.4919810000000  0.5529660000000  0.4056160000000 1.0
C      1  0.4530280000000  0.4001580000000  0.4571860000000 1.0
C      1  0.5019380000000  0.5260620000000  0.6039580000000 1.0
C      1  0.4235320000000  0.4970420000000  0.4211580000000 1.0
C      1  0.5857390000000  0.5174390000000  0.4271060000000 1.0
C      1  0.5595790000000  0.4076250000000  0.4883260000000 1.0
C      1  0.4392690000000  0.4323220000000  0.5735900000000 1.0
C      1  0.4908950000000  0.5906710000000  0.5197320000000 1.0
C      1  0.3993140000000  0.4994180000000  0.4373780000000 1.0
C      1  0.5596910000000  0.4103590000000  0.5181520000000 1.0
C      1  0.4273840000000  0.5031530000000  0.4706950000000 1.0
C      1  0.5483720000000  0.5743690000000  0.5793440000000 1.0
C      1  0.4926020000000  0.4608150000000  0.5119800000000 1.0
C      1  0.4319810000000  0.5277340000000  0.5677010000000 1.0
C      1  0.5195830000000  0.5441030000000  0.4831010000000 1.0
C      1  0.5856740000000  0.4582740000000  0.5002220000000 1.0
C      1  0.4452820000000  0.5765640000000  0.4670810000000 1.0
C      1  0.5458680000000  0.4895300000000  0.5645000000000 1.0
C      1  0.4209520000000  0.4573850000000  0.4466790000000 1.0
C      1  0.5574710000000  0.4495440000000  0.4979860000000 1.0
C      1  0.4847900000000  0.4410230000000  0.5833850000000 1.0
C      1  0.5294130000000  0.4892780000000  0.6147700000000 1.0
C      1  0.5098540000000  0.4427170000000  0.5995750000000 1.0
C      1  0.5697910000000  0.4365270000000  0.4454950000000 1.0
C      1  0.4830740000000  0.5412260000000  0.5457470000000 1.0
C      1  0.4485650000000  0.4584830000000  0.4007570000000 1.0
C      1  0.4526570000000  0.5942440000000  0.4907260000000 1.0
C      1  0.5422950000000  0.4587700000000  0.4719730000000 1.0
C      1  0.5843330000000  0.4688060000000  0.4329590000000 1.0
C      1  0.5486360000000  0.5157110000000  0.5783010000000 1.0
C      1  0.4761900000000  0.5486850000000  0.4914890000000 1.0
C      1  0.5181220000000  0.5585690000000  0.4188060000000 1.0
C      1  0.5715960000000  0.4981660000000  0.4693520000000 1.0
C      1  0.4990300000000  0.6055370000000  0.4746240000000 1.0
C      1  0.4315690000000  0.4690910000000  0.4207000000000 1.0
C      1  0.4979010000000  0.5908630000000  0.5682240000000 1.0
C      1  0.4415570000000  0.5883620000000  0.5179110000000 1.0
C      1  0.4816750000000  0.5926590000000  0.4930700000000 1.0
C      1  0.4009360000000  0.4521140000000  0.5111510000000 1.0
C      1  0.6067170000000  0.5256940000000  0.4817360000000 1.0
C      1  0.3921080000000  0.4920510000000  0.4940340000000 1.0
C      1  0.5275620000000  0.4836670000000  0.4814510000000 1.0
C      1  0.5532950000000  0.4609440000000  0.6028070000000 1.0
C      1  0.4818830000000  0.4402490000000  0.4609740000000 1.0
C      1  0.5746550000000  0.4262760000000  0.4719450000000 1.0
C      1  0.4108570000000  0.4852780000000  0.5470310000000 1.0
C      1  0.5174820000000  0.5044630000000  0.5281130000000 1.0
C      1  0.5198170000000  0.4227510000000  0.4394660000000 1.0
C      1  0.4748680000000  0.4654210000000  0.5653650000000 1.0
C      1  0.5645430000000  0.5670730000000  0.4228200000000 1.0
C      1  0.5498060000000  0.4422310000000  0.4044320000000 1.0
C      1  0.5286630000000  0.5155250000000  0.6031300000000 1.0
C      1  0.4662530000000  0.5601170000000  0.4228680000000 1.0
C      1  0.4606410000000  0.5675810000000  0.5640050000000 1.0
C      1  0.4750790000000  0.5348310000000  0.5996590000000 1.0
END
