TITL C-950535-5962-118 -3.43847175530026e-06 125000 -894.496396114465 0 0 142 (C1) n - 1
REM
REM in /home/bkarasulu/work/CARBON/AIRSS/Generating-Clusters/EDIP-Nigel-Params/with-SteepDescent/Only-C1/SD-CG/HFTN-CG
REM
REM
REM
REM
REM
REM ./C.cell (11c1c37f851c82e70ff6c80c92926a4b)
REM
REM compiler GCC version 9.2.1 20190827 (Red Hat 9.2.1-1)
REM options -cpp -mtune=generic -march=x86-64 -g -O0 -fpre-include=/usr/include/finclude/math-vector-fortran.h
REM seed 1064097323 -428586853 833204255 -1615643629 -1293773745 -446018250 260363886 1409785491 -1920745083 -138916364 2082071082 -708065712 1609840731 743367818 -865438498 -1038182526 -1779545509 -116552813 -390710316 -599229524 1666725574 -1571377691 982709258 -1598000794 -406564201 -2127735821 -859004961 712352677 1965618530 1641822794 89639171 -1709368136 1250642470
REM
CELL 1.54180   50.00000   50.00000   50.00000   90.00000   90.00000   90.00000
LATT -1
SFAC C  
C      1  0.4205820000000  0.4761400000000  0.4676690000000 1.0
C      1  0.4956160000000  0.4835470000000  0.4923160000000 1.0
C      1  0.4180160000000  0.5526400000000  0.5391260000000 1.0
C      1  0.5437820000000  0.5588670000000  0.5458420000000 1.0
C      1  0.4386600000000  0.5141590000000  0.5405260000000 1.0
C      1  0.5239100000000  0.4062270000000  0.5472450000000 1.0
C      1  0.5632120000000  0.5122570000000  0.5815740000000 1.0
C      1  0.5392480000000  0.4682460000000  0.5883600000000 1.0
C      1  0.4741570000000  0.4091650000000  0.5486130000000 1.0
C      1  0.4713470000000  0.4725860000000  0.4755880000000 1.0
C      1  0.5079250000000  0.5898490000000  0.5307400000000 1.0
C      1  0.4989320000000  0.5550090000000  0.5660880000000 1.0
C      1  0.5560880000000  0.5661440000000  0.4361230000000 1.0
C      1  0.4727200000000  0.5479310000000  0.4281610000000 1.0
C      1  0.4714830000000  0.4176060000000  0.5768060000000 1.0
C      1  0.4156700000000  0.4481270000000  0.5208070000000 1.0
C      1  0.5362150000000  0.4592020000000  0.5171790000000 1.0
C      1  0.5194590000000  0.4843110000000  0.6062590000000 1.0
C      1  0.5026230000000  0.4390170000000  0.5806420000000 1.0
C      1  0.4492360000000  0.4889020000000  0.4307500000000 1.0
C      1  0.5644450000000  0.4814480000000  0.5789470000000 1.0
C      1  0.4999350000000  0.4097280000000  0.5333070000000 1.0
C      1  0.4556730000000  0.4229910000000  0.5307830000000 1.0
C      1  0.4478100000000  0.4891020000000  0.4610520000000 1.0
C      1  0.5932560000000  0.4774150000000  0.5339350000000 1.0
C      1  0.5093320000000  0.5226670000000  0.4549070000000 1.0
C      1  0.5598260000000  0.5250000000000  0.4080140000000 1.0
C      1  0.5231110000000  0.4121810000000  0.4702810000000 1.0
C      1  0.5514380000000  0.4672130000000  0.4232140000000 1.0
C      1  0.5318110000000  0.5416760000000  0.4949010000000 1.0
C      1  0.4311170000000  0.5391500000000  0.4628280000000 1.0
C      1  0.4401410000000  0.5256000000000  0.5128050000000 1.0
C      1  0.4222940000000  0.4789230000000  0.5698860000000 1.0
C      1  0.5671090000000  0.4852700000000  0.4417760000000 1.0
C      1  0.5262180000000  0.5145990000000  0.5020540000000 1.0
C      1  0.5739440000000  0.5194590000000  0.5536960000000 1.0
C      1  0.5339560000000  0.4802650000000  0.4038610000000 1.0
C      1  0.5205080000000  0.5622120000000  0.4079940000000 1.0
C      1  0.5553100000000  0.4776050000000  0.5018940000000 1.0
C      1  0.4183640000000  0.5571500000000  0.5064170000000 1.0
C      1  0.4647690000000  0.5683470000000  0.5318410000000 1.0
C      1  0.5815270000000  0.5464130000000  0.5165070000000 1.0
C      1  0.4952710000000  0.4140760000000  0.4620920000000 1.0
C      1  0.5530240000000  0.5001080000000  0.5400300000000 1.0
C      1  0.4756530000000  0.4007640000000  0.4766590000000 1.0
C      1  0.4321290000000  0.5131450000000  0.4189580000000 1.0
C      1  0.4433890000000  0.5602650000000  0.5509740000000 1.0
C      1  0.6003480000000  0.5225510000000  0.5149870000000 1.0
C      1  0.5440470000000  0.5497310000000  0.4166090000000 1.0
C      1  0.4551040000000  0.4543760000000  0.4948410000000 1.0
C      1  0.5856370000000  0.4766730000000  0.5026100000000 1.0
C      1  0.4983080000000  0.6007900000000  0.5059450000000 1.0
C      1  0.5378690000000  0.5717210000000  0.4596270000000 1.0
C      1  0.4745040000000  0.5420010000000  0.5157110000000 1.0
C      1  0.5188440000000  0.5004950000000  0.4753100000000 1.0
C      1  0.4761950000000  0.4997380000000  0.4258350000000 1.0
C      1  0.5191700000000  0.5133180000000  0.4185150000000 1.0
C      1  0.5207500000000  0.6051420000000  0.4877800000000 1.0
C      1  0.4569950000000  0.4430380000000  0.5853640000000 1.0
C      1  0.4102240000000  0.4855940000000  0.4929660000000 1.0
C      1  0.5241530000000  0.4972860000000  0.5484140000000 1.0
C      1  0.4268080000000  0.5263690000000  0.5812280000000 1.0
C      1  0.5813350000000  0.5562760000000  0.4427160000000 1.0
C      1  0.5114500000000  0.4379770000000  0.4183730000000 1.0
C      1  0.5671730000000  0.4731260000000  0.5487070000000 1.0
C      1  0.5588880000000  0.4331150000000  0.5320330000000 1.0
C      1  0.5395860000000  0.4406720000000  0.4308100000000 1.0
C      1  0.4454560000000  0.5660350000000  0.4657240000000 1.0
C      1  0.4872850000000  0.5246120000000  0.5359760000000 1.0
C      1  0.4902620000000  0.4762810000000  0.6092150000000 1.0
C      1  0.4789620000000  0.5411340000000  0.5828830000000 1.0
C      1  0.5308700000000  0.4070680000000  0.4979420000000 1.0
C      1  0.4306070000000  0.4718850000000  0.5106630000000 1.0
C      1  0.5339590000000  0.5210010000000  0.5778100000000 1.0
C      1  0.5505620000000  0.4991340000000  0.4640300000000 1.0
C      1  0.4823750000000  0.4595490000000  0.5857810000000 1.0
C      1  0.4549020000000  0.5188410000000  0.4670760000000 1.0
C      1  0.4475790000000  0.5393390000000  0.4134800000000 1.0
C      1  0.4765230000000  0.5092750000000  0.3981140000000 1.0
C      1  0.5583750000000  0.5748760000000  0.4819300000000 1.0
C      1  0.4558290000000  0.5891040000000  0.5114710000000 1.0
C      1  0.4889700000000  0.4348750000000  0.4407090000000 1.0
C      1  0.5784250000000  0.5108640000000  0.4276560000000 1.0
C      1  0.4183520000000  0.5327020000000  0.4368790000000 1.0
C      1  0.4954730000000  0.4612300000000  0.4539150000000 1.0
C      1  0.4389490000000  0.4545120000000  0.5646360000000 1.0
C      1  0.4948020000000  0.5514710000000  0.4066200000000 1.0
C      1  0.5553320000000  0.4215240000000  0.5050190000000 1.0
C      1  0.5864090000000  0.5295810000000  0.4491880000000 1.0
C      1  0.5924560000000  0.5050160000000  0.4921570000000 1.0
C      1  0.5392630000000  0.4353550000000  0.4609310000000 1.0
C      1  0.4164810000000  0.4941920000000  0.5459170000000 1.0
C      1  0.4980950000000  0.4246480000000  0.5048620000000 1.0
C      1  0.4891200000000  0.5758510000000  0.5475700000000 1.0
C      1  0.5518940000000  0.5045870000000  0.5106060000000 1.0
C      1  0.5447090000000  0.5925740000000  0.5017810000000 1.0
C      1  0.5422120000000  0.4258970000000  0.5549480000000 1.0
C      1  0.5875400000000  0.4693570000000  0.4546650000000 1.0
C      1  0.4738810000000  0.4432800000000  0.5168600000000 1.0
C      1  0.4723200000000  0.6098160000000  0.5020470000000 1.0
C      1  0.4740270000000  0.4995250000000  0.6134140000000 1.0
C      1  0.4097090000000  0.5380610000000  0.4845160000000 1.0
C      1  0.5205690000000  0.5476860000000  0.4683950000000 1.0
C      1  0.5267080000000  0.4493680000000  0.5673410000000 1.0
C      1  0.4687050000000  0.5711080000000  0.4476490000000 1.0
C      1  0.4588750000000  0.4397240000000  0.4353000000000 1.0
C      1  0.4313020000000  0.4352770000000  0.5431560000000 1.0
C      1  0.4890280000000  0.5196470000000  0.6003080000000 1.0
C      1  0.5276940000000  0.5490000000000  0.5679290000000 1.0
C      1  0.5089240000000  0.5089110000000  0.5260570000000 1.0
C      1  0.4668370000000  0.5073410000000  0.5497380000000 1.0
C      1  0.4123990000000  0.4351660000000  0.4951650000000 1.0
C      1  0.4507330000000  0.5417900000000  0.5725990000000 1.0
C      1  0.4635480000000  0.5201180000000  0.4950820000000 1.0
C      1  0.5211920000000  0.4567220000000  0.4693700000000 1.0
C      1  0.4998810000000  0.5245470000000  0.3978410000000 1.0
C      1  0.5452020000000  0.5058040000000  0.3916540000000 1.0
C      1  0.4484850000000  0.4616120000000  0.4210390000000 1.0
C      1  0.5641340000000  0.4359290000000  0.4801770000000 1.0
C      1  0.5070540000000  0.4648720000000  0.4058990000000 1.0
C      1  0.5350680000000  0.5807870000000  0.5283650000000 1.0
C      1  0.5697310000000  0.5470490000000  0.5432290000000 1.0
C      1  0.5992920000000  0.5066390000000  0.5408080000000 1.0
C      1  0.5174690000000  0.5949280000000  0.4597690000000 1.0
C      1  0.4551900000000  0.4188140000000  0.4808370000000 1.0
C      1  0.5187680000000  0.4672550000000  0.5427670000000 1.0
C      1  0.4789990000000  0.5233570000000  0.4457090000000 1.0
C      1  0.4198930000000  0.4459580000000  0.4693240000000 1.0
C      1  0.4991610000000  0.4805970000000  0.4304800000000 1.0
C      1  0.4372320000000  0.5766830000000  0.4928000000000 1.0
C      1  0.5618620000000  0.5464620000000  0.4925910000000 1.0
C      1  0.5123290000000  0.4557740000000  0.4980220000000 1.0
C      1  0.4295640000000  0.4989870000000  0.5888260000000 1.0
C      1  0.4738110000000  0.4795410000000  0.5539270000000 1.0
C      1  0.4889010000000  0.4644880000000  0.5352660000000 1.0
C      1  0.4433380000000  0.4322260000000  0.4588330000000 1.0
C      1  0.4037660000000  0.5126480000000  0.4934270000000 1.0
C      1  0.5174120000000  0.5131500000000  0.6006080000000 1.0
C      1  0.5867390000000  0.4559700000000  0.4794480000000 1.0
C      1  0.4078210000000  0.5300060000000  0.5576620000000 1.0
C      1  0.5723590000000  0.5199260000000  0.4740400000000 1.0
C      1  0.4904310000000  0.5883860000000  0.4531660000000 1.0
END
