TITL C-951348-1603-640 -1.88761630479016e-06 125000 -366.663651734479 0 0 61 (C1) n - 1
REM
REM in /home/bkarasulu/work/CARBON/AIRSS/Generating-Clusters/EDIP-Nigel-Params/with-SteepDescent/Only-C1/SD-CG/HFTN-CG
REM
REM
REM
REM
REM
REM ./C.cell (11c1c37f851c82e70ff6c80c92926a4b)
REM
REM compiler GCC version 9.2.1 20190827 (Red Hat 9.2.1-1)
REM options -cpp -mtune=generic -march=x86-64 -g -O0 -fpre-include=/usr/include/finclude/math-vector-fortran.h
REM seed 712073811 342322988 -1668954705 2070952495 -2037768020 -1450024034 -194028949 -1215924945 1160676404 -859700033 -605214741 943039264 -929465297 1376914516 1143456357 918366477 -2140945379 662269031 1071068062 -687584950 564298927 -1931395317 -1499624032 1149263736 -1027544626 -168275523 1899799553 65247610 -365264925 -1709534768 -1933745078 1301692535 660358740
REM
CELL 1.54180   50.00000   50.00000   50.00000   90.00000   90.00000   90.00000
LATT -1
SFAC C  
C      1  0.5349040000000  0.4933140000000  0.4564900000000 1.0
C      1  0.5290760000000  0.4435870000000  0.5428970000000 1.0
C      1  0.4680420000000  0.5030570000000  0.4822910000000 1.0
C      1  0.4280120000000  0.5308410000000  0.4796150000000 1.0
C      1  0.4598030000000  0.5131370000000  0.5432100000000 1.0
C      1  0.5592470000000  0.5022070000000  0.5167760000000 1.0
C      1  0.4595390000000  0.4462200000000  0.5150780000000 1.0
C      1  0.5230040000000  0.4643760000000  0.4526480000000 1.0
C      1  0.4960010000000  0.5306670000000  0.5669400000000 1.0
C      1  0.5371850000000  0.4696690000000  0.5540620000000 1.0
C      1  0.4591750000000  0.4959570000000  0.4530700000000 1.0
C      1  0.4421370000000  0.5114140000000  0.4969040000000 1.0
C      1  0.5554850000000  0.4834340000000  0.5375300000000 1.0
C      1  0.4632530000000  0.5447000000000  0.4365090000000 1.0
C      1  0.4768410000000  0.4892160000000  0.5354190000000 1.0
C      1  0.5292170000000  0.5017410000000  0.4850950000000 1.0
C      1  0.4874520000000  0.4194150000000  0.5368910000000 1.0
C      1  0.5140370000000  0.5051710000000  0.4368450000000 1.0
C      1  0.5462650000000  0.5280430000000  0.5220120000000 1.0
C      1  0.5127730000000  0.4805480000000  0.4987410000000 1.0
C      1  0.5486260000000  0.4432840000000  0.4730530000000 1.0
C      1  0.5122640000000  0.4828260000000  0.5604350000000 1.0
C      1  0.4933290000000  0.5697240000000  0.4680330000000 1.0
C      1  0.5142960000000  0.5094750000000  0.5703150000000 1.0
C      1  0.5003410000000  0.5272280000000  0.5141250000000 1.0
C      1  0.5671380000000  0.4929050000000  0.4872310000000 1.0
C      1  0.5659790000000  0.5458120000000  0.4808130000000 1.0
C      1  0.4890450000000  0.4971330000000  0.5083910000000 1.0
C      1  0.5592370000000  0.5337280000000  0.4564670000000 1.0
C      1  0.5630810000000  0.4503120000000  0.5089340000000 1.0
C      1  0.5307520000000  0.5369380000000  0.4487220000000 1.0
C      1  0.4321710000000  0.4789560000000  0.5368940000000 1.0
C      1  0.5137270000000  0.5296370000000  0.4846610000000 1.0
C      1  0.5276900000000  0.5674920000000  0.5001590000000 1.0
C      1  0.4465730000000  0.5531170000000  0.4820210000000 1.0
C      1  0.5345130000000  0.4506230000000  0.5140590000000 1.0
C      1  0.5171280000000  0.5607010000000  0.4559410000000 1.0
C      1  0.5068630000000  0.4579560000000  0.4783730000000 1.0
C      1  0.5201570000000  0.5281580000000  0.5369490000000 1.0
C      1  0.4712500000000  0.4208060000000  0.5155790000000 1.0
C      1  0.5008400000000  0.4771710000000  0.4331450000000 1.0
C      1  0.4599710000000  0.5176460000000  0.4349910000000 1.0
C      1  0.5004920000000  0.5736830000000  0.4963170000000 1.0
C      1  0.4552850000000  0.5548250000000  0.5106280000000 1.0
C      1  0.4315040000000  0.4845800000000  0.5070530000000 1.0
C      1  0.5702300000000  0.4629190000000  0.4846820000000 1.0
C      1  0.4829340000000  0.5610410000000  0.5154130000000 1.0
C      1  0.4896360000000  0.4633240000000  0.5616490000000 1.0
C      1  0.4682900000000  0.5261460000000  0.5656960000000 1.0
C      1  0.4558180000000  0.4611490000000  0.4909730000000 1.0
C      1  0.4769350000000  0.4559680000000  0.4709550000000 1.0
C      1  0.4581260000000  0.4633780000000  0.5389830000000 1.0
C      1  0.5016640000000  0.4379950000000  0.5519620000000 1.0
C      1  0.5230480000000  0.4353870000000  0.4905750000000 1.0
C      1  0.5488990000000  0.5494360000000  0.5024610000000 1.0
C      1  0.4491250000000  0.5279500000000  0.5200560000000 1.0
C      1  0.4737920000000  0.4714730000000  0.4456950000000 1.0
C      1  0.4374060000000  0.5021530000000  0.5546050000000 1.0
C      1  0.5638660000000  0.5046890000000  0.4572000000000 1.0
C      1  0.4855130000000  0.5257320000000  0.4725550000000 1.0
C      1  0.4710140000000  0.5498290000000  0.4642260000000 1.0
END
