TITL C-950536-5891-476 -2.33912568923181e-06 125000 -975.718334112501 0 0 157 (C1) n - 1
REM
REM in /home/bkarasulu/work/CARBON/AIRSS/Generating-Clusters/EDIP-Nigel-Params/with-SteepDescent/Only-C1/SD-CG/HFTN-CG
REM
REM
REM
REM
REM
REM ./C.cell (11c1c37f851c82e70ff6c80c92926a4b)
REM
REM compiler GCC version 9.2.1 20190827 (Red Hat 9.2.1-1)
REM options -cpp -mtune=generic -march=x86-64 -g -O0 -fpre-include=/usr/include/finclude/math-vector-fortran.h
REM seed 1500044333 1583336745 545600796 884678160 -1741432335 -2033327669 -667137202 345875437 -1472071766 -345229324 1268468705 -1929880234 580561842 -1362348901 -1013562026 2009028890 239246499 1981776106 -1915785644 -1388178909 -132185578 569683164 -53814187 -1749801222 -342314573 -1170687811 337651004 927636360 -1445207309 -1516195448 -476154253 1960921588 1679882982
REM
CELL 1.54180   50.00000   50.00000   50.00000   90.00000   90.00000   90.00000
LATT -1
SFAC C  
C      1  0.5685590000000  0.5618350000000  0.5135790000000 1.0
C      1  0.4590310000000  0.4905040000000  0.4721100000000 1.0
C      1  0.4915060000000  0.4337590000000  0.5840640000000 1.0
C      1  0.5877600000000  0.5181690000000  0.4977350000000 1.0
C      1  0.5193720000000  0.4078170000000  0.5513380000000 1.0
C      1  0.5844390000000  0.5458230000000  0.4946800000000 1.0
C      1  0.3960850000000  0.5530260000000  0.5044660000000 1.0
C      1  0.4111660000000  0.5057200000000  0.4546640000000 1.0
C      1  0.5763290000000  0.5313390000000  0.5552240000000 1.0
C      1  0.4592070000000  0.4670220000000  0.5845220000000 1.0
C      1  0.4496690000000  0.4928930000000  0.5808900000000 1.0
C      1  0.5643300000000  0.4439740000000  0.5698430000000 1.0
C      1  0.5628690000000  0.4287460000000  0.4650410000000 1.0
C      1  0.4369730000000  0.5463380000000  0.4301690000000 1.0
C      1  0.5298830000000  0.5952250000000  0.5185390000000 1.0
C      1  0.5907610000000  0.4563500000000  0.4982780000000 1.0
C      1  0.4661680000000  0.5469010000000  0.5847510000000 1.0
C      1  0.3976180000000  0.5107450000000  0.5239010000000 1.0
C      1  0.4483210000000  0.4451510000000  0.5692690000000 1.0
C      1  0.6136000000000  0.4795230000000  0.5039300000000 1.0
C      1  0.4480510000000  0.5862200000000  0.4975940000000 1.0
C      1  0.5632240000000  0.4679520000000  0.4983960000000 1.0
C      1  0.4186090000000  0.4611380000000  0.4807990000000 1.0
C      1  0.5055290000000  0.4748640000000  0.4482810000000 1.0
C      1  0.4608660000000  0.5832210000000  0.4501300000000 1.0
C      1  0.4993460000000  0.4692850000000  0.3861900000000 1.0
C      1  0.5965270000000  0.4855590000000  0.5604060000000 1.0
C      1  0.4438930000000  0.5608940000000  0.4552310000000 1.0
C      1  0.4888280000000  0.5368030000000  0.6034420000000 1.0
C      1  0.4843280000000  0.5987130000000  0.5282790000000 1.0
C      1  0.4452560000000  0.4154070000000  0.4981690000000 1.0
C      1  0.5498480000000  0.4745500000000  0.4695880000000 1.0
C      1  0.5637340000000  0.4936000000000  0.5149780000000 1.0
C      1  0.5513170000000  0.4896720000000  0.4072620000000 1.0
C      1  0.4418530000000  0.4915900000000  0.5227800000000 1.0
C      1  0.5053160000000  0.6081220000000  0.5084250000000 1.0
C      1  0.4919400000000  0.5695400000000  0.4911380000000 1.0
C      1  0.4529220000000  0.5177800000000  0.4593430000000 1.0
C      1  0.5241510000000  0.4558410000000  0.4610580000000 1.0
C      1  0.4708680000000  0.3998660000000  0.4909590000000 1.0
C      1  0.3978640000000  0.4652630000000  0.5008530000000 1.0
C      1  0.4860340000000  0.4615160000000  0.5914370000000 1.0
C      1  0.4968660000000  0.4032180000000  0.5059760000000 1.0
C      1  0.4717400000000  0.5755260000000  0.5135330000000 1.0
C      1  0.4866870000000  0.5733530000000  0.4390500000000 1.0
C      1  0.4735970000000  0.4394350000000  0.4267120000000 1.0
C      1  0.5466980000000  0.5698750000000  0.5575080000000 1.0
C      1  0.5016760000000  0.4311590000000  0.4165240000000 1.0
C      1  0.4551830000000  0.5602910000000  0.5353550000000 1.0
C      1  0.5321820000000  0.4724890000000  0.5972710000000 1.0
C      1  0.5424700000000  0.4060630000000  0.5351140000000 1.0
C      1  0.4801650000000  0.5225930000000  0.4937480000000 1.0
C      1  0.4854650000000  0.4882890000000  0.5033300000000 1.0
C      1  0.5406150000000  0.5429550000000  0.5920100000000 1.0
C      1  0.3987840000000  0.4808070000000  0.5246970000000 1.0
C      1  0.4838460000000  0.5654590000000  0.4105320000000 1.0
C      1  0.4873430000000  0.5025400000000  0.4188840000000 1.0
C      1  0.4642040000000  0.4328480000000  0.4597180000000 1.0
C      1  0.4061610000000  0.5681070000000  0.4834540000000 1.0
C      1  0.5085370000000  0.5250280000000  0.5670480000000 1.0
C      1  0.5384310000000  0.5028270000000  0.4719350000000 1.0
C      1  0.5394060000000  0.4629980000000  0.4141020000000 1.0
C      1  0.5081390000000  0.5560410000000  0.4001510000000 1.0
C      1  0.5404190000000  0.4977160000000  0.5619300000000 1.0
C      1  0.4344700000000  0.5622990000000  0.4837770000000 1.0
C      1  0.5078990000000  0.5910810000000  0.4499140000000 1.0
C      1  0.5707790000000  0.5542930000000  0.4695000000000 1.0
C      1  0.5220920000000  0.5158920000000  0.4507420000000 1.0
C      1  0.4445000000000  0.4228370000000  0.5300200000000 1.0
C      1  0.4318060000000  0.4673110000000  0.4346620000000 1.0
C      1  0.5010570000000  0.5389940000000  0.4511010000000 1.0
C      1  0.6052690000000  0.5061190000000  0.5167080000000 1.0
C      1  0.5449820000000  0.5565620000000  0.4314220000000 1.0
C      1  0.6119500000000  0.4795520000000  0.4745380000000 1.0
C      1  0.4683220000000  0.4539540000000  0.5305970000000 1.0
C      1  0.4807900000000  0.4552240000000  0.4789050000000 1.0
C      1  0.5511550000000  0.5923650000000  0.4715580000000 1.0
C      1  0.5711990000000  0.4703610000000  0.4460560000000 1.0
C      1  0.4729970000000  0.5639660000000  0.5604070000000 1.0
C      1  0.5433430000000  0.4563020000000  0.5402400000000 1.0
C      1  0.5070830000000  0.4071780000000  0.4592680000000 1.0
C      1  0.5347860000000  0.5799950000000  0.4494290000000 1.0
C      1  0.5847430000000  0.4629770000000  0.5703920000000 1.0
C      1  0.4755820000000  0.5256570000000  0.4368900000000 1.0
C      1  0.4226410000000  0.4773810000000  0.5423080000000 1.0
C      1  0.5363270000000  0.5466880000000  0.4874480000000 1.0
C      1  0.4329690000000  0.4320200000000  0.4735790000000 1.0
C      1  0.5690210000000  0.5438420000000  0.4417460000000 1.0
C      1  0.5634330000000  0.5295400000000  0.5816050000000 1.0
C      1  0.5496200000000  0.4472850000000  0.5139830000000 1.0
C      1  0.4082370000000  0.5578370000000  0.5315120000000 1.0
C      1  0.4460970000000  0.5300030000000  0.5284210000000 1.0
C      1  0.5694770000000  0.5574570000000  0.5429350000000 1.0
C      1  0.5185660000000  0.4257490000000  0.4395130000000 1.0
C      1  0.5146550000000  0.4657160000000  0.5373330000000 1.0
C      1  0.4949980000000  0.4140110000000  0.5342960000000 1.0
C      1  0.5315260000000  0.5432180000000  0.4086190000000 1.0
C      1  0.4695420000000  0.4839410000000  0.5299440000000 1.0
C      1  0.4291670000000  0.4469990000000  0.5471290000000 1.0
C      1  0.3954890000000  0.5239430000000  0.4980430000000 1.0
C      1  0.5224960000000  0.5078350000000  0.5175720000000 1.0
C      1  0.5160040000000  0.4168280000000  0.4859570000000 1.0
C      1  0.4663810000000  0.4222200000000  0.5717210000000 1.0
C      1  0.5783310000000  0.5190890000000  0.4338680000000 1.0
C      1  0.4632800000000  0.5436490000000  0.4139900000000 1.0
C      1  0.5184580000000  0.4264860000000  0.5752120000000 1.0
C      1  0.5727960000000  0.4931330000000  0.4263690000000 1.0
C      1  0.5153850000000  0.4965130000000  0.4300570000000 1.0
C      1  0.5221880000000  0.5770480000000  0.5408380000000 1.0
C      1  0.5030380000000  0.5440840000000  0.4811980000000 1.0
C      1  0.4783990000000  0.4854200000000  0.3948860000000 1.0
C      1  0.4195500000000  0.5229350000000  0.5681450000000 1.0
C      1  0.4672640000000  0.4082850000000  0.5457600000000 1.0
C      1  0.5089170000000  0.4848500000000  0.5618280000000 1.0
C      1  0.4502740000000  0.4459730000000  0.4086810000000 1.0
C      1  0.4949440000000  0.4438520000000  0.5327830000000 1.0
C      1  0.4846350000000  0.5230150000000  0.5485400000000 1.0
C      1  0.5038780000000  0.4809000000000  0.6036100000000 1.0
C      1  0.4488490000000  0.5335760000000  0.4983450000000 1.0
C      1  0.4772050000000  0.4057920000000  0.4627920000000 1.0
C      1  0.5457440000000  0.5782860000000  0.4989360000000 1.0
C      1  0.5771890000000  0.5830800000000  0.4662630000000 1.0
C      1  0.4560830000000  0.4749560000000  0.4481560000000 1.0
C      1  0.4417350000000  0.4763370000000  0.4939680000000 1.0
C      1  0.4120090000000  0.4755360000000  0.4542630000000 1.0
C      1  0.5499290000000  0.4948500000000  0.5905560000000 1.0
C      1  0.5935430000000  0.5086480000000  0.5443870000000 1.0
C      1  0.5434730000000  0.5168660000000  0.4976510000000 1.0
C      1  0.5135240000000  0.5506480000000  0.5953120000000 1.0
C      1  0.5564490000000  0.4468970000000  0.4330350000000 1.0
C      1  0.4544830000000  0.4708110000000  0.3966250000000 1.0
C      1  0.4644060000000  0.5999580000000  0.4744650000000 1.0
C      1  0.4302370000000  0.5767200000000  0.5313450000000 1.0
C      1  0.5158240000000  0.4517680000000  0.4004540000000 1.0
C      1  0.4797650000000  0.4679840000000  0.4346070000000 1.0
C      1  0.4945120000000  0.5851670000000  0.5536010000000 1.0
C      1  0.4169830000000  0.5298430000000  0.5390330000000 1.0
C      1  0.5388120000000  0.4466600000000  0.5827550000000 1.0
C      1  0.5327970000000  0.5349270000000  0.5504990000000 1.0
C      1  0.5898820000000  0.4381780000000  0.4729210000000 1.0
C      1  0.5985320000000  0.4612230000000  0.4560580000000 1.0
C      1  0.4181570000000  0.5169690000000  0.4804920000000 1.0
C      1  0.5354990000000  0.5144400000000  0.4020160000000 1.0
C      1  0.5130860000000  0.4818340000000  0.5122190000000 1.0
C      1  0.4989000000000  0.5267240000000  0.5220230000000 1.0
C      1  0.4252670000000  0.5192090000000  0.4330400000000 1.0
C      1  0.4949910000000  0.5085760000000  0.6053240000000 1.0
C      1  0.5551760000000  0.4192610000000  0.5135510000000 1.0
C      1  0.4239590000000  0.4940130000000  0.5685080000000 1.0
C      1  0.4400310000000  0.5355820000000  0.5833900000000 1.0
C      1  0.5587770000000  0.4819270000000  0.5441930000000 1.0
C      1  0.4951690000000  0.5966800000000  0.4783100000000 1.0
C      1  0.5182320000000  0.5506430000000  0.5269010000000 1.0
C      1  0.4786410000000  0.4952200000000  0.5562140000000 1.0
C      1  0.5096930000000  0.4468070000000  0.4853120000000 1.0
C      1  0.5472890000000  0.4129740000000  0.4858980000000 1.0
C      1  0.4598080000000  0.4518990000000  0.5007200000000 1.0
END
