TITL C-951333-8791-461 -6.04079825478646e-06 125000 -1017.41800472768 0 0 163 (C1) n - 1
REM
REM in /home/bkarasulu/work/CARBON/AIRSS/Generating-Clusters/EDIP-Nigel-Params/with-SteepDescent/Only-C1/SD-CG/HFTN-CG
REM
REM
REM
REM
REM
REM ./C.cell (11c1c37f851c82e70ff6c80c92926a4b)
REM
REM compiler GCC version 9.2.1 20190827 (Red Hat 9.2.1-1)
REM options -cpp -mtune=generic -march=x86-64 -g -O0 -fpre-include=/usr/include/finclude/math-vector-fortran.h
REM seed -293762279 1660198545 -218445960 1362356434 1321052437 1325948356 -1552180162 -2076611939 -1879424443 360363450 -1358406071 -45491812 1581700158 -1994903786 430742921 -158099187 965477076 991216356 237295760 1044782640 2017928648 -93089284 -1813651831 -723632579 44436087 1226391423 1043996884 -1914108591 983313971 1810580156 -198600147 -730122449 -1069819469
REM
CELL 1.54180   50.00000   50.00000   50.00000   90.00000   90.00000   90.00000
LATT -1
SFAC C  
C      1  0.4672670000000  0.4207880000000  0.4299360000000 1.0
C      1  0.5180460000000  0.4966530000000  0.5427800000000 1.0
C      1  0.4487470000000  0.4057080000000  0.4831780000000 1.0
C      1  0.4261450000000  0.4631070000000  0.5678150000000 1.0
C      1  0.4923050000000  0.4776510000000  0.4016370000000 1.0
C      1  0.5634450000000  0.4785380000000  0.4212750000000 1.0
C      1  0.5548180000000  0.5842380000000  0.4589060000000 1.0
C      1  0.5576130000000  0.5130040000000  0.4880800000000 1.0
C      1  0.4301640000000  0.4635610000000  0.5004680000000 1.0
C      1  0.5575630000000  0.4511330000000  0.4300970000000 1.0
C      1  0.5146670000000  0.4539640000000  0.5658610000000 1.0
C      1  0.4891810000000  0.4364720000000  0.5978880000000 1.0
C      1  0.4436510000000  0.4072860000000  0.5107390000000 1.0
C      1  0.4905460000000  0.4006850000000  0.5333700000000 1.0
C      1  0.5492160000000  0.5359880000000  0.4183050000000 1.0
C      1  0.4533690000000  0.4235690000000  0.5561370000000 1.0
C      1  0.4251990000000  0.5729320000000  0.5253180000000 1.0
C      1  0.5157050000000  0.4863470000000  0.4931560000000 1.0
C      1  0.5119790000000  0.5813830000000  0.5418730000000 1.0
C      1  0.4596500000000  0.5191670000000  0.3976160000000 1.0
C      1  0.4956860000000  0.5713030000000  0.4733750000000 1.0
C      1  0.5264990000000  0.4593210000000  0.5939180000000 1.0
C      1  0.4241700000000  0.4906470000000  0.5607730000000 1.0
C      1  0.4353130000000  0.5126970000000  0.4139790000000 1.0
C      1  0.4485110000000  0.5679210000000  0.4574440000000 1.0
C      1  0.4490910000000  0.4469420000000  0.5720690000000 1.0
C      1  0.6150190000000  0.5145910000000  0.5160320000000 1.0
C      1  0.4993680000000  0.5283170000000  0.4947780000000 1.0
C      1  0.4335910000000  0.4542940000000  0.5308510000000 1.0
C      1  0.5184560000000  0.4683610000000  0.4111840000000 1.0
C      1  0.4021190000000  0.5481530000000  0.4964380000000 1.0
C      1  0.4630500000000  0.5777390000000  0.4350660000000 1.0
C      1  0.5398450000000  0.5497010000000  0.4675920000000 1.0
C      1  0.4010080000000  0.5333320000000  0.5214990000000 1.0
C      1  0.5887260000000  0.4707570000000  0.4603910000000 1.0
C      1  0.4637210000000  0.4797990000000  0.6021480000000 1.0
C      1  0.3943810000000  0.4928010000000  0.4892160000000 1.0
C      1  0.5283510000000  0.5875470000000  0.4481240000000 1.0
C      1  0.4089520000000  0.4902520000000  0.5368060000000 1.0
C      1  0.5390950000000  0.5856750000000  0.5308700000000 1.0
C      1  0.5159040000000  0.6132320000000  0.4522810000000 1.0
C      1  0.5299830000000  0.4633010000000  0.5082980000000 1.0
C      1  0.4613110000000  0.4800470000000  0.5383590000000 1.0
C      1  0.4098780000000  0.5233890000000  0.4543620000000 1.0
C      1  0.4376980000000  0.4244640000000  0.5321590000000 1.0
C      1  0.4727380000000  0.5232180000000  0.4836360000000 1.0
C      1  0.5847530000000  0.4888600000000  0.4383340000000 1.0
C      1  0.4964630000000  0.4159780000000  0.5784390000000 1.0
C      1  0.5205110000000  0.5704600000000  0.4269580000000 1.0
C      1  0.5987080000000  0.4780370000000  0.4867520000000 1.0
C      1  0.5934040000000  0.4845170000000  0.5400150000000 1.0
C      1  0.5976070000000  0.5135610000000  0.4341250000000 1.0
C      1  0.5755680000000  0.5572540000000  0.4993210000000 1.0
C      1  0.4553450000000  0.5053470000000  0.5958320000000 1.0
C      1  0.4377020000000  0.4942700000000  0.4939140000000 1.0
C      1  0.4738770000000  0.6128980000000  0.4757810000000 1.0
C      1  0.5592570000000  0.4864770000000  0.5744480000000 1.0
C      1  0.4619470000000  0.5473820000000  0.3949910000000 1.0
C      1  0.4897800000000  0.4787100000000  0.4784810000000 1.0
C      1  0.5866350000000  0.5264080000000  0.4796780000000 1.0
C      1  0.4497900000000  0.5874920000000  0.5282640000000 1.0
C      1  0.5514400000000  0.4704570000000  0.5970600000000 1.0
C      1  0.5018300000000  0.5274140000000  0.4446060000000 1.0
C      1  0.5133530000000  0.5662160000000  0.5682510000000 1.0
C      1  0.5596830000000  0.4325580000000  0.4768940000000 1.0
C      1  0.4533000000000  0.4548710000000  0.4835230000000 1.0
C      1  0.4361980000000  0.5412280000000  0.5657230000000 1.0
C      1  0.5280830000000  0.5228390000000  0.5971390000000 1.0
C      1  0.5094720000000  0.4495250000000  0.5294760000000 1.0
C      1  0.5210440000000  0.5248800000000  0.5539150000000 1.0
C      1  0.4750080000000  0.4958810000000  0.5638690000000 1.0
C      1  0.5065830000000  0.5133720000000  0.6117490000000 1.0
C      1  0.4982960000000  0.5480280000000  0.5159580000000 1.0
C      1  0.5356920000000  0.5165010000000  0.4034200000000 1.0
C      1  0.4879290000000  0.4096030000000  0.4482520000000 1.0
C      1  0.5642270000000  0.5786670000000  0.5409480000000 1.0
C      1  0.5091470000000  0.5048290000000  0.5132710000000 1.0
C      1  0.4741550000000  0.5535240000000  0.4204300000000 1.0
C      1  0.5727080000000  0.4473430000000  0.4550760000000 1.0
C      1  0.5614970000000  0.5010850000000  0.5140920000000 1.0
C      1  0.5636750000000  0.5400780000000  0.5723620000000 1.0
C      1  0.5001600000000  0.4808580000000  0.5594170000000 1.0
C      1  0.5351140000000  0.4064780000000  0.5138860000000 1.0
C      1  0.4713390000000  0.4834780000000  0.4389170000000 1.0
C      1  0.4993710000000  0.4745200000000  0.4506890000000 1.0
C      1  0.4737420000000  0.4452950000000  0.5020190000000 1.0
C      1  0.5375650000000  0.3954870000000  0.4880490000000 1.0
C      1  0.4865670000000  0.5065830000000  0.4007540000000 1.0
C      1  0.5099260000000  0.5927150000000  0.4932050000000 1.0
C      1  0.4930940000000  0.5916800000000  0.5183490000000 1.0
C      1  0.5902900000000  0.4611090000000  0.5105370000000 1.0
C      1  0.5807480000000  0.5593640000000  0.5292160000000 1.0
C      1  0.4450220000000  0.4695980000000  0.4073530000000 1.0
C      1  0.5040650000000  0.6188170000000  0.4785600000000 1.0
C      1  0.4788810000000  0.4101120000000  0.5567360000000 1.0
C      1  0.4002890000000  0.5050920000000  0.5147400000000 1.0
C      1  0.5408390000000  0.5583030000000  0.5735410000000 1.0
C      1  0.4008160000000  0.4734500000000  0.4686920000000 1.0
C      1  0.4766350000000  0.5429350000000  0.5357310000000 1.0
C      1  0.5806650000000  0.4457320000000  0.5611780000000 1.0
C      1  0.5847110000000  0.4733150000000  0.5646330000000 1.0
C      1  0.4516650000000  0.5396670000000  0.4934820000000 1.0
C      1  0.5543370000000  0.5206640000000  0.5341020000000 1.0
C      1  0.5389950000000  0.4244990000000  0.5694290000000 1.0
C      1  0.4784980000000  0.4050840000000  0.4763800000000 1.0
C      1  0.4660210000000  0.5768650000000  0.5497710000000 1.0
C      1  0.5108610000000  0.4422280000000  0.4692510000000 1.0
C      1  0.4258740000000  0.4858140000000  0.4201800000000 1.0
C      1  0.6010330000000  0.5129250000000  0.5402140000000 1.0
C      1  0.5038640000000  0.5469780000000  0.4209530000000 1.0
C      1  0.4431060000000  0.4347250000000  0.4408980000000 1.0
C      1  0.4934400000000  0.4267190000000  0.4910050000000 1.0
C      1  0.4887780000000  0.5489810000000  0.5794310000000 1.0
C      1  0.4224560000000  0.5336530000000  0.4303600000000 1.0
C      1  0.4483110000000  0.4637680000000  0.4515470000000 1.0
C      1  0.4436790000000  0.5015460000000  0.5229080000000 1.0
C      1  0.4660150000000  0.4533560000000  0.5936200000000 1.0
C      1  0.4650340000000  0.5940950000000  0.5019840000000 1.0
C      1  0.4234220000000  0.4813090000000  0.4501800000000 1.0
C      1  0.5430580000000  0.4806960000000  0.5489170000000 1.0
C      1  0.4202850000000  0.5273700000000  0.4822580000000 1.0
C      1  0.5525930000000  0.5157640000000  0.5833420000000 1.0
C      1  0.5087300000000  0.5265880000000  0.3989250000000 1.0
C      1  0.6074450000000  0.5067710000000  0.4900720000000 1.0
C      1  0.5099160000000  0.5441220000000  0.4693040000000 1.0
C      1  0.5191220000000  0.4222200000000  0.4477090000000 1.0
C      1  0.4363830000000  0.5130570000000  0.5756750000000 1.0
C      1  0.4504600000000  0.5321350000000  0.5230860000000 1.0
C      1  0.5348830000000  0.4983520000000  0.4732750000000 1.0
C      1  0.5484020000000  0.5412950000000  0.4956650000000 1.0
C      1  0.5758920000000  0.4341750000000  0.5035540000000 1.0
C      1  0.5104190000000  0.4470850000000  0.6137940000000 1.0
C      1  0.5382930000000  0.5901410000000  0.5027860000000 1.0
C      1  0.4806680000000  0.5971860000000  0.4485140000000 1.0
C      1  0.4118970000000  0.5742900000000  0.5006610000000 1.0
C      1  0.5352860000000  0.4475230000000  0.4840650000000 1.0
C      1  0.4595080000000  0.5598580000000  0.5725990000000 1.0
C      1  0.4260230000000  0.5452650000000  0.5362310000000 1.0
C      1  0.5220850000000  0.4041170000000  0.5778680000000 1.0
C      1  0.4318050000000  0.4261740000000  0.4682240000000 1.0
C      1  0.4938810000000  0.5375990000000  0.6064660000000 1.0
C      1  0.4644770000000  0.5681430000000  0.4829400000000 1.0
C      1  0.5840040000000  0.5312840000000  0.4508740000000 1.0
C      1  0.4759470000000  0.4323220000000  0.4059050000000 1.0
C      1  0.5358880000000  0.4912090000000  0.4194560000000 1.0
C      1  0.5782380000000  0.5341520000000  0.5453230000000 1.0
C      1  0.5618740000000  0.4269350000000  0.5523930000000 1.0
C      1  0.5569910000000  0.4241660000000  0.5237380000000 1.0
C      1  0.5077900000000  0.4185380000000  0.5181860000000 1.0
C      1  0.4889790000000  0.5266620000000  0.5586920000000 1.0
C      1  0.4648550000000  0.4969600000000  0.4762750000000 1.0
C      1  0.5558850000000  0.5355360000000  0.4454790000000 1.0
C      1  0.4706850000000  0.5182300000000  0.4402620000000 1.0
C      1  0.4703960000000  0.4593790000000  0.4021090000000 1.0
C      1  0.4098700000000  0.4482400000000  0.4828400000000 1.0
C      1  0.4827600000000  0.4633070000000  0.5226130000000 1.0
C      1  0.5200930000000  0.4984860000000  0.4465820000000 1.0
C      1  0.5292530000000  0.4426050000000  0.4249070000000 1.0
C      1  0.5616280000000  0.5827890000000  0.4869920000000 1.0
C      1  0.5555870000000  0.4735950000000  0.5225890000000 1.0
C      1  0.4457850000000  0.5387310000000  0.4494160000000 1.0
C      1  0.5271400000000  0.5439180000000  0.5260330000000 1.0
C      1  0.5432030000000  0.4087060000000  0.4640820000000 1.0
END
