TITL C-951337-3020-457 -2.28947344152629e-06 125000 -310.952311725065 0 0 52 (C1) n - 1
REM
REM in /home/bkarasulu/work/CARBON/AIRSS/Generating-Clusters/EDIP-Nigel-Params/with-SteepDescent/Only-C1/SD-CG/HFTN-CG
REM
REM
REM
REM
REM
REM ./C.cell (11c1c37f851c82e70ff6c80c92926a4b)
REM
REM compiler GCC version 9.2.1 20190827 (Red Hat 9.2.1-1)
REM options -cpp -mtune=generic -march=x86-64 -g -O0 -fpre-include=/usr/include/finclude/math-vector-fortran.h
REM seed 115325953 1628888983 1396860414 41432217 1493057475 1496578178 746503820 1308215057 -715179831 1298104158 409304324 -1094535741 520587089 2081324212 -1366519159 -1952597060 -1458252996 -337349212 1036228133 -556191159 1969245994 1242407224 1294752030 -2043283269 -1884863912 -882177018 2071215096 1907385939 1666956526 -1164673376 -1342607363 -1551921150 -1557714160
REM
CELL 1.54180   50.00000   50.00000   50.00000   90.00000   90.00000   90.00000
LATT -1
SFAC C  
C      1  0.5212440000000  0.5182160000000  0.4377870000000 1.0
C      1  0.5264220000000  0.4757170000000  0.5547240000000 1.0
C      1  0.4963840000000  0.5220580000000  0.4273330000000 1.0
C      1  0.5377630000000  0.5193240000000  0.4619140000000 1.0
C      1  0.4754500000000  0.5125760000000  0.4431950000000 1.0
C      1  0.4831260000000  0.5297040000000  0.4914460000000 1.0
C      1  0.4552640000000  0.4720060000000  0.4591200000000 1.0
C      1  0.4407700000000  0.4845910000000  0.4826410000000 1.0
C      1  0.4574660000000  0.5296620000000  0.4622220000000 1.0
C      1  0.4645660000000  0.5590360000000  0.4659740000000 1.0
C      1  0.5218830000000  0.5097550000000  0.4863190000000 1.0
C      1  0.4732880000000  0.5328630000000  0.5559180000000 1.0
C      1  0.5031510000000  0.5289370000000  0.5578160000000 1.0
C      1  0.5529170000000  0.4901070000000  0.4618970000000 1.0
C      1  0.5551910000000  0.5138170000000  0.5560150000000 1.0
C      1  0.4896000000000  0.4364270000000  0.5052640000000 1.0
C      1  0.4623480000000  0.4417440000000  0.4952710000000 1.0
C      1  0.5229930000000  0.5253760000000  0.5106840000000 1.0
C      1  0.4998250000000  0.4658900000000  0.5436040000000 1.0
C      1  0.5085930000000  0.4308120000000  0.4832040000000 1.0
C      1  0.4797470000000  0.5727090000000  0.4871840000000 1.0
C      1  0.4471940000000  0.4729000000000  0.5335750000000 1.0
C      1  0.5546000000000  0.5401090000000  0.5449040000000 1.0
C      1  0.5710160000000  0.5052140000000  0.5082920000000 1.0
C      1  0.4477510000000  0.5203560000000  0.5159710000000 1.0
C      1  0.5318010000000  0.4724720000000  0.4533190000000 1.0
C      1  0.4941590000000  0.4406940000000  0.4580740000000 1.0
C      1  0.5627050000000  0.4835790000000  0.4896720000000 1.0
C      1  0.5387740000000  0.5492330000000  0.4688640000000 1.0
C      1  0.4810820000000  0.4858070000000  0.4545050000000 1.0
C      1  0.5661000000000  0.4946600000000  0.5357200000000 1.0
C      1  0.5050880000000  0.4849790000000  0.4853440000000 1.0
C      1  0.4582870000000  0.5083620000000  0.5610520000000 1.0
C      1  0.5154330000000  0.5658730000000  0.4743820000000 1.0
C      1  0.4799430000000  0.5608240000000  0.5136080000000 1.0
C      1  0.4805200000000  0.4972190000000  0.4970590000000 1.0
C      1  0.5330140000000  0.4435600000000  0.4910170000000 1.0
C      1  0.4644880000000  0.4439980000000  0.4654660000000 1.0
C      1  0.4541500000000  0.4689900000000  0.5047600000000 1.0
C      1  0.5021820000000  0.4632520000000  0.5125240000000 1.0
C      1  0.4633900000000  0.5423060000000  0.5285580000000 1.0
C      1  0.5300550000000  0.5026730000000  0.5670090000000 1.0
C      1  0.4422190000000  0.5147390000000  0.4860180000000 1.0
C      1  0.5447650000000  0.4656330000000  0.5045350000000 1.0
C      1  0.5479340000000  0.4713700000000  0.5339940000000 1.0
C      1  0.4996470000000  0.5417460000000  0.4659400000000 1.0
C      1  0.4836620000000  0.4973050000000  0.5271260000000 1.0
C      1  0.4412500000000  0.5014980000000  0.5382260000000 1.0
C      1  0.5495380000000  0.5350420000000  0.5176580000000 1.0
C      1  0.5045170000000  0.4666020000000  0.4464040000000 1.0
C      1  0.4702660000000  0.4724340000000  0.5544880000000 1.0
C      1  0.5064790000000  0.5152490000000  0.5324030000000 1.0
END
