TITL C-951336-9012-39 -2.30543369158026e-06 125000 -1106.00153113809 0 0 177 (C1) n - 1
REM
REM in /home/bkarasulu/work/CARBON/AIRSS/Generating-Clusters/EDIP-Nigel-Params/with-SteepDescent/Only-C1/SD-CG/HFTN-CG
REM
REM
REM
REM
REM
REM ./C.cell (11c1c37f851c82e70ff6c80c92926a4b)
REM
REM compiler GCC version 9.2.1 20190827 (Red Hat 9.2.1-1)
REM options -cpp -mtune=generic -march=x86-64 -g -O0 -fpre-include=/usr/include/finclude/math-vector-fortran.h
REM seed 622144696 -143820896 -493602327 -1194026024 -1826100196 -1045499081 1789503640 -658599476 -1279682289 -74156629 -670325076 2042334449 -456252347 -1438299394 -241888302 -639344849 15460826 1321966214 833631459 1995990035 420114526 1541144461 2102502775 116119480 -777514335 -1895835593 -1250824599 -1180230222 1423292801 695065527 -1062623087 845239416 486105640
REM
CELL 1.54180   50.00000   50.00000   50.00000   90.00000   90.00000   90.00000
LATT -1
SFAC C  
C      1  0.4930970000000  0.3793560000000  0.4933660000000 1.0
C      1  0.4627460000000  0.5375370000000  0.4531520000000 1.0
C      1  0.5177640000000  0.4422420000000  0.4172280000000 1.0
C      1  0.5093890000000  0.5184800000000  0.4486270000000 1.0
C      1  0.4795880000000  0.5021310000000  0.6067620000000 1.0
C      1  0.5286070000000  0.5401480000000  0.5579730000000 1.0
C      1  0.5287970000000  0.5975410000000  0.4491900000000 1.0
C      1  0.3801600000000  0.5029510000000  0.4831630000000 1.0
C      1  0.5486160000000  0.4983450000000  0.5482790000000 1.0
C      1  0.4969790000000  0.5024840000000  0.5478480000000 1.0
C      1  0.5058600000000  0.4392180000000  0.5798870000000 1.0
C      1  0.5533860000000  0.4352390000000  0.5528430000000 1.0
C      1  0.5789500000000  0.5771380000000  0.4775360000000 1.0
C      1  0.5570710000000  0.4849740000000  0.5021600000000 1.0
C      1  0.4516810000000  0.4935960000000  0.5449410000000 1.0
C      1  0.5009650000000  0.4351020000000  0.3927560000000 1.0
C      1  0.5702400000000  0.5177550000000  0.5367710000000 1.0
C      1  0.5082710000000  0.5039210000000  0.6012790000000 1.0
C      1  0.4961760000000  0.5344570000000  0.5144690000000 1.0
C      1  0.4304920000000  0.5079410000000  0.4188530000000 1.0
C      1  0.5356340000000  0.4502750000000  0.4767520000000 1.0
C      1  0.4284000000000  0.5133380000000  0.4919810000000 1.0
C      1  0.5606970000000  0.4129940000000  0.5087070000000 1.0
C      1  0.4854370000000  0.5923750000000  0.5852940000000 1.0
C      1  0.5883060000000  0.5102880000000  0.4746790000000 1.0
C      1  0.5007530000000  0.4199090000000  0.4601870000000 1.0
C      1  0.5779170000000  0.5798590000000  0.5274350000000 1.0
C      1  0.5426610000000  0.4674160000000  0.5875180000000 1.0
C      1  0.5186910000000  0.5910130000000  0.5495880000000 1.0
C      1  0.4985300000000  0.4571680000000  0.6037390000000 1.0
C      1  0.4846540000000  0.4100420000000  0.5683900000000 1.0
C      1  0.5114670000000  0.4004880000000  0.5016920000000 1.0
C      1  0.5034350000000  0.4907270000000  0.5203000000000 1.0
C      1  0.4909090000000  0.5954340000000  0.5565230000000 1.0
C      1  0.5656440000000  0.4652490000000  0.4194860000000 1.0
C      1  0.5629620000000  0.5828490000000  0.5022360000000 1.0
C      1  0.4414380000000  0.4296960000000  0.4246300000000 1.0
C      1  0.4988130000000  0.5127660000000  0.3984730000000 1.0
C      1  0.5684450000000  0.4586820000000  0.5435930000000 1.0
C      1  0.4102530000000  0.4292240000000  0.5299200000000 1.0
C      1  0.5208050000000  0.5142120000000  0.5108600000000 1.0
C      1  0.5131160000000  0.4877820000000  0.4451280000000 1.0
C      1  0.4456070000000  0.4666720000000  0.5929280000000 1.0
C      1  0.4057050000000  0.5608530000000  0.5197530000000 1.0
C      1  0.5809170000000  0.4610840000000  0.4649980000000 1.0
C      1  0.4515990000000  0.4387540000000  0.5530880000000 1.0
C      1  0.5250590000000  0.5762520000000  0.5239390000000 1.0
C      1  0.5418710000000  0.5513640000000  0.5316430000000 1.0
C      1  0.4271500000000  0.4546420000000  0.4264510000000 1.0
C      1  0.6009590000000  0.5391500000000  0.4368870000000 1.0
C      1  0.4979130000000  0.4497940000000  0.5431560000000 1.0
C      1  0.4165650000000  0.5590670000000  0.4767450000000 1.0
C      1  0.4120450000000  0.5382730000000  0.5378790000000 1.0
C      1  0.4524290000000  0.5226250000000  0.4057050000000 1.0
C      1  0.5829920000000  0.4319700000000  0.4599870000000 1.0
C      1  0.4257800000000  0.4826500000000  0.5049590000000 1.0
C      1  0.5199080000000  0.4773580000000  0.6030900000000 1.0
C      1  0.5404710000000  0.5197700000000  0.4652170000000 1.0
C      1  0.5587660000000  0.4224100000000  0.4454680000000 1.0
C      1  0.5628060000000  0.4840160000000  0.5720580000000 1.0
C      1  0.4319730000000  0.4776250000000  0.4088390000000 1.0
C      1  0.5007520000000  0.5634950000000  0.5106890000000 1.0
C      1  0.4845370000000  0.5823500000000  0.4227140000000 1.0
C      1  0.5450970000000  0.5307520000000  0.3949470000000 1.0
C      1  0.4489250000000  0.5324560000000  0.5094590000000 1.0
C      1  0.5346640000000  0.5697300000000  0.4137430000000 1.0
C      1  0.4567990000000  0.4501210000000  0.4795980000000 1.0
C      1  0.4670230000000  0.4017120000000  0.4610480000000 1.0
C      1  0.5637380000000  0.4771160000000  0.4469060000000 1.0
C      1  0.4703550000000  0.4823210000000  0.4303130000000 1.0
C      1  0.4862710000000  0.5279060000000  0.4675980000000 1.0
C      1  0.4448510000000  0.5767490000000  0.5660670000000 1.0
C      1  0.5820000000000  0.5011720000000  0.5038370000000 1.0
C      1  0.4852860000000  0.4600550000000  0.3876260000000 1.0
C      1  0.5312500000000  0.5810270000000  0.5744010000000 1.0
C      1  0.4699310000000  0.5394420000000  0.4228120000000 1.0
C      1  0.5399430000000  0.4028100000000  0.4895530000000 1.0
C      1  0.4991020000000  0.5309070000000  0.4213690000000 1.0
C      1  0.4956510000000  0.4185430000000  0.5424760000000 1.0
C      1  0.4704260000000  0.5056680000000  0.3899730000000 1.0
C      1  0.5661480000000  0.5605600000000  0.5456320000000 1.0
C      1  0.4546060000000  0.4782200000000  0.5190130000000 1.0
C      1  0.6096370000000  0.5288550000000  0.5234670000000 1.0
C      1  0.5581510000000  0.5374020000000  0.5056660000000 1.0
C      1  0.3814800000000  0.4761590000000  0.4913400000000 1.0
C      1  0.4472940000000  0.5850910000000  0.5391250000000 1.0
C      1  0.5365520000000  0.4408550000000  0.5766850000000 1.0
C      1  0.4754610000000  0.4838620000000  0.5588750000000 1.0
C      1  0.4140930000000  0.5274110000000  0.4366750000000 1.0
C      1  0.6006750000000  0.5573530000000  0.4846530000000 1.0
C      1  0.4620680000000  0.5740280000000  0.5883940000000 1.0
C      1  0.5557740000000  0.5628380000000  0.5743250000000 1.0
C      1  0.4466910000000  0.3971970000000  0.5100010000000 1.0
C      1  0.4563150000000  0.4092700000000  0.5599830000000 1.0
C      1  0.3982840000000  0.5203340000000  0.4976310000000 1.0
C      1  0.4374580000000  0.5164950000000  0.5801000000000 1.0
C      1  0.4522550000000  0.3924910000000  0.5373700000000 1.0
C      1  0.5063890000000  0.5936980000000  0.4648400000000 1.0
C      1  0.5885940000000  0.5181130000000  0.5617300000000 1.0
C      1  0.5504070000000  0.4387880000000  0.4207770000000 1.0
C      1  0.5218420000000  0.5295300000000  0.6003090000000 1.0
C      1  0.5474310000000  0.5585100000000  0.3915390000000 1.0
C      1  0.5363300000000  0.3904900000000  0.5444350000000 1.0
C      1  0.4771000000000  0.4912970000000  0.5014580000000 1.0
C      1  0.5357340000000  0.4211040000000  0.4656450000000 1.0
C      1  0.5711780000000  0.5118870000000  0.5850180000000 1.0
C      1  0.5479520000000  0.5811750000000  0.4370790000000 1.0
C      1  0.4347430000000  0.4394690000000  0.4614940000000 1.0
C      1  0.4537240000000  0.5236990000000  0.5394780000000 1.0
C      1  0.5099420000000  0.5824920000000  0.4110350000000 1.0
C      1  0.5314250000000  0.4847510000000  0.3869630000000 1.0
C      1  0.4677660000000  0.3912470000000  0.4882900000000 1.0
C      1  0.4759460000000  0.5222880000000  0.4958590000000 1.0
C      1  0.4658050000000  0.5657510000000  0.4113350000000 1.0
C      1  0.4833830000000  0.5285330000000  0.5414900000000 1.0
C      1  0.5623100000000  0.4584450000000  0.4888360000000 1.0
C      1  0.5107050000000  0.5792480000000  0.5961350000000 1.0
C      1  0.3954120000000  0.5493730000000  0.4941100000000 1.0
C      1  0.5504830000000  0.5344530000000  0.5893560000000 1.0
C      1  0.5677090000000  0.5144950000000  0.4036330000000 1.0
C      1  0.4222480000000  0.4448420000000  0.5508620000000 1.0
C      1  0.4261670000000  0.5372790000000  0.5632320000000 1.0
C      1  0.4077680000000  0.4637430000000  0.4863610000000 1.0
C      1  0.5236410000000  0.5107290000000  0.5602740000000 1.0
C      1  0.4767980000000  0.5784090000000  0.5022550000000 1.0
C      1  0.5239940000000  0.5133730000000  0.3825260000000 1.0
C      1  0.5128210000000  0.6017760000000  0.4917050000000 1.0
C      1  0.4298780000000  0.4868860000000  0.5766340000000 1.0
C      1  0.4909690000000  0.4697600000000  0.4480970000000 1.0
C      1  0.4632310000000  0.4782840000000  0.4008840000000 1.0
C      1  0.4513410000000  0.4892550000000  0.4534360000000 1.0
C      1  0.5899270000000  0.5473110000000  0.5108950000000 1.0
C      1  0.3980420000000  0.5151640000000  0.5274580000000 1.0
C      1  0.5465860000000  0.5463560000000  0.4766810000000 1.0
C      1  0.4812020000000  0.5833520000000  0.4514920000000 1.0
C      1  0.5621700000000  0.5632920000000  0.4572240000000 1.0
C      1  0.4066570000000  0.4344640000000  0.4915820000000 1.0
C      1  0.4564950000000  0.5663780000000  0.4591060000000 1.0
C      1  0.4710740000000  0.4749640000000  0.4740030000000 1.0
C      1  0.4143580000000  0.4730830000000  0.5541610000000 1.0
C      1  0.4670810000000  0.4493090000000  0.5273280000000 1.0
C      1  0.4612640000000  0.5228450000000  0.5965410000000 1.0
C      1  0.4988700000000  0.4417910000000  0.4406300000000 1.0
C      1  0.5467950000000  0.4754220000000  0.5289300000000 1.0
C      1  0.6031570000000  0.4809450000000  0.5134270000000 1.0
C      1  0.5800340000000  0.4344700000000  0.4994880000000 1.0
C      1  0.5105590000000  0.4707720000000  0.4043940000000 1.0
C      1  0.4718360000000  0.4732490000000  0.6090970000000 1.0
C      1  0.5145400000000  0.4513090000000  0.4966790000000 1.0
C      1  0.4434770000000  0.4129720000000  0.4489540000000 1.0
C      1  0.4976590000000  0.4276520000000  0.4918730000000 1.0
C      1  0.5128530000000  0.3984270000000  0.5308730000000 1.0
C      1  0.6035540000000  0.5342190000000  0.4653030000000 1.0
C      1  0.5409300000000  0.6023090000000  0.5005190000000 1.0
C      1  0.4800460000000  0.6063810000000  0.5102790000000 1.0
C      1  0.5172570000000  0.4640410000000  0.5231950000000 1.0
C      1  0.4395800000000  0.5157620000000  0.4611470000000 1.0
C      1  0.3795520000000  0.4725800000000  0.5194970000000 1.0
C      1  0.4274700000000  0.4204250000000  0.5081320000000 1.0
C      1  0.6100120000000  0.4996310000000  0.5589880000000 1.0
C      1  0.5910830000000  0.4535960000000  0.5231080000000 1.0
C      1  0.4689910000000  0.4336160000000  0.5006570000000 1.0
C      1  0.4499860000000  0.5681970000000  0.5126490000000 1.0
C      1  0.4043090000000  0.4857860000000  0.5284130000000 1.0
C      1  0.5360870000000  0.5026520000000  0.4895500000000 1.0
C      1  0.4218920000000  0.5540060000000  0.4483260000000 1.0
C      1  0.5800200000000  0.5210880000000  0.4299180000000 1.0
C      1  0.5356900000000  0.4732710000000  0.4563210000000 1.0
C      1  0.5576990000000  0.4863620000000  0.4002050000000 1.0
C      1  0.4287000000000  0.5782050000000  0.4948880000000 1.0
C      1  0.5679380000000  0.5068990000000  0.4528770000000 1.0
C      1  0.4745580000000  0.5483970000000  0.5944520000000 1.0
C      1  0.6163180000000  0.5019710000000  0.5315840000000 1.0
C      1  0.4674140000000  0.4580940000000  0.5733010000000 1.0
C      1  0.4699520000000  0.6043860000000  0.5377320000000 1.0
C      1  0.5024150000000  0.5515760000000  0.6023570000000 1.0
C      1  0.5548720000000  0.4104340000000  0.5376290000000 1.0
END
