TITL C-950530-3293-432 1.07665737437784e-06 125000 -734.056677061537 0 0 119 (C1) n - 1
REM
REM in /home/bkarasulu/work/CARBON/AIRSS/Generating-Clusters/EDIP-Nigel-Params/with-SteepDescent/Only-C1/SD-CG/HFTN-CG
REM
REM
REM
REM
REM
REM ./C.cell (11c1c37f851c82e70ff6c80c92926a4b)
REM
REM compiler GCC version 9.2.1 20190827 (Red Hat 9.2.1-1)
REM options -cpp -mtune=generic -march=x86-64 -g -O0 -fpre-include=/usr/include/finclude/math-vector-fortran.h
REM seed 846665020 -296865382 -31008240 -736349182 1233798375 -1626457621 966329637 1254700157 1018936082 1875433425 -1337091120 -767475758 1010269293 -623129075 -59951076 754058987 -1192966856 717343461 1388877619 795590162 -2064994565 -1059833528 -1552363447 -1523993105 1509274524 1872053501 -944593551 -895033810 -1158140799 -1749591543 -114178644 -1486567453 -1709962811
REM
CELL 1.54180   50.00000   50.00000   50.00000   90.00000   90.00000   90.00000
LATT -1
SFAC C  
C      1  0.4616300000000  0.4375580000000  0.5160130000000 1.0
C      1  0.5846120000000  0.5468570000000  0.5241740000000 1.0
C      1  0.5731810000000  0.4548270000000  0.5121340000000 1.0
C      1  0.5017610000000  0.5503250000000  0.4730040000000 1.0
C      1  0.4282270000000  0.5436630000000  0.4363230000000 1.0
C      1  0.4976720000000  0.5113340000000  0.5376560000000 1.0
C      1  0.4151620000000  0.4568610000000  0.5446700000000 1.0
C      1  0.4196350000000  0.5292670000000  0.4591430000000 1.0
C      1  0.5088990000000  0.5794120000000  0.4670900000000 1.0
C      1  0.4889540000000  0.5960740000000  0.4827900000000 1.0
C      1  0.5040410000000  0.5816550000000  0.4386410000000 1.0
C      1  0.5665510000000  0.5321830000000  0.5422510000000 1.0
C      1  0.5654190000000  0.4926260000000  0.5748350000000 1.0
C      1  0.4690600000000  0.4205960000000  0.5393620000000 1.0
C      1  0.4989700000000  0.4114510000000  0.4672770000000 1.0
C      1  0.4964010000000  0.4676370000000  0.5130300000000 1.0
C      1  0.5171160000000  0.4413620000000  0.4367360000000 1.0
C      1  0.4511550000000  0.5773650000000  0.5432010000000 1.0
C      1  0.5316870000000  0.4761120000000  0.4768670000000 1.0
C      1  0.5321330000000  0.5485440000000  0.4202230000000 1.0
C      1  0.5579260000000  0.5252420000000  0.4516790000000 1.0
C      1  0.5177160000000  0.4753080000000  0.5545130000000 1.0
C      1  0.4695670000000  0.3931220000000  0.4974190000000 1.0
C      1  0.4250610000000  0.4312290000000  0.4821260000000 1.0
C      1  0.5448380000000  0.4578890000000  0.5559650000000 1.0
C      1  0.5639830000000  0.4591850000000  0.4513060000000 1.0
C      1  0.5496550000000  0.5040300000000  0.4332990000000 1.0
C      1  0.6056580000000  0.5065310000000  0.4763250000000 1.0
C      1  0.4551080000000  0.5373470000000  0.4301660000000 1.0
C      1  0.4509510000000  0.4985720000000  0.5571100000000 1.0
C      1  0.4173160000000  0.5418720000000  0.4839270000000 1.0
C      1  0.5079430000000  0.5052280000000  0.4868410000000 1.0
C      1  0.4742740000000  0.5543240000000  0.4850530000000 1.0
C      1  0.4676410000000  0.5162890000000  0.5740270000000 1.0
C      1  0.5936230000000  0.4683790000000  0.4986600000000 1.0
C      1  0.5557320000000  0.5755830000000  0.4554100000000 1.0
C      1  0.4406420000000  0.5596600000000  0.5632820000000 1.0
C      1  0.4591530000000  0.5000790000000  0.4709250000000 1.0
C      1  0.5583090000000  0.5505280000000  0.5652930000000 1.0
C      1  0.5622740000000  0.5145420000000  0.4784980000000 1.0
C      1  0.5150820000000  0.5468110000000  0.5619700000000 1.0
C      1  0.5191010000000  0.5328580000000  0.4902800000000 1.0
C      1  0.5683090000000  0.5556180000000  0.5011720000000 1.0
C      1  0.4452640000000  0.5102660000000  0.5307200000000 1.0
C      1  0.5167860000000  0.5336460000000  0.5342190000000 1.0
C      1  0.5031250000000  0.5025690000000  0.4557050000000 1.0
C      1  0.5470750000000  0.5764190000000  0.5034150000000 1.0
C      1  0.4417280000000  0.4228830000000  0.5545470000000 1.0
C      1  0.5952710000000  0.5099910000000  0.5285830000000 1.0
C      1  0.5483270000000  0.5321760000000  0.4982780000000 1.0
C      1  0.5160640000000  0.4269820000000  0.5411360000000 1.0
C      1  0.4959920000000  0.4750970000000  0.5905430000000 1.0
C      1  0.5631220000000  0.4838540000000  0.4807530000000 1.0
C      1  0.4732360000000  0.4036610000000  0.4723950000000 1.0
C      1  0.4178750000000  0.5003790000000  0.4555580000000 1.0
C      1  0.6000790000000  0.4959740000000  0.5019030000000 1.0
C      1  0.4242260000000  0.5286710000000  0.5284100000000 1.0
C      1  0.5419140000000  0.4256980000000  0.4802710000000 1.0
C      1  0.5179410000000  0.4686010000000  0.4243560000000 1.0
C      1  0.4786530000000  0.4835800000000  0.4529360000000 1.0
C      1  0.5121980000000  0.4870220000000  0.5271150000000 1.0
C      1  0.4218110000000  0.4749860000000  0.5173640000000 1.0
C      1  0.5063810000000  0.4562090000000  0.4875890000000 1.0
C      1  0.4900520000000  0.4612120000000  0.5645640000000 1.0
C      1  0.4824150000000  0.3988880000000  0.5217540000000 1.0
C      1  0.4247860000000  0.4918240000000  0.4301400000000 1.0
C      1  0.4231460000000  0.5495050000000  0.5101140000000 1.0
C      1  0.5410580000000  0.4291490000000  0.5535080000000 1.0
C      1  0.5198230000000  0.4909570000000  0.5945690000000 1.0
C      1  0.5140580000000  0.4245830000000  0.4895170000000 1.0
C      1  0.4953900000000  0.5079000000000  0.5693200000000 1.0
C      1  0.4786510000000  0.5081750000000  0.4938810000000 1.0
C      1  0.4806950000000  0.5804470000000  0.5479190000000 1.0
C      1  0.5408720000000  0.5728450000000  0.5543260000000 1.0
C      1  0.4636180000000  0.5820470000000  0.4832560000000 1.0
C      1  0.5435170000000  0.5228510000000  0.5261140000000 1.0
C      1  0.4844990000000  0.5389290000000  0.4131850000000 1.0
C      1  0.4701620000000  0.4782550000000  0.4246250000000 1.0
C      1  0.5386850000000  0.5052900000000  0.5776510000000 1.0
C      1  0.5642570000000  0.4678700000000  0.5358250000000 1.0
C      1  0.4825290000000  0.4563150000000  0.4669950000000 1.0
C      1  0.4682920000000  0.4651620000000  0.5214880000000 1.0
C      1  0.5055500000000  0.5613600000000  0.4190620000000 1.0
C      1  0.4887320000000  0.5607370000000  0.5681420000000 1.0
C      1  0.4736010000000  0.5515800000000  0.5152300000000 1.0
C      1  0.5100270000000  0.4103130000000  0.5174810000000 1.0
C      1  0.4968350000000  0.6046920000000  0.5079780000000 1.0
C      1  0.5275630000000  0.4870900000000  0.4457800000000 1.0
C      1  0.4003630000000  0.4823350000000  0.4998490000000 1.0
C      1  0.4951680000000  0.4835090000000  0.4103920000000 1.0
C      1  0.4320600000000  0.4373060000000  0.5106180000000 1.0
C      1  0.4491670000000  0.4776070000000  0.5018400000000 1.0
C      1  0.5729380000000  0.4839880000000  0.4386350000000 1.0
C      1  0.5459380000000  0.5510430000000  0.4459230000000 1.0
C      1  0.4116030000000  0.4789420000000  0.4743130000000 1.0
C      1  0.4942930000000  0.5316310000000  0.4495260000000 1.0
C      1  0.5941310000000  0.4960420000000  0.4535050000000 1.0
C      1  0.5582200000000  0.4652850000000  0.5813860000000 1.0
C      1  0.4519800000000  0.4581320000000  0.4778030000000 1.0
C      1  0.5311710000000  0.5198850000000  0.4123500000000 1.0
C      1  0.4455830000000  0.5690680000000  0.5145010000000 1.0
C      1  0.4919950000000  0.4319380000000  0.5565450000000 1.0
C      1  0.4642640000000  0.5453220000000  0.5706440000000 1.0
C      1  0.5784350000000  0.4908420000000  0.5471160000000 1.0
C      1  0.4900090000000  0.4322000000000  0.4489690000000 1.0
C      1  0.5605110000000  0.4337460000000  0.4992800000000 1.0
C      1  0.4624570000000  0.4705280000000  0.5522110000000 1.0
C      1  0.4641730000000  0.5288870000000  0.4572870000000 1.0
C      1  0.5277110000000  0.5705800000000  0.5269210000000 1.0
C      1  0.4458380000000  0.4869150000000  0.4143220000000 1.0
C      1  0.5373030000000  0.5344620000000  0.5806750000000 1.0
C      1  0.5420840000000  0.4398730000000  0.4543570000000 1.0
C      1  0.4159900000000  0.4521050000000  0.4649830000000 1.0
C      1  0.4985090000000  0.5805620000000  0.5233020000000 1.0
C      1  0.5022820000000  0.5130030000000  0.4103530000000 1.0
C      1  0.4724640000000  0.5203060000000  0.5205190000000 1.0
C      1  0.4176900000000  0.4256060000000  0.5353300000000 1.0
C      1  0.4399590000000  0.4525610000000  0.5621280000000 1.0
C      1  0.5377050000000  0.5832170000000  0.4755260000000 1.0
END
