TITL C-951343-2256-493 2.6434922620049e-07 125000 -198.118942057696 0 0 34 (C1) n - 1
REM
REM in /home/bkarasulu/work/CARBON/AIRSS/Generating-Clusters/EDIP-Nigel-Params/with-SteepDescent/Only-C1/SD-CG/HFTN-CG
REM
REM
REM
REM
REM
REM ./C.cell (11c1c37f851c82e70ff6c80c92926a4b)
REM
REM compiler GCC version 9.2.1 20190827 (Red Hat 9.2.1-1)
REM options -cpp -mtune=generic -march=x86-64 -g -O0 -fpre-include=/usr/include/finclude/math-vector-fortran.h
REM seed -311447255 -1309873848 -1981333840 -818882876 -1655932546 113792223 -2081594415 1525971245 -654766282 2065648363 -1986901227 -1128269714 1332113886 -933180010 -2083772234 -1413508630 530188390 2095815700 -1335057042 -391034051 1980877988 -464428708 682851567 135386253 -1775378661 1332133661 -1185153804 982701061 504048171 1221618807 295971761 -1664714295 -922670588
REM
CELL 1.54180   50.00000   50.00000   50.00000   90.00000   90.00000   90.00000
LATT -1
SFAC C  
C      1  0.5181040000000  0.5370390000000  0.5074670000000 1.0
C      1  0.4933300000000  0.5441170000000  0.5201790000000 1.0
C      1  0.5265080000000  0.4964760000000  0.4472300000000 1.0
C      1  0.5088600000000  0.4705310000000  0.5453020000000 1.0
C      1  0.5093570000000  0.4363050000000  0.4840120000000 1.0
C      1  0.5438420000000  0.4840130000000  0.4658670000000 1.0
C      1  0.5300370000000  0.4580740000000  0.5280450000000 1.0
C      1  0.4883520000000  0.4776050000000  0.5240940000000 1.0
C      1  0.4345530000000  0.5182100000000  0.5063130000000 1.0
C      1  0.4819890000000  0.4513090000000  0.4833690000000 1.0
C      1  0.5016580000000  0.4912090000000  0.5000960000000 1.0
C      1  0.5632480000000  0.5255270000000  0.4770810000000 1.0
C      1  0.4452710000000  0.5018260000000  0.4881830000000 1.0
C      1  0.5500130000000  0.5026230000000  0.4869860000000 1.0
C      1  0.5442440000000  0.5431840000000  0.4696880000000 1.0
C      1  0.4695080000000  0.4947940000000  0.5379460000000 1.0
C      1  0.4604350000000  0.5503550000000  0.5490120000000 1.0
C      1  0.4877850000000  0.5104360000000  0.5543070000000 1.0
C      1  0.4881950000000  0.4806220000000  0.4744110000000 1.0
C      1  0.5158240000000  0.4985160000000  0.5569240000000 1.0
C      1  0.4801270000000  0.4504190000000  0.5139140000000 1.0
C      1  0.4351530000000  0.5409640000000  0.5215590000000 1.0
C      1  0.4576150000000  0.5585090000000  0.5213260000000 1.0
C      1  0.5266020000000  0.5073750000000  0.5063130000000 1.0
C      1  0.4655610000000  0.4999620000000  0.4695280000000 1.0
C      1  0.5190430000000  0.5483260000000  0.4804570000000 1.0
C      1  0.5147470000000  0.4534480000000  0.4429820000000 1.0
C      1  0.5294070000000  0.4487270000000  0.4667950000000 1.0
C      1  0.4872970000000  0.5394610000000  0.5481220000000 1.0
C      1  0.4759460000000  0.5244960000000  0.4615300000000 1.0
C      1  0.4961980000000  0.5416590000000  0.4656550000000 1.0
C      1  0.5040740000000  0.4793800000000  0.4480420000000 1.0
C      1  0.5362370000000  0.4957010000000  0.5327910000000 1.0
C      1  0.5108810000000  0.4388040000000  0.5144720000000 1.0
END
