TITL C-950527-2551-3 -3.0639950705227e-06 125000 -522.934973451545 0 0 86 (C1) n - 1
REM
REM in /home/bkarasulu/work/CARBON/AIRSS/Generating-Clusters/EDIP-Nigel-Params/with-SteepDescent/Only-C1/SD-CG/HFTN-CG
REM
REM
REM
REM
REM
REM ./C.cell (11c1c37f851c82e70ff6c80c92926a4b)
REM
REM compiler GCC version 9.2.1 20190827 (Red Hat 9.2.1-1)
REM options -cpp -mtune=generic -march=x86-64 -g -O0 -fpre-include=/usr/include/finclude/math-vector-fortran.h
REM seed -891399733 -1005524633 -1119811104 -2060728084 -359766653 280260738 1947334079 -1474900914 1833550840 -1640581853 1627902904 1106140690 121569891 -1497514695 2002168263 1489732461 1767174542 368610890 1371259298 884137775 -496242730 1495285877 -1157669324 -2106460946 794116060 912874669 1667874618 -1461404535 -1458634121 1190452798 1356481741 -923822614 729090159
REM
CELL 1.54180   50.00000   50.00000   50.00000   90.00000   90.00000   90.00000
LATT -1
SFAC C  
C      1  0.4277380000000  0.4863430000000  0.5017290000000 1.0
C      1  0.5351610000000  0.4640320000000  0.5608590000000 1.0
C      1  0.4437200000000  0.5377530000000  0.4519830000000 1.0
C      1  0.5053560000000  0.5551670000000  0.5406780000000 1.0
C      1  0.4283480000000  0.4558200000000  0.5024780000000 1.0
C      1  0.4173070000000  0.5067220000000  0.5200210000000 1.0
C      1  0.5038090000000  0.4871780000000  0.4900590000000 1.0
C      1  0.4910700000000  0.4324960000000  0.4711190000000 1.0
C      1  0.5113150000000  0.5877030000000  0.5063040000000 1.0
C      1  0.5252810000000  0.5081610000000  0.5309240000000 1.0
C      1  0.4187490000000  0.5330100000000  0.5099640000000 1.0
C      1  0.4867510000000  0.4764810000000  0.4685560000000 1.0
C      1  0.4917560000000  0.4979060000000  0.4033530000000 1.0
C      1  0.4562210000000  0.4888370000000  0.5781550000000 1.0
C      1  0.5148730000000  0.4188300000000  0.5123900000000 1.0
C      1  0.5275000000000  0.5024700000000  0.4795110000000 1.0
C      1  0.5026180000000  0.4821000000000  0.5838870000000 1.0
C      1  0.5715660000000  0.4769220000000  0.5291720000000 1.0
C      1  0.4869200000000  0.5018460000000  0.5089230000000 1.0
C      1  0.4242660000000  0.5525790000000  0.4660340000000 1.0
C      1  0.5234060000000  0.5739260000000  0.5275080000000 1.0
C      1  0.4893120000000  0.4301890000000  0.5011700000000 1.0
C      1  0.4944620000000  0.5292980000000  0.5004490000000 1.0
C      1  0.5185210000000  0.5119840000000  0.4055680000000 1.0
C      1  0.5508670000000  0.4298000000000  0.5359920000000 1.0
C      1  0.5122340000000  0.5377550000000  0.5642640000000 1.0
C      1  0.4320810000000  0.5509470000000  0.4927320000000 1.0
C      1  0.4820030000000  0.4972140000000  0.5679850000000 1.0
C      1  0.5357340000000  0.4449110000000  0.4475540000000 1.0
C      1  0.5522700000000  0.4660970000000  0.4624850000000 1.0
C      1  0.4239880000000  0.5052670000000  0.5479460000000 1.0
C      1  0.5426850000000  0.4310190000000  0.5066170000000 1.0
C      1  0.4751460000000  0.5467660000000  0.5179170000000 1.0
C      1  0.5192560000000  0.4214790000000  0.5427550000000 1.0
C      1  0.5600810000000  0.4560390000000  0.5473420000000 1.0
C      1  0.5023020000000  0.4664840000000  0.5316190000000 1.0
C      1  0.5722530000000  0.4651030000000  0.4868230000000 1.0
C      1  0.4531420000000  0.4915220000000  0.4325970000000 1.0
C      1  0.5595970000000  0.5710860000000  0.4969690000000 1.0
C      1  0.5838810000000  0.4898840000000  0.4943420000000 1.0
C      1  0.5229440000000  0.4603870000000  0.4266430000000 1.0
C      1  0.5167150000000  0.4291190000000  0.4604950000000 1.0
C      1  0.5222450000000  0.5328790000000  0.5136240000000 1.0
C      1  0.4552430000000  0.4729040000000  0.5327660000000 1.0
C      1  0.4930410000000  0.4979410000000  0.4480610000000 1.0
C      1  0.4561480000000  0.4714450000000  0.4719610000000 1.0
C      1  0.4401940000000  0.4393150000000  0.5236690000000 1.0
C      1  0.5101890000000  0.5461930000000  0.4451430000000 1.0
C      1  0.5290680000000  0.4781310000000  0.5251930000000 1.0
C      1  0.4400150000000  0.4829870000000  0.5561370000000 1.0
C      1  0.5019840000000  0.4531590000000  0.5781130000000 1.0
C      1  0.5530260000000  0.5192120000000  0.4423040000000 1.0
C      1  0.4990950000000  0.4429820000000  0.5500980000000 1.0
C      1  0.5298400000000  0.5309580000000  0.4262440000000 1.0
C      1  0.5608740000000  0.5246390000000  0.5550240000000 1.0
C      1  0.5411620000000  0.4940910000000  0.4554800000000 1.0
C      1  0.5691180000000  0.5114650000000  0.5064390000000 1.0
C      1  0.4401210000000  0.5389190000000  0.5560450000000 1.0
C      1  0.4683660000000  0.4647240000000  0.4302040000000 1.0
C      1  0.4820480000000  0.4871890000000  0.5351490000000 1.0
C      1  0.4584040000000  0.5628200000000  0.4991220000000 1.0
C      1  0.4723760000000  0.5490810000000  0.4537620000000 1.0
C      1  0.5503440000000  0.5654210000000  0.5227720000000 1.0
C      1  0.5630160000000  0.5373490000000  0.4627010000000 1.0
C      1  0.5444570000000  0.4603460000000  0.5002140000000 1.0
C      1  0.5227190000000  0.5646720000000  0.4644090000000 1.0
C      1  0.4747020000000  0.5702880000000  0.4755640000000 1.0
C      1  0.4699090000000  0.4374470000000  0.5247800000000 1.0
C      1  0.4251800000000  0.4952560000000  0.4740260000000 1.0
C      1  0.5202060000000  0.4888870000000  0.4357770000000 1.0
C      1  0.5503710000000  0.5609030000000  0.4724530000000 1.0
C      1  0.4936040000000  0.5261820000000  0.4639120000000 1.0
C      1  0.4642770000000  0.5448230000000  0.5698430000000 1.0
C      1  0.4573070000000  0.5302460000000  0.5344470000000 1.0
C      1  0.5629960000000  0.5493080000000  0.5418060000000 1.0
C      1  0.5771840000000  0.5034740000000  0.5428000000000 1.0
C      1  0.4901850000000  0.4687830000000  0.4106010000000 1.0
C      1  0.5323410000000  0.5155620000000  0.5583540000000 1.0
C      1  0.5305630000000  0.4904910000000  0.5757840000000 1.0
C      1  0.4415070000000  0.5084240000000  0.4541090000000 1.0
C      1  0.4864740000000  0.5268380000000  0.5732610000000 1.0
C      1  0.5441510000000  0.5230070000000  0.4930110000000 1.0
C      1  0.4405910000000  0.4461450000000  0.4777320000000 1.0
C      1  0.4709330000000  0.5096780000000  0.4191360000000 1.0
C      1  0.4681660000000  0.4403080000000  0.4520430000000 1.0
C      1  0.5030550000000  0.5764960000000  0.4820500000000 1.0
END
