TITL C-950529-3362-564 1.55647960927349e-06 125000 -1014.54441649804 0 0 161 (C1) n - 1
REM
REM in /home/bkarasulu/work/CARBON/AIRSS/Generating-Clusters/EDIP-Nigel-Params/with-SteepDescent/Only-C1/SD-CG/HFTN-CG
REM
REM
REM
REM
REM
REM ./C.cell (11c1c37f851c82e70ff6c80c92926a4b)
REM
REM compiler GCC version 9.2.1 20190827 (Red Hat 9.2.1-1)
REM options -cpp -mtune=generic -march=x86-64 -g -O0 -fpre-include=/usr/include/finclude/math-vector-fortran.h
REM seed -713816576 533346282 1954580264 -1263409447 582606537 -1394476412 -992042996 -1047020399 -521001696 806547332 -1452171350 935755205 -102999847 1623465191 -1302779558 1299263562 953872058 498946072 -2108511766 -1486358817 -1727814599 -1573299135 -435861893 1803157769 1236161476 -1114649491 -2015645144 -1581212251 -641213423 2051934390 2018905630 -1686852519 -1808320339
REM
CELL 1.54180   50.00000   50.00000   50.00000   90.00000   90.00000   90.00000
LATT -1
SFAC C  
C      1  0.4218870000000  0.5372260000000  0.4452670000000 1.0
C      1  0.4511500000000  0.4348950000000  0.4338750000000 1.0
C      1  0.5482680000000  0.5736320000000  0.5753130000000 1.0
C      1  0.5166210000000  0.5086520000000  0.4561980000000 1.0
C      1  0.4179270000000  0.4454240000000  0.5511450000000 1.0
C      1  0.6017840000000  0.5592610000000  0.5418670000000 1.0
C      1  0.5068900000000  0.5537860000000  0.4088910000000 1.0
C      1  0.3883720000000  0.4761840000000  0.4738880000000 1.0
C      1  0.5850720000000  0.5136540000000  0.4932930000000 1.0
C      1  0.5715850000000  0.5798070000000  0.5563820000000 1.0
C      1  0.6082570000000  0.5144950000000  0.5297210000000 1.0
C      1  0.4319820000000  0.5046960000000  0.4968720000000 1.0
C      1  0.4554600000000  0.4632500000000  0.5217400000000 1.0
C      1  0.5502840000000  0.4682830000000  0.5880600000000 1.0
C      1  0.4250620000000  0.4316250000000  0.5266340000000 1.0
C      1  0.5292920000000  0.5242980000000  0.5999510000000 1.0
C      1  0.4231610000000  0.4675360000000  0.4115950000000 1.0
C      1  0.4068150000000  0.5209950000000  0.5018050000000 1.0
C      1  0.5566230000000  0.4736250000000  0.4701100000000 1.0
C      1  0.5378720000000  0.4556360000000  0.5621680000000 1.0
C      1  0.4365710000000  0.4484280000000  0.4552580000000 1.0
C      1  0.5570200000000  0.4332480000000  0.5196900000000 1.0
C      1  0.4488140000000  0.4735730000000  0.4645470000000 1.0
C      1  0.5246550000000  0.4109610000000  0.4490910000000 1.0
C      1  0.4254820000000  0.4314870000000  0.4762180000000 1.0
C      1  0.4717910000000  0.3969630000000  0.4544920000000 1.0
C      1  0.5429830000000  0.4146010000000  0.4718650000000 1.0
C      1  0.4853680000000  0.4411940000000  0.4733000000000 1.0
C      1  0.5179750000000  0.4791530000000  0.3988330000000 1.0
C      1  0.5038380000000  0.5096210000000  0.5023460000000 1.0
C      1  0.5100960000000  0.6008910000000  0.4980550000000 1.0
C      1  0.4916000000000  0.4934390000000  0.5248130000000 1.0
C      1  0.4660530000000  0.3917750000000  0.4827870000000 1.0
C      1  0.5314930000000  0.4482640000000  0.5059520000000 1.0
C      1  0.5214830000000  0.5950590000000  0.4736090000000 1.0
C      1  0.5559000000000  0.5218740000000  0.4922420000000 1.0
C      1  0.4153910000000  0.4963310000000  0.5661380000000 1.0
C      1  0.5782110000000  0.4399790000000  0.4947760000000 1.0
C      1  0.4302060000000  0.5678960000000  0.5336110000000 1.0
C      1  0.4936800000000  0.4173440000000  0.4546640000000 1.0
C      1  0.4633190000000  0.4135910000000  0.5042140000000 1.0
C      1  0.4907740000000  0.4995140000000  0.5538680000000 1.0
C      1  0.3975490000000  0.4661180000000  0.5001250000000 1.0
C      1  0.4476640000000  0.4127770000000  0.5298240000000 1.0
C      1  0.4425150000000  0.4992850000000  0.5793190000000 1.0
C      1  0.3930010000000  0.4810680000000  0.5258320000000 1.0
C      1  0.5788320000000  0.4698020000000  0.4913680000000 1.0
C      1  0.5689340000000  0.4801740000000  0.5166630000000 1.0
C      1  0.5501480000000  0.4491660000000  0.4252220000000 1.0
C      1  0.4482800000000  0.5818040000000  0.4857000000000 1.0
C      1  0.4669260000000  0.4706180000000  0.4004300000000 1.0
C      1  0.4867510000000  0.6010600000000  0.5132070000000 1.0
C      1  0.5001440000000  0.4398220000000  0.4223190000000 1.0
C      1  0.6037240000000  0.5343580000000  0.4660290000000 1.0
C      1  0.4461390000000  0.4504580000000  0.4084830000000 1.0
C      1  0.4949670000000  0.4629350000000  0.4055250000000 1.0
C      1  0.5382080000000  0.4745810000000  0.5162550000000 1.0
C      1  0.3943260000000  0.4954440000000  0.4528490000000 1.0
C      1  0.5271810000000  0.4312380000000  0.4284800000000 1.0
C      1  0.5393410000000  0.5756790000000  0.4456580000000 1.0
C      1  0.4823900000000  0.5800890000000  0.4450150000000 1.0
C      1  0.5192950000000  0.5185850000000  0.5624810000000 1.0
C      1  0.5032170000000  0.3949850000000  0.4936100000000 1.0
C      1  0.5193000000000  0.4104630000000  0.5478350000000 1.0
C      1  0.4608780000000  0.5466000000000  0.4177060000000 1.0
C      1  0.4978640000000  0.4857710000000  0.4546690000000 1.0
C      1  0.4845820000000  0.4662280000000  0.5165930000000 1.0
C      1  0.4277610000000  0.4952920000000  0.4146850000000 1.0
C      1  0.4839160000000  0.5623060000000  0.5798690000000 1.0
C      1  0.4362470000000  0.5492880000000  0.5778450000000 1.0
C      1  0.5633740000000  0.4932530000000  0.4017470000000 1.0
C      1  0.4826650000000  0.5662330000000  0.4194700000000 1.0
C      1  0.4557450000000  0.4976090000000  0.4060560000000 1.0
C      1  0.4886440000000  0.4399420000000  0.5744140000000 1.0
C      1  0.4284450000000  0.5409290000000  0.5498340000000 1.0
C      1  0.5729220000000  0.5316650000000  0.5717380000000 1.0
C      1  0.5653690000000  0.5654300000000  0.4910180000000 1.0
C      1  0.5471400000000  0.5182390000000  0.5232310000000 1.0
C      1  0.4636650000000  0.6022490000000  0.4972760000000 1.0
C      1  0.5430040000000  0.4995050000000  0.6087570000000 1.0
C      1  0.4986000000000  0.5168480000000  0.6000460000000 1.0
C      1  0.5935430000000  0.5450660000000  0.4957220000000 1.0
C      1  0.4917290000000  0.4020660000000  0.5405550000000 1.0
C      1  0.5888380000000  0.4843030000000  0.4443630000000 1.0
C      1  0.5619500000000  0.4440520000000  0.5485190000000 1.0
C      1  0.5847560000000  0.4564470000000  0.5600530000000 1.0
C      1  0.4546460000000  0.5804690000000  0.5454200000000 1.0
C      1  0.4047180000000  0.5211770000000  0.5524100000000 1.0
C      1  0.5283610000000  0.4776860000000  0.5442740000000 1.0
C      1  0.5183830000000  0.5074920000000  0.3908950000000 1.0
C      1  0.5329330000000  0.5580010000000  0.4215630000000 1.0
C      1  0.4827910000000  0.4672390000000  0.5897250000000 1.0
C      1  0.6092150000000  0.5413160000000  0.5212890000000 1.0
C      1  0.4078430000000  0.5495720000000  0.4658650000000 1.0
C      1  0.4508990000000  0.5442650000000  0.4458820000000 1.0
C      1  0.5650610000000  0.5681400000000  0.4604790000000 1.0
C      1  0.3914320000000  0.5118170000000  0.5262530000000 1.0
C      1  0.5704730000000  0.4294970000000  0.4679040000000 1.0
C      1  0.4678260000000  0.5217360000000  0.4629970000000 1.0
C      1  0.5680780000000  0.5892260000000  0.5073340000000 1.0
C      1  0.5318070000000  0.3992030000000  0.4960260000000 1.0
C      1  0.5402700000000  0.4083270000000  0.5232670000000 1.0
C      1  0.4825940000000  0.5772250000000  0.5314970000000 1.0
C      1  0.4582270000000  0.5710070000000  0.4598440000000 1.0
C      1  0.4407340000000  0.4399410000000  0.5673600000000 1.0
C      1  0.5414760000000  0.5036310000000  0.5497520000000 1.0
C      1  0.4426900000000  0.4923800000000  0.5222990000000 1.0
C      1  0.4497800000000  0.5263410000000  0.5909110000000 1.0
C      1  0.4988570000000  0.5272410000000  0.3995760000000 1.0
C      1  0.4113840000000  0.4738430000000  0.5472960000000 1.0
C      1  0.5444760000000  0.4717270000000  0.4079900000000 1.0
C      1  0.4977990000000  0.5293920000000  0.4682660000000 1.0
C      1  0.4766400000000  0.5242380000000  0.5532050000000 1.0
C      1  0.5525060000000  0.5390410000000  0.4116470000000 1.0
C      1  0.4149980000000  0.4421870000000  0.5010030000000 1.0
C      1  0.5852530000000  0.4989620000000  0.5348460000000 1.0
C      1  0.5832980000000  0.5474930000000  0.4488040000000 1.0
C      1  0.5057010000000  0.5418570000000  0.4967050000000 1.0
C      1  0.5061960000000  0.5954770000000  0.4502210000000 1.0
C      1  0.4693850000000  0.4925800000000  0.4541320000000 1.0
C      1  0.4256210000000  0.4870850000000  0.4744680000000 1.0
C      1  0.5736370000000  0.4501870000000  0.4437330000000 1.0
C      1  0.4513090000000  0.5237370000000  0.5360530000000 1.0
C      1  0.5410990000000  0.5011370000000  0.4740480000000 1.0
C      1  0.5465400000000  0.5166890000000  0.3930060000000 1.0
C      1  0.5250900000000  0.4912660000000  0.4958940000000 1.0
C      1  0.5408640000000  0.5459010000000  0.5294620000000 1.0
C      1  0.5339880000000  0.4523380000000  0.4750360000000 1.0
C      1  0.4827150000000  0.5540860000000  0.5119080000000 1.0
C      1  0.4515020000000  0.4065340000000  0.4371190000000 1.0
C      1  0.5819670000000  0.5027960000000  0.4226920000000 1.0
C      1  0.5070110000000  0.4571380000000  0.4577810000000 1.0
C      1  0.5247230000000  0.4785500000000  0.6147580000000 1.0
C      1  0.4916310000000  0.4137920000000  0.5130770000000 1.0
C      1  0.5484130000000  0.5439920000000  0.5833230000000 1.0
C      1  0.4347750000000  0.5615670000000  0.5047430000000 1.0
C      1  0.5760070000000  0.4776390000000  0.5770290000000 1.0
C      1  0.4545080000000  0.5214520000000  0.4890890000000 1.0
C      1  0.4561500000000  0.5719970000000  0.5740520000000 1.0
C      1  0.5346590000000  0.6032700000000  0.5408540000000 1.0
C      1  0.4677740000000  0.4819440000000  0.5691970000000 1.0
C      1  0.5749760000000  0.5505940000000  0.5481680000000 1.0
C      1  0.5024250000000  0.5685740000000  0.5558430000000 1.0
C      1  0.4090780000000  0.5493550000000  0.4936960000000 1.0
C      1  0.4780240000000  0.5325700000000  0.5824270000000 1.0
C      1  0.5989810000000  0.5011160000000  0.4672520000000 1.0
C      1  0.5161780000000  0.5434720000000  0.5461400000000 1.0
C      1  0.5249520000000  0.5876660000000  0.5625010000000 1.0
C      1  0.4159400000000  0.5090700000000  0.4383740000000 1.0
C      1  0.4607020000000  0.4568010000000  0.5527570000000 1.0
C      1  0.5731210000000  0.5300590000000  0.4287580000000 1.0
C      1  0.5704540000000  0.5030080000000  0.5610580000000 1.0
C      1  0.5362830000000  0.5544350000000  0.5006380000000 1.0
C      1  0.5168250000000  0.4342640000000  0.5658930000000 1.0
C      1  0.4706280000000  0.5226850000000  0.4041900000000 1.0
C      1  0.5609160000000  0.5961850000000  0.5337340000000 1.0
C      1  0.5029060000000  0.4426120000000  0.5138250000000 1.0
C      1  0.5009360000000  0.4869100000000  0.6016950000000 1.0
C      1  0.4568130000000  0.5406870000000  0.5102720000000 1.0
C      1  0.4671340000000  0.4139580000000  0.5545420000000 1.0
C      1  0.4584830000000  0.4411820000000  0.4924390000000 1.0
END
