TITL C-951337-3020-664 1.17990814016264e-07 125000 -1089.56209283761 0 0 174 (C1) n - 1
REM
REM in /home/bkarasulu/work/CARBON/AIRSS/Generating-Clusters/EDIP-Nigel-Params/with-SteepDescent/Only-C1/SD-CG/HFTN-CG
REM
REM
REM
REM
REM
REM ./C.cell (11c1c37f851c82e70ff6c80c92926a4b)
REM
REM compiler GCC version 9.2.1 20190827 (Red Hat 9.2.1-1)
REM options -cpp -mtune=generic -march=x86-64 -g -O0 -fpre-include=/usr/include/finclude/math-vector-fortran.h
REM seed -1009734827 1483445494 -1481059026 155856830 1971012547 -1572500282 -1584256525 1891583044 -1020308314 436529801 -1119971982 390170293 -1922603137 -230504321 -969543183 -765513195 -1929736983 -677727502 -1129962965 -1520868657 -1692204602 -277913746 797709799 -659007180 652981833 1009392673 -1583270870 -682845773 -1967537100 -466375015 -295862314 291286155 -300848709
REM
CELL 1.54180   50.00000   50.00000   50.00000   90.00000   90.00000   90.00000
LATT -1
SFAC C  
C      1  0.4699830000000  0.5328730000000  0.4802180000000 1.0
C      1  0.5293250000000  0.5816670000000  0.5879130000000 1.0
C      1  0.3953990000000  0.4872450000000  0.5071700000000 1.0
C      1  0.5954370000000  0.5113000000000  0.4883570000000 1.0
C      1  0.4036820000000  0.5164620000000  0.4662000000000 1.0
C      1  0.4239930000000  0.5840180000000  0.5317280000000 1.0
C      1  0.5829240000000  0.5535830000000  0.5485380000000 1.0
C      1  0.5658200000000  0.5024950000000  0.4911350000000 1.0
C      1  0.6013460000000  0.5621090000000  0.4938030000000 1.0
C      1  0.5004640000000  0.5272290000000  0.4430850000000 1.0
C      1  0.4406340000000  0.5123360000000  0.5107860000000 1.0
C      1  0.5201840000000  0.5090700000000  0.5367290000000 1.0
C      1  0.3908850000000  0.4684020000000  0.4674470000000 1.0
C      1  0.4881260000000  0.4540720000000  0.4982360000000 1.0
C      1  0.4725070000000  0.5561840000000  0.4978510000000 1.0
C      1  0.4476750000000  0.4467120000000  0.4731550000000 1.0
C      1  0.5340350000000  0.4816790000000  0.5965660000000 1.0
C      1  0.4503230000000  0.5902150000000  0.5393500000000 1.0
C      1  0.5982790000000  0.5321870000000  0.5361200000000 1.0
C      1  0.5533640000000  0.5489810000000  0.5126100000000 1.0
C      1  0.6111150000000  0.4713520000000  0.5411500000000 1.0
C      1  0.4652700000000  0.5561260000000  0.4152140000000 1.0
C      1  0.5804600000000  0.4675460000000  0.4178520000000 1.0
C      1  0.5946790000000  0.4885190000000  0.4267490000000 1.0
C      1  0.4265260000000  0.4830480000000  0.5118690000000 1.0
C      1  0.5431320000000  0.5713020000000  0.5659630000000 1.0
C      1  0.4240730000000  0.4293050000000  0.4781100000000 1.0
C      1  0.4297740000000  0.5306470000000  0.5553970000000 1.0
C      1  0.5521450000000  0.4609640000000  0.5239050000000 1.0
C      1  0.4787390000000  0.6067380000000  0.4724450000000 1.0
C      1  0.4194260000000  0.5390270000000  0.4511400000000 1.0
C      1  0.5225090000000  0.4203990000000  0.5176810000000 1.0
C      1  0.5256730000000  0.4744700000000  0.5338700000000 1.0
C      1  0.4764000000000  0.4558390000000  0.5952190000000 1.0
C      1  0.5010230000000  0.3989220000000  0.5098970000000 1.0
C      1  0.4948360000000  0.4742850000000  0.5769010000000 1.0
C      1  0.4957460000000  0.5158590000000  0.5159990000000 1.0
C      1  0.4016590000000  0.4895030000000  0.4523830000000 1.0
C      1  0.5507490000000  0.4274890000000  0.5591170000000 1.0
C      1  0.5617110000000  0.4742230000000  0.4774720000000 1.0
C      1  0.5657980000000  0.6015100000000  0.4937520000000 1.0
C      1  0.4548470000000  0.4077080000000  0.5114530000000 1.0
C      1  0.5478990000000  0.5248540000000  0.5828840000000 1.0
C      1  0.4786070000000  0.4927700000000  0.5606170000000 1.0
C      1  0.4620600000000  0.4241930000000  0.5608270000000 1.0
C      1  0.5607360000000  0.4305370000000  0.4421790000000 1.0
C      1  0.3907600000000  0.5138410000000  0.4938140000000 1.0
C      1  0.5598340000000  0.4153050000000  0.4660610000000 1.0
C      1  0.4250060000000  0.5030170000000  0.5661060000000 1.0
C      1  0.4702020000000  0.4986340000000  0.5143250000000 1.0
C      1  0.4695900000000  0.4983030000000  0.3951010000000 1.0
C      1  0.4154170000000  0.4518740000000  0.5505020000000 1.0
C      1  0.5192770000000  0.5626120000000  0.4856320000000 1.0
C      1  0.6012770000000  0.5349630000000  0.5072050000000 1.0
C      1  0.5342550000000  0.5127190000000  0.4024830000000 1.0
C      1  0.4803030000000  0.4275780000000  0.5835810000000 1.0
C      1  0.5115160000000  0.3994920000000  0.5564720000000 1.0
C      1  0.5650840000000  0.4455960000000  0.5439010000000 1.0
C      1  0.5144760000000  0.3982540000000  0.4612160000000 1.0
C      1  0.5967330000000  0.4394720000000  0.4830130000000 1.0
C      1  0.4395980000000  0.4441760000000  0.5670880000000 1.0
C      1  0.5087150000000  0.4232800000000  0.4060000000000 1.0
C      1  0.4237070000000  0.4797990000000  0.4355470000000 1.0
C      1  0.4754210000000  0.4387660000000  0.5210430000000 1.0
C      1  0.4999930000000  0.4501090000000  0.4528810000000 1.0
C      1  0.4898260000000  0.3901410000000  0.5366860000000 1.0
C      1  0.5619840000000  0.5510140000000  0.4768060000000 1.0
C      1  0.4554730000000  0.4222060000000  0.4328610000000 1.0
C      1  0.5590540000000  0.4501670000000  0.4219290000000 1.0
C      1  0.4568090000000  0.6006430000000  0.4926750000000 1.0
C      1  0.4427790000000  0.4978060000000  0.4643060000000 1.0
C      1  0.5794320000000  0.4842300000000  0.5779650000000 1.0
C      1  0.4639280000000  0.4468030000000  0.4478740000000 1.0
C      1  0.4997840000000  0.4327260000000  0.5398270000000 1.0
C      1  0.5185300000000  0.4875530000000  0.4848740000000 1.0
C      1  0.4827080000000  0.5223290000000  0.5613810000000 1.0
C      1  0.5492170000000  0.5872770000000  0.5423720000000 1.0
C      1  0.4231020000000  0.5348850000000  0.5254370000000 1.0
C      1  0.4271850000000  0.4196420000000  0.5060720000000 1.0
C      1  0.4193560000000  0.4413440000000  0.5236970000000 1.0
C      1  0.4870990000000  0.4015300000000  0.4632500000000 1.0
C      1  0.4933350000000  0.5771390000000  0.5548140000000 1.0
C      1  0.5597370000000  0.5471710000000  0.5674280000000 1.0
C      1  0.3791820000000  0.5176010000000  0.5396140000000 1.0
C      1  0.4455510000000  0.5709260000000  0.4909500000000 1.0
C      1  0.4735670000000  0.5333310000000  0.4520000000000 1.0
C      1  0.5460820000000  0.4807830000000  0.4509520000000 1.0
C      1  0.6176430000000  0.4753270000000  0.5154280000000 1.0
C      1  0.5913200000000  0.4659230000000  0.4762460000000 1.0
C      1  0.4478110000000  0.4628390000000  0.5888670000000 1.0
C      1  0.5562190000000  0.5101600000000  0.4461160000000 1.0
C      1  0.4983010000000  0.4975760000000  0.4380710000000 1.0
C      1  0.5101410000000  0.4351680000000  0.4794270000000 1.0
C      1  0.5605570000000  0.4988210000000  0.5208650000000 1.0
C      1  0.4754080000000  0.4018590000000  0.4362180000000 1.0
C      1  0.5851980000000  0.5114810000000  0.4394190000000 1.0
C      1  0.4268140000000  0.5631440000000  0.5135600000000 1.0
C      1  0.4832280000000  0.5423420000000  0.5226600000000 1.0
C      1  0.4440840000000  0.5210650000000  0.4831560000000 1.0
C      1  0.4683140000000  0.5364390000000  0.5943410000000 1.0
C      1  0.5094160000000  0.5256980000000  0.3910080000000 1.0
C      1  0.4544000000000  0.5140040000000  0.4395780000000 1.0
C      1  0.4631190000000  0.5077720000000  0.6032750000000 1.0
C      1  0.5389190000000  0.6096920000000  0.4997860000000 1.0
C      1  0.5204550000000  0.5266620000000  0.5961410000000 1.0
C      1  0.5416320000000  0.5260360000000  0.4268540000000 1.0
C      1  0.5086560000000  0.5135910000000  0.4898390000000 1.0
C      1  0.4554360000000  0.5441740000000  0.5655900000000 1.0
C      1  0.4641770000000  0.5720280000000  0.5567220000000 1.0
C      1  0.4574650000000  0.5724350000000  0.4394040000000 1.0
C      1  0.4937010000000  0.5777110000000  0.4930020000000 1.0
C      1  0.5317770000000  0.4545100000000  0.4089280000000 1.0
C      1  0.5064970000000  0.5884950000000  0.4362230000000 1.0
C      1  0.4691340000000  0.6028640000000  0.5203480000000 1.0
C      1  0.4794220000000  0.5898700000000  0.4482000000000 1.0
C      1  0.5136330000000  0.4996000000000  0.6062770000000 1.0
C      1  0.4432280000000  0.4921460000000  0.5872020000000 1.0
C      1  0.5451040000000  0.5690190000000  0.4562990000000 1.0
C      1  0.5029200000000  0.5736170000000  0.5840000000000 1.0
C      1  0.5211530000000  0.4845240000000  0.4027080000000 1.0
C      1  0.5473440000000  0.5240820000000  0.5317000000000 1.0
C      1  0.5119250000000  0.4695350000000  0.5071250000000 1.0
C      1  0.5274680000000  0.5601660000000  0.5145920000000 1.0
C      1  0.4537580000000  0.4568510000000  0.5328890000000 1.0
C      1  0.5355930000000  0.4541210000000  0.5993430000000 1.0
C      1  0.5910490000000  0.5522600000000  0.4674770000000 1.0
C      1  0.6091300000000  0.4846810000000  0.4905840000000 1.0
C      1  0.5465180000000  0.4447470000000  0.4966600000000 1.0
C      1  0.5691300000000  0.5698820000000  0.5276430000000 1.0
C      1  0.4482400000000  0.4544810000000  0.4033120000000 1.0
C      1  0.4004110000000  0.4444370000000  0.4755310000000 1.0
C      1  0.5170690000000  0.6058230000000  0.4799510000000 1.0
C      1  0.5401740000000  0.5550810000000  0.4301850000000 1.0
C      1  0.4367410000000  0.5630360000000  0.4601950000000 1.0
C      1  0.5146310000000  0.4785140000000  0.4557020000000 1.0
C      1  0.4968680000000  0.4979260000000  0.3846640000000 1.0
C      1  0.5498230000000  0.5234360000000  0.4727180000000 1.0
C      1  0.3938340000000  0.5302560000000  0.5188150000000 1.0
C      1  0.4971820000000  0.5466950000000  0.5953550000000 1.0
C      1  0.4534730000000  0.5196760000000  0.3867480000000 1.0
C      1  0.5077710000000  0.4177240000000  0.5805360000000 1.0
C      1  0.4858890000000  0.4898270000000  0.6114020000000 1.0
C      1  0.4443160000000  0.4738950000000  0.4845170000000 1.0
C      1  0.3854440000000  0.4902440000000  0.5354320000000 1.0
C      1  0.4514560000000  0.4683470000000  0.4284600000000 1.0
C      1  0.4714070000000  0.4788030000000  0.4923400000000 1.0
C      1  0.4981720000000  0.5973470000000  0.5310340000000 1.0
C      1  0.5284610000000  0.4394480000000  0.5755580000000 1.0
C      1  0.4115400000000  0.4820620000000  0.5478950000000 1.0
C      1  0.4973310000000  0.5435050000000  0.4147680000000 1.0
C      1  0.5348770000000  0.4068090000000  0.4774370000000 1.0
C      1  0.5718820000000  0.4281450000000  0.4890620000000 1.0
C      1  0.4702400000000  0.4927790000000  0.4245920000000 1.0
C      1  0.4442340000000  0.5388490000000  0.4048150000000 1.0
C      1  0.5158410000000  0.5663320000000  0.4187640000000 1.0
C      1  0.5816430000000  0.5093600000000  0.5432340000000 1.0
C      1  0.5369460000000  0.4079930000000  0.5417810000000 1.0
C      1  0.5119300000000  0.4570090000000  0.5562890000000 1.0
C      1  0.5122220000000  0.5300200000000  0.5575380000000 1.0
C      1  0.5558430000000  0.4968110000000  0.5859290000000 1.0
C      1  0.5972500000000  0.4889280000000  0.5574380000000 1.0
C      1  0.4682210000000  0.4820520000000  0.5367730000000 1.0
C      1  0.4790770000000  0.4059480000000  0.4915420000000 1.0
C      1  0.5190460000000  0.5334340000000  0.4717800000000 1.0
C      1  0.4933090000000  0.4016860000000  0.4141360000000 1.0
C      1  0.6003400000000  0.5242360000000  0.4612270000000 1.0
C      1  0.5134890000000  0.4401100000000  0.4279540000000 1.0
C      1  0.4626440000000  0.4017210000000  0.5408950000000 1.0
C      1  0.4238400000000  0.5307840000000  0.4235540000000 1.0
C      1  0.4480380000000  0.4276000000000  0.4063190000000 1.0
C      1  0.5058840000000  0.5540940000000  0.5381230000000 1.0
C      1  0.5844910000000  0.5842580000000  0.5069580000000 1.0
C      1  0.5277860000000  0.5939710000000  0.4556660000000 1.0
C      1  0.5286320000000  0.6026070000000  0.5265160000000 1.0
END
