TITL C-951344-124-502 -6.47731875772766e-07 125000 -220.899689488988 0 0 37 (C1) n - 1
REM
REM in /home/bkarasulu/work/CARBON/AIRSS/Generating-Clusters/EDIP-Nigel-Params/with-SteepDescent/Only-C1/SD-CG/HFTN-CG
REM
REM
REM
REM
REM
REM ./C.cell (11c1c37f851c82e70ff6c80c92926a4b)
REM
REM compiler GCC version 9.2.1 20190827 (Red Hat 9.2.1-1)
REM options -cpp -mtune=generic -march=x86-64 -g -O0 -fpre-include=/usr/include/finclude/math-vector-fortran.h
REM seed -1905770548 1231325677 437115934 1115460898 615578363 2074980731 1118409043 1485960673 783470664 1886603753 -1795005946 1149349603 -1462523797 1604392415 241190886 -1755675609 -1910244823 -2051700091 1961314934 -1582164565 -1471477634 147360605 -1705363456 -397049852 -723305142 -35377109 -1155680129 1480639989 1811722314 1136506560 516867210 2020185740 1259839271
REM
CELL 1.54180   50.00000   50.00000   50.00000   90.00000   90.00000   90.00000
LATT -1
SFAC C  
C      1  0.4702530000000  0.5182680000000  0.4656910000000 1.0
C      1  0.5548550000000  0.4897130000000  0.4741260000000 1.0
C      1  0.5291250000000  0.5264250000000  0.5121860000000 1.0
C      1  0.5038820000000  0.4841390000000  0.5307990000000 1.0
C      1  0.4533600000000  0.5435360000000  0.5050120000000 1.0
C      1  0.5067350000000  0.5456790000000  0.5043630000000 1.0
C      1  0.5031200000000  0.4932320000000  0.4992970000000 1.0
C      1  0.5335540000000  0.4832720000000  0.5423240000000 1.0
C      1  0.4771430000000  0.4928110000000  0.4814550000000 1.0
C      1  0.4980200000000  0.5182900000000  0.5562590000000 1.0
C      1  0.5123270000000  0.5206200000000  0.4518140000000 1.0
C      1  0.4784890000000  0.5201500000000  0.5340200000000 1.0
C      1  0.4346260000000  0.5278810000000  0.5200200000000 1.0
C      1  0.4539690000000  0.4874150000000  0.5010960000000 1.0
C      1  0.5485270000000  0.5314660000000  0.4868750000000 1.0
C      1  0.4886690000000  0.4468680000000  0.4776180000000 1.0
C      1  0.5286910000000  0.5411450000000  0.4663420000000 1.0
C      1  0.4849220000000  0.4762620000000  0.5538210000000 1.0
C      1  0.4816890000000  0.4698460000000  0.4620970000000 1.0
C      1  0.4862870000000  0.5278830000000  0.4449920000000 1.0
C      1  0.4544530000000  0.5374250000000  0.4779360000000 1.0
C      1  0.5442110000000  0.4711440000000  0.5179650000000 1.0
C      1  0.5198960000000  0.4944750000000  0.4415300000000 1.0
C      1  0.5445050000000  0.4845260000000  0.4490150000000 1.0
C      1  0.5115620000000  0.5597810000000  0.4801110000000 1.0
C      1  0.4986720000000  0.4762350000000  0.4406720000000 1.0
C      1  0.5684710000000  0.5138040000000  0.4768870000000 1.0
C      1  0.5335000000000  0.4454000000000  0.5136870000000 1.0
C      1  0.4862460000000  0.4527380000000  0.5055030000000 1.0
C      1  0.4893550000000  0.4966000000000  0.5730360000000 1.0
C      1  0.4521970000000  0.5053340000000  0.5273520000000 1.0
C      1  0.5262710000000  0.5138860000000  0.5425640000000 1.0
C      1  0.5084880000000  0.4345950000000  0.5086790000000 1.0
C      1  0.5350700000000  0.4914000000000  0.4972760000000 1.0
C      1  0.4599220000000  0.4629760000000  0.5161120000000 1.0
C      1  0.4804690000000  0.5432110000000  0.5174320000000 1.0
C      1  0.4584660000000  0.4715640000000  0.5440360000000 1.0
END
