TITL C-951346-9544-453 2.92114567743876e-06 125000 -978.622017520862 0 0 156 (C1) n - 1
REM
REM in /home/bkarasulu/work/CARBON/AIRSS/Generating-Clusters/EDIP-Nigel-Params/with-SteepDescent/Only-C1/SD-CG/HFTN-CG
REM
REM
REM
REM
REM
REM ./C.cell (11c1c37f851c82e70ff6c80c92926a4b)
REM
REM compiler GCC version 9.2.1 20190827 (Red Hat 9.2.1-1)
REM options -cpp -mtune=generic -march=x86-64 -g -O0 -fpre-include=/usr/include/finclude/math-vector-fortran.h
REM seed 477441688 1010862764 1532390426 645069087 1094885471 1989581120 418250315 727930888 -234736576 631623888 980804448 -668339276 -1895817245 1029446331 40090076 -372820950 1705098981 84774867 615234852 961544571 1252297466 -1291933368 714422575 1950612251 1979773355 -822771155 -1095200409 2009286115 1866424077 1985624711 -612157686 -1648907705 -1734595975
REM
CELL 1.54180   50.00000   50.00000   50.00000   90.00000   90.00000   90.00000
LATT -1
SFAC C  
C      1  0.5423810000000  0.4327150000000  0.4560650000000 1.0
C      1  0.4640980000000  0.6053080000000  0.4900590000000 1.0
C      1  0.4894370000000  0.4427830000000  0.5700800000000 1.0
C      1  0.4524100000000  0.5382420000000  0.4643410000000 1.0
C      1  0.4050270000000  0.5479950000000  0.5209660000000 1.0
C      1  0.5654530000000  0.4831420000000  0.4632010000000 1.0
C      1  0.5328730000000  0.4838140000000  0.4054270000000 1.0
C      1  0.4474900000000  0.5369350000000  0.4322800000000 1.0
C      1  0.5366210000000  0.5888980000000  0.5285790000000 1.0
C      1  0.4088910000000  0.4832460000000  0.4515420000000 1.0
C      1  0.5244900000000  0.5140850000000  0.5340680000000 1.0
C      1  0.4729930000000  0.5485030000000  0.3900220000000 1.0
C      1  0.5711840000000  0.5672330000000  0.5024140000000 1.0
C      1  0.5955220000000  0.5285880000000  0.4621180000000 1.0
C      1  0.4376330000000  0.5853860000000  0.5290750000000 1.0
C      1  0.6233930000000  0.5224740000000  0.4901580000000 1.0
C      1  0.4739910000000  0.5081580000000  0.5674040000000 1.0
C      1  0.3879270000000  0.4709180000000  0.4653090000000 1.0
C      1  0.4512610000000  0.4711280000000  0.5281610000000 1.0
C      1  0.4606840000000  0.5675860000000  0.5664950000000 1.0
C      1  0.4382860000000  0.4456690000000  0.4472110000000 1.0
C      1  0.5262270000000  0.5609440000000  0.4896790000000 1.0
C      1  0.4768090000000  0.3997090000000  0.4861990000000 1.0
C      1  0.3817570000000  0.4643260000000  0.4905130000000 1.0
C      1  0.5505950000000  0.5028790000000  0.4217540000000 1.0
C      1  0.4735840000000  0.4472180000000  0.4815090000000 1.0
C      1  0.5503030000000  0.4820900000000  0.5179010000000 1.0
C      1  0.5544920000000  0.5236310000000  0.5844370000000 1.0
C      1  0.4290550000000  0.4392580000000  0.5330820000000 1.0
C      1  0.5332530000000  0.5421530000000  0.5286990000000 1.0
C      1  0.5504280000000  0.4565120000000  0.5005260000000 1.0
C      1  0.4012440000000  0.4749150000000  0.5075310000000 1.0
C      1  0.3979710000000  0.5199320000000  0.5280410000000 1.0
C      1  0.4467560000000  0.4608370000000  0.5743530000000 1.0
C      1  0.5484220000000  0.4981050000000  0.5962700000000 1.0
C      1  0.4887380000000  0.4872460000000  0.5861470000000 1.0
C      1  0.5377220000000  0.5313090000000  0.4201760000000 1.0
C      1  0.5486380000000  0.5065840000000  0.4556480000000 1.0
C      1  0.6129320000000  0.5219960000000  0.5183780000000 1.0
C      1  0.5057380000000  0.4478410000000  0.4202490000000 1.0
C      1  0.4203850000000  0.5238230000000  0.4290030000000 1.0
C      1  0.4871160000000  0.6070090000000  0.5079320000000 1.0
C      1  0.5653470000000  0.5387680000000  0.5359910000000 1.0
C      1  0.5983040000000  0.5599780000000  0.5010880000000 1.0
C      1  0.4630000000000  0.4943790000000  0.4214830000000 1.0
C      1  0.4096330000000  0.5095140000000  0.5526910000000 1.0
C      1  0.4359530000000  0.4192990000000  0.5115970000000 1.0
C      1  0.5122100000000  0.5269220000000  0.6023310000000 1.0
C      1  0.4109840000000  0.4809430000000  0.5572860000000 1.0
C      1  0.4116490000000  0.5034340000000  0.5069740000000 1.0
C      1  0.4162040000000  0.5216110000000  0.4817070000000 1.0
C      1  0.4648650000000  0.5819580000000  0.4190050000000 1.0
C      1  0.4897640000000  0.5100670000000  0.4137460000000 1.0
C      1  0.4719290000000  0.5098860000000  0.4706750000000 1.0
C      1  0.5825410000000  0.5261300000000  0.5130110000000 1.0
C      1  0.4628270000000  0.4446630000000  0.4302130000000 1.0
C      1  0.5222710000000  0.3989800000000  0.5084140000000 1.0
C      1  0.5663130000000  0.4176240000000  0.4657480000000 1.0
C      1  0.5324750000000  0.5409080000000  0.5876350000000 1.0
C      1  0.4637560000000  0.4083940000000  0.5115530000000 1.0
C      1  0.4082310000000  0.5124410000000  0.4542420000000 1.0
C      1  0.4419860000000  0.5886270000000  0.5001510000000 1.0
C      1  0.5659670000000  0.4778860000000  0.5837240000000 1.0
C      1  0.4226590000000  0.4728100000000  0.5817470000000 1.0
C      1  0.4094920000000  0.5489520000000  0.4911270000000 1.0
C      1  0.4819700000000  0.4108060000000  0.5347240000000 1.0
C      1  0.5287930000000  0.4495400000000  0.5951000000000 1.0
C      1  0.4276410000000  0.5704950000000  0.4820370000000 1.0
C      1  0.5196910000000  0.5013000000000  0.4605800000000 1.0
C      1  0.5069050000000  0.4800940000000  0.4991410000000 1.0
C      1  0.4722800000000  0.5987310000000  0.4634630000000 1.0
C      1  0.4770410000000  0.4834160000000  0.5437870000000 1.0
C      1  0.4851060000000  0.4625900000000  0.4567880000000 1.0
C      1  0.5881470000000  0.4333910000000  0.4731090000000 1.0
C      1  0.5724840000000  0.5230690000000  0.5616550000000 1.0
C      1  0.4390210000000  0.4253010000000  0.4676230000000 1.0
C      1  0.4387760000000  0.5479060000000  0.5623980000000 1.0
C      1  0.5389430000000  0.5723860000000  0.4436590000000 1.0
C      1  0.4641990000000  0.4134970000000  0.4648840000000 1.0
C      1  0.5693040000000  0.4721250000000  0.4367800000000 1.0
C      1  0.4627420000000  0.5875760000000  0.5445920000000 1.0
C      1  0.5164130000000  0.4152000000000  0.4553910000000 1.0
C      1  0.4961510000000  0.4262470000000  0.4368910000000 1.0
C      1  0.5785990000000  0.4932640000000  0.5593590000000 1.0
C      1  0.4732840000000  0.5612980000000  0.4712550000000 1.0
C      1  0.5134080000000  0.4292150000000  0.5813520000000 1.0
C      1  0.5129240000000  0.4476730000000  0.5210310000000 1.0
C      1  0.5872590000000  0.4825850000000  0.4846650000000 1.0
C      1  0.5294680000000  0.4185170000000  0.5584160000000 1.0
C      1  0.5883190000000  0.4441980000000  0.5198550000000 1.0
C      1  0.5325310000000  0.4556570000000  0.4137980000000 1.0
C      1  0.5503820000000  0.4029870000000  0.5046020000000 1.0
C      1  0.5532000000000  0.5481140000000  0.4896790000000 1.0
C      1  0.4854390000000  0.5821900000000  0.5245030000000 1.0
C      1  0.4865520000000  0.5345700000000  0.5933100000000 1.0
C      1  0.5123510000000  0.4162000000000  0.5319420000000 1.0
C      1  0.5534190000000  0.4482360000000  0.4316590000000 1.0
C      1  0.4207000000000  0.4195230000000  0.4881740000000 1.0
C      1  0.4858220000000  0.5577680000000  0.5763890000000 1.0
C      1  0.5061210000000  0.5361390000000  0.4212340000000 1.0
C      1  0.5211380000000  0.4764600000000  0.5690650000000 1.0
C      1  0.4533590000000  0.5896810000000  0.4445120000000 1.0
C      1  0.5025050000000  0.5394670000000  0.5058940000000 1.0
C      1  0.4992710000000  0.5208430000000  0.4660670000000 1.0
C      1  0.4709160000000  0.4246420000000  0.5570870000000 1.0
C      1  0.4732340000000  0.4615190000000  0.5878030000000 1.0
C      1  0.4582910000000  0.5201960000000  0.5276190000000 1.0
C      1  0.6081740000000  0.5011040000000  0.4731050000000 1.0
C      1  0.5198030000000  0.4986100000000  0.6049770000000 1.0
C      1  0.4777600000000  0.5583520000000  0.5042380000000 1.0
C      1  0.4976150000000  0.5469080000000  0.4525720000000 1.0
C      1  0.5531330000000  0.5490110000000  0.4382320000000 1.0
C      1  0.4906590000000  0.4635050000000  0.4007930000000 1.0
C      1  0.5781560000000  0.4308430000000  0.5437040000000 1.0
C      1  0.5001930000000  0.4628740000000  0.5488680000000 1.0
C      1  0.4984990000000  0.4373310000000  0.4948880000000 1.0
C      1  0.4454930000000  0.4380690000000  0.5569040000000 1.0
C      1  0.5629740000000  0.5340670000000  0.4631580000000 1.0
C      1  0.5408200000000  0.4958140000000  0.5525510000000 1.0
C      1  0.4319150000000  0.5561050000000  0.5327180000000 1.0
C      1  0.4341210000000  0.5711880000000  0.4545240000000 1.0
C      1  0.5189080000000  0.5646410000000  0.4614930000000 1.0
C      1  0.5124510000000  0.4744500000000  0.4704430000000 1.0
C      1  0.5276100000000  0.4985410000000  0.5096980000000 1.0
C      1  0.5111900000000  0.6099460000000  0.4943910000000 1.0
C      1  0.4613380000000  0.4695850000000  0.4999220000000 1.0
C      1  0.5045030000000  0.4900630000000  0.3981580000000 1.0
C      1  0.5297090000000  0.5897490000000  0.5003180000000 1.0
C      1  0.5613390000000  0.3947020000000  0.4803040000000 1.0
C      1  0.4357670000000  0.4728710000000  0.4570690000000 1.0
C      1  0.5055940000000  0.4098940000000  0.4850780000000 1.0
C      1  0.5324160000000  0.5683910000000  0.5835200000000 1.0
C      1  0.5939110000000  0.4530880000000  0.4921460000000 1.0
C      1  0.4974080000000  0.5574260000000  0.4018180000000 1.0
C      1  0.6189270000000  0.4986910000000  0.5328720000000 1.0
C      1  0.4841190000000  0.5124050000000  0.5188560000000 1.0
C      1  0.4471330000000  0.5211650000000  0.5701320000000 1.0
C      1  0.5518630000000  0.4309400000000  0.5161120000000 1.0
C      1  0.5544670000000  0.4511270000000  0.5833730000000 1.0
C      1  0.4638030000000  0.4665030000000  0.4099450000000 1.0
C      1  0.4539660000000  0.5567600000000  0.4096090000000 1.0
C      1  0.4362640000000  0.5049730000000  0.4131580000000 1.0
C      1  0.5622830000000  0.5754770000000  0.5290330000000 1.0
C      1  0.5129320000000  0.5734520000000  0.5389470000000 1.0
C      1  0.5538870000000  0.4358130000000  0.5591510000000 1.0
C      1  0.5093100000000  0.5734570000000  0.5685520000000 1.0
C      1  0.4929050000000  0.5833880000000  0.4129910000000 1.0
C      1  0.5773830000000  0.4944970000000  0.5115870000000 1.0
C      1  0.5943700000000  0.4853730000000  0.5346260000000 1.0
C      1  0.4793860000000  0.4931380000000  0.4969220000000 1.0
C      1  0.6119450000000  0.5490830000000  0.4785990000000 1.0
C      1  0.5345550000000  0.4541980000000  0.4756500000000 1.0
C      1  0.4089030000000  0.4624030000000  0.5334200000000 1.0
C      1  0.4633570000000  0.4864780000000  0.4513040000000 1.0
C      1  0.4530980000000  0.5441320000000  0.5151260000000 1.0
C      1  0.4370200000000  0.4995110000000  0.5274310000000 1.0
END
