TITL C-951341-1326-307 -1.45214460268966e-07 125000 -744.880507964583 0 0 119 (C1) n - 1
REM
REM in /home/bkarasulu/work/CARBON/AIRSS/Generating-Clusters/EDIP-Nigel-Params/with-SteepDescent/Only-C1/SD-CG/HFTN-CG
REM
REM
REM
REM
REM
REM ./C.cell (11c1c37f851c82e70ff6c80c92926a4b)
REM
REM compiler GCC version 9.2.1 20190827 (Red Hat 9.2.1-1)
REM options -cpp -mtune=generic -march=x86-64 -g -O0 -fpre-include=/usr/include/finclude/math-vector-fortran.h
REM seed -1115684824 -1348670572 -1254427293 341346984 -1853247018 795130740 -564581032 1369037438 1377220262 -44636603 -493761497 -887975110 705730381 -535284740 -966291007 34067536 -1241932461 -1627221449 1905358503 -2086245612 2115096116 -1638229102 -899618161 -1303032808 1860116081 -2122720401 -153857555 1148938632 -1740217915 1592880439 925172012 -1879307883 832731594
REM
CELL 1.54180   50.00000   50.00000   50.00000   90.00000   90.00000   90.00000
LATT -1
SFAC C  
C      1  0.4220490000000  0.5201560000000  0.5525360000000 1.0
C      1  0.5251460000000  0.4982380000000  0.4148640000000 1.0
C      1  0.5079680000000  0.5740330000000  0.4572760000000 1.0
C      1  0.4177330000000  0.4633280000000  0.4761680000000 1.0
C      1  0.5522560000000  0.5451120000000  0.4460720000000 1.0
C      1  0.5550330000000  0.5511350000000  0.5586900000000 1.0
C      1  0.4626990000000  0.5349350000000  0.4235180000000 1.0
C      1  0.5785040000000  0.5090630000000  0.4690630000000 1.0
C      1  0.4787070000000  0.4119030000000  0.5112290000000 1.0
C      1  0.5329250000000  0.4752150000000  0.3990750000000 1.0
C      1  0.4566610000000  0.5683010000000  0.5664990000000 1.0
C      1  0.5298270000000  0.5158750000000  0.5964150000000 1.0
C      1  0.5283120000000  0.4239820000000  0.4553940000000 1.0
C      1  0.4782950000000  0.4312760000000  0.4264160000000 1.0
C      1  0.4207450000000  0.4922280000000  0.5474840000000 1.0
C      1  0.5237180000000  0.4955690000000  0.4971520000000 1.0
C      1  0.4772520000000  0.5687000000000  0.4614860000000 1.0
C      1  0.5714140000000  0.5379900000000  0.4690110000000 1.0
C      1  0.4431130000000  0.5127060000000  0.4247170000000 1.0
C      1  0.5604450000000  0.4417520000000  0.5413090000000 1.0
C      1  0.5375590000000  0.4238630000000  0.5031390000000 1.0
C      1  0.5352060000000  0.5256100000000  0.4055910000000 1.0
C      1  0.4890100000000  0.4177760000000  0.5380070000000 1.0
C      1  0.4917870000000  0.5473980000000  0.5913760000000 1.0
C      1  0.4444260000000  0.4779390000000  0.5580400000000 1.0
C      1  0.4813290000000  0.4453820000000  0.5470260000000 1.0
C      1  0.5867140000000  0.4822830000000  0.5364790000000 1.0
C      1  0.4939330000000  0.5123880000000  0.5161740000000 1.0
C      1  0.5334590000000  0.5623490000000  0.5729280000000 1.0
C      1  0.5028550000000  0.4087770000000  0.4942900000000 1.0
C      1  0.4518320000000  0.5736670000000  0.5280120000000 1.0
C      1  0.5751780000000  0.4991620000000  0.4970020000000 1.0
C      1  0.4437040000000  0.5808080000000  0.4971120000000 1.0
C      1  0.4250790000000  0.4654260000000  0.5042360000000 1.0
C      1  0.5216590000000  0.4649120000000  0.5343120000000 1.0
C      1  0.4960630000000  0.5012610000000  0.4106850000000 1.0
C      1  0.4141500000000  0.4976700000000  0.4596250000000 1.0
C      1  0.4803530000000  0.5821770000000  0.5320750000000 1.0
C      1  0.4371690000000  0.4618930000000  0.4328210000000 1.0
C      1  0.5054480000000  0.5606860000000  0.5703430000000 1.0
C      1  0.4822840000000  0.5086040000000  0.6166540000000 1.0
C      1  0.5719100000000  0.5476370000000  0.4993040000000 1.0
C      1  0.4330690000000  0.4482730000000  0.4573030000000 1.0
C      1  0.5236800000000  0.4675120000000  0.4585210000000 1.0
C      1  0.4958970000000  0.4559490000000  0.5732830000000 1.0
C      1  0.4360220000000  0.5023450000000  0.4797980000000 1.0
C      1  0.4834670000000  0.5782650000000  0.5602900000000 1.0
C      1  0.5061500000000  0.5297060000000  0.4602080000000 1.0
C      1  0.4933590000000  0.4724680000000  0.4582690000000 1.0
C      1  0.5251440000000  0.4501370000000  0.5761310000000 1.0
C      1  0.5017770000000  0.4476440000000  0.4988290000000 1.0
C      1  0.5273090000000  0.4646250000000  0.4903050000000 1.0
C      1  0.4647420000000  0.4798980000000  0.4916430000000 1.0
C      1  0.4995940000000  0.5624420000000  0.5220170000000 1.0
C      1  0.4565530000000  0.5587490000000  0.4404870000000 1.0
C      1  0.5499280000000  0.5570420000000  0.5302440000000 1.0
C      1  0.4274360000000  0.5589900000000  0.4845540000000 1.0
C      1  0.4802240000000  0.4545030000000  0.4791090000000 1.0
C      1  0.5364370000000  0.4939430000000  0.4478960000000 1.0
C      1  0.4322030000000  0.5478960000000  0.4556290000000 1.0
C      1  0.4786650000000  0.4968490000000  0.4700160000000 1.0
C      1  0.4473980000000  0.5270560000000  0.5416920000000 1.0
C      1  0.4520660000000  0.4521040000000  0.5448490000000 1.0
C      1  0.5826510000000  0.5229930000000  0.5131520000000 1.0
C      1  0.4233720000000  0.5135940000000  0.5033630000000 1.0
C      1  0.4652120000000  0.4966480000000  0.5733660000000 1.0
C      1  0.5595380000000  0.5303830000000  0.4212350000000 1.0
C      1  0.5016960000000  0.4176160000000  0.4662140000000 1.0
C      1  0.5326810000000  0.5806500000000  0.5282460000000 1.0
C      1  0.5000380000000  0.5256460000000  0.5441200000000 1.0
C      1  0.4812350000000  0.5395770000000  0.5062390000000 1.0
C      1  0.4814130000000  0.5408610000000  0.4748800000000 1.0
C      1  0.5179030000000  0.4166200000000  0.5353500000000 1.0
C      1  0.5731010000000  0.4641570000000  0.5556370000000 1.0
C      1  0.5210730000000  0.5891140000000  0.5039790000000 1.0
C      1  0.4548730000000  0.4260410000000  0.5006240000000 1.0
C      1  0.4517520000000  0.5439020000000  0.5180720000000 1.0
C      1  0.5133450000000  0.5451030000000  0.4139720000000 1.0
C      1  0.5905080000000  0.4742990000000  0.5058380000000 1.0
C      1  0.5282520000000  0.5138010000000  0.4720850000000 1.0
C      1  0.4158250000000  0.4894900000000  0.5184280000000 1.0
C      1  0.5344650000000  0.5431070000000  0.4909060000000 1.0
C      1  0.4505420000000  0.4838740000000  0.4210380000000 1.0
C      1  0.4884540000000  0.5289650000000  0.4111240000000 1.0
C      1  0.4650380000000  0.5870350000000  0.4801260000000 1.0
C      1  0.4778370000000  0.4791380000000  0.4124430000000 1.0
C      1  0.5529440000000  0.5051950000000  0.5822210000000 1.0
C      1  0.5345070000000  0.4406100000000  0.4329420000000 1.0
C      1  0.5554620000000  0.4476170000000  0.5117630000000 1.0
C      1  0.4210290000000  0.5205570000000  0.4424110000000 1.0
C      1  0.5311630000000  0.4403160000000  0.5483030000000 1.0
C      1  0.5201070000000  0.4532400000000  0.4116130000000 1.0
C      1  0.5800890000000  0.4471650000000  0.4968420000000 1.0
C      1  0.4407280000000  0.4452060000000  0.5181520000000 1.0
C      1  0.4590250000000  0.5208470000000  0.4645590000000 1.0
C      1  0.4158970000000  0.5411300000000  0.5035650000000 1.0
C      1  0.5756780000000  0.5071920000000  0.4229470000000 1.0
C      1  0.5632550000000  0.5229620000000  0.5611620000000 1.0
C      1  0.5495910000000  0.4767160000000  0.5700630000000 1.0
C      1  0.4940760000000  0.4622880000000  0.5249420000000 1.0
C      1  0.5135000000000  0.5045440000000  0.5629590000000 1.0
C      1  0.5320080000000  0.5340730000000  0.5205400000000 1.0
C      1  0.5334830000000  0.4890300000000  0.5455000000000 1.0
C      1  0.4526850000000  0.4284960000000  0.4693570000000 1.0
C      1  0.5668210000000  0.4943060000000  0.4463410000000 1.0
C      1  0.5809870000000  0.5115420000000  0.5403020000000 1.0
C      1  0.4698260000000  0.5232970000000  0.5590290000000 1.0
C      1  0.5496400000000  0.4228590000000  0.4752260000000 1.0
C      1  0.4907630000000  0.4529640000000  0.4136620000000 1.0
C      1  0.5737580000000  0.4377410000000  0.4708480000000 1.0
C      1  0.4596570000000  0.5091020000000  0.6000950000000 1.0
C      1  0.4924300000000  0.4852370000000  0.5739230000000 1.0
C      1  0.5206980000000  0.5694080000000  0.4839850000000 1.0
C      1  0.5430230000000  0.5051220000000  0.5191730000000 1.0
C      1  0.5018950000000  0.5226140000000  0.6015840000000 1.0
C      1  0.4644380000000  0.5430720000000  0.5820920000000 1.0
C      1  0.4782350000000  0.4871490000000  0.5173740000000 1.0
C      1  0.5203780000000  0.5499540000000  0.4433790000000 1.0
C      1  0.4763820000000  0.4202720000000  0.4520290000000 1.0
END
