TITL C-951334-9093-45 -2.22755281138205e-06 125000 -511.924476233965 0 0 82 (C1) n - 1
REM
REM in /home/bkarasulu/work/CARBON/AIRSS/Generating-Clusters/EDIP-Nigel-Params/with-SteepDescent/Only-C1/SD-CG/HFTN-CG
REM
REM
REM
REM
REM
REM ./C.cell (11c1c37f851c82e70ff6c80c92926a4b)
REM
REM compiler GCC version 9.2.1 20190827 (Red Hat 9.2.1-1)
REM options -cpp -mtune=generic -march=x86-64 -g -O0 -fpre-include=/usr/include/finclude/math-vector-fortran.h
REM seed 170891244 -1162020182 -817289353 669516166 1441520425 1895293653 1745890906 -372055029 1889069951 -1760360437 -1592817637 -66352719 -49224271 -382157559 722421716 -928040282 -235670329 -1007593758 1629498546 622827282 -481618862 -1770732537 1328519437 152904433 807856589 -2048478571 -1165292531 -2042692015 1863042475 372001636 -805726376 1948458513 -1487246282
REM
CELL 1.54180   50.00000   50.00000   50.00000   90.00000   90.00000   90.00000
LATT -1
SFAC C  
C      1  0.4432380000000  0.4898860000000  0.5603100000000 1.0
C      1  0.5398830000000  0.5717160000000  0.4788630000000 1.0
C      1  0.4627980000000  0.5076110000000  0.4957120000000 1.0
C      1  0.4828240000000  0.4304940000000  0.4625780000000 1.0
C      1  0.5207130000000  0.4307100000000  0.4562580000000 1.0
C      1  0.5449710000000  0.4788320000000  0.5711990000000 1.0
C      1  0.5216530000000  0.5223780000000  0.5822210000000 1.0
C      1  0.5523780000000  0.4436380000000  0.5346310000000 1.0
C      1  0.4772600000000  0.5741990000000  0.5550070000000 1.0
C      1  0.4993430000000  0.5138620000000  0.4340310000000 1.0
C      1  0.4939220000000  0.5724330000000  0.4703280000000 1.0
C      1  0.5233580000000  0.4489140000000  0.5335870000000 1.0
C      1  0.4896480000000  0.4931300000000  0.5631060000000 1.0
C      1  0.4278740000000  0.5377770000000  0.4803890000000 1.0
C      1  0.4611210000000  0.5310570000000  0.5620860000000 1.0
C      1  0.4235330000000  0.4859430000000  0.5188710000000 1.0
C      1  0.5353170000000  0.4541420000000  0.4402770000000 1.0
C      1  0.4597960000000  0.4326970000000  0.5058890000000 1.0
C      1  0.4588120000000  0.5217310000000  0.5248560000000 1.0
C      1  0.4999040000000  0.5306000000000  0.5101470000000 1.0
C      1  0.4325270000000  0.4684330000000  0.4583820000000 1.0
C      1  0.4927000000000  0.4442920000000  0.5705180000000 1.0
C      1  0.4880580000000  0.4176790000000  0.5422530000000 1.0
C      1  0.5598300000000  0.5143670000000  0.4727850000000 1.0
C      1  0.4359060000000  0.5110270000000  0.4800360000000 1.0
C      1  0.5735830000000  0.4815320000000  0.5307620000000 1.0
C      1  0.5197860000000  0.4873340000000  0.5242880000000 1.0
C      1  0.5433410000000  0.4690890000000  0.4655840000000 1.0
C      1  0.4549700000000  0.4650290000000  0.5485830000000 1.0
C      1  0.5089570000000  0.5643310000000  0.4452020000000 1.0
C      1  0.4541570000000  0.5523240000000  0.5176870000000 1.0
C      1  0.4473130000000  0.4648550000000  0.5194390000000 1.0
C      1  0.5096760000000  0.4417190000000  0.5066230000000 1.0
C      1  0.5382940000000  0.5254100000000  0.4552890000000 1.0
C      1  0.5109170000000  0.4305600000000  0.5540460000000 1.0
C      1  0.4860810000000  0.4242120000000  0.5144670000000 1.0
C      1  0.5475890000000  0.5088360000000  0.5732590000000 1.0
C      1  0.5502080000000  0.5468700000000  0.5381580000000 1.0
C      1  0.4682810000000  0.4773860000000  0.4986930000000 1.0
C      1  0.5287900000000  0.4297760000000  0.4855670000000 1.0
C      1  0.5003100000000  0.5113610000000  0.5346630000000 1.0
C      1  0.5043450000000  0.5591970000000  0.5176290000000 1.0
C      1  0.5079730000000  0.5359250000000  0.5584460000000 1.0
C      1  0.4644970000000  0.5053380000000  0.5729200000000 1.0
C      1  0.5220740000000  0.5016690000000  0.4183610000000 1.0
C      1  0.4942050000000  0.4581900000000  0.4551530000000 1.0
C      1  0.4822610000000  0.5490700000000  0.5662220000000 1.0
C      1  0.5676510000000  0.4933050000000  0.4327980000000 1.0
C      1  0.5363090000000  0.5561050000000  0.4535280000000 1.0
C      1  0.5179940000000  0.4708650000000  0.4202050000000 1.0
C      1  0.4160290000000  0.5016550000000  0.4966700000000 1.0
C      1  0.5232730000000  0.5576510000000  0.5431670000000 1.0
C      1  0.5469650000000  0.5126190000000  0.4290330000000 1.0
C      1  0.5638650000000  0.4645410000000  0.5533690000000 1.0
C      1  0.4766550000000  0.4952550000000  0.4298340000000 1.0
C      1  0.5512990000000  0.4993990000000  0.5235250000000 1.0
C      1  0.5587440000000  0.5179640000000  0.5015140000000 1.0
C      1  0.4483740000000  0.5050850000000  0.4318970000000 1.0
C      1  0.4340500000000  0.5062540000000  0.5372650000000 1.0
C      1  0.4469790000000  0.5328300000000  0.4321440000000 1.0
C      1  0.5133000000000  0.5750990000000  0.4923280000000 1.0
C      1  0.5120110000000  0.4939540000000  0.5835170000000 1.0
C      1  0.4880740000000  0.4678160000000  0.4273500000000 1.0
C      1  0.5131590000000  0.4792740000000  0.4721780000000 1.0
C      1  0.5563250000000  0.5451340000000  0.5101010000000 1.0
C      1  0.4833030000000  0.4656290000000  0.5544660000000 1.0
C      1  0.4771910000000  0.5696790000000  0.5271120000000 1.0
C      1  0.4585470000000  0.4349980000000  0.4771010000000 1.0
C      1  0.5654080000000  0.4510640000000  0.5096530000000 1.0
C      1  0.4929020000000  0.5437730000000  0.4298130000000 1.0
C      1  0.5658830000000  0.4883900000000  0.4607410000000 1.0
C      1  0.4484300000000  0.5557340000000  0.4885850000000 1.0
C      1  0.5629590000000  0.5676110000000  0.4948320000000 1.0
C      1  0.5029030000000  0.4719350000000  0.5008210000000 1.0
C      1  0.4733760000000  0.5505640000000  0.4721510000000 1.0
C      1  0.5518190000000  0.4471010000000  0.4844420000000 1.0
C      1  0.4670690000000  0.5488320000000  0.4425180000000 1.0
C      1  0.4552830000000  0.4632460000000  0.4740000000000 1.0
C      1  0.5084480000000  0.5103650000000  0.4638290000000 1.0
C      1  0.4324020000000  0.4957090000000  0.4543640000000 1.0
C      1  0.4867520000000  0.5244100000000  0.4839840000000 1.0
C      1  0.5512940000000  0.5185950000000  0.5458030000000 1.0
END
