TITL C-950525-1983-632 4.83020381075619e-08 125000 -1194.93980086958 0 0 191 (C1) n - 1
REM
REM in /home/bkarasulu/work/CARBON/AIRSS/Generating-Clusters/EDIP-Nigel-Params/with-SteepDescent/Only-C1/SD-CG/HFTN-CG
REM
REM
REM
REM
REM
REM ./C.cell (11c1c37f851c82e70ff6c80c92926a4b)
REM
REM compiler GCC version 9.2.1 20190827 (Red Hat 9.2.1-1)
REM options -cpp -mtune=generic -march=x86-64 -g -O0 -fpre-include=/usr/include/finclude/math-vector-fortran.h
REM seed 1968559126 -706595976 1260977498 -624100305 -23436215 1645617152 -1911305151 -1049873557 1575283288 -675080470 -2063732595 286430755 372921458 -715920668 606704136 -1868125626 -41196195 -403413792 -1752167971 -1163162687 1134297011 1390264237 -658802885 53484297 648691697 -431467525 -1962044920 1592664019 495841091 -1911723926 2136551605 161694895 1641739400
REM
CELL 1.54180   50.00000   50.00000   50.00000   90.00000   90.00000   90.00000
LATT -1
SFAC C  
C      1  0.5726170000000  0.5701140000000  0.5473140000000 1.0
C      1  0.5254970000000  0.4701650000000  0.5915240000000 1.0
C      1  0.4808210000000  0.5833340000000  0.4661450000000 1.0
C      1  0.4460060000000  0.4739930000000  0.5463760000000 1.0
C      1  0.4025580000000  0.4668740000000  0.5680030000000 1.0
C      1  0.4983340000000  0.4423840000000  0.4050390000000 1.0
C      1  0.4813860000000  0.4360390000000  0.5335200000000 1.0
C      1  0.5796770000000  0.4970950000000  0.4960840000000 1.0
C      1  0.6069190000000  0.5568550000000  0.4546160000000 1.0
C      1  0.5863240000000  0.5829180000000  0.5237840000000 1.0
C      1  0.6085690000000  0.5273930000000  0.4643260000000 1.0
C      1  0.5467800000000  0.5656990000000  0.5021890000000 1.0
C      1  0.4353530000000  0.4879680000000  0.4150020000000 1.0
C      1  0.4433440000000  0.5598290000000  0.4078760000000 1.0
C      1  0.4667810000000  0.3927480000000  0.4836150000000 1.0
C      1  0.5437520000000  0.5320760000000  0.5406670000000 1.0
C      1  0.5257460000000  0.4734000000000  0.4439840000000 1.0
C      1  0.4137940000000  0.5453760000000  0.4522000000000 1.0
C      1  0.5098430000000  0.5129670000000  0.6126910000000 1.0
C      1  0.4682690000000  0.6085300000000  0.4774750000000 1.0
C      1  0.5801520000000  0.4720900000000  0.5678790000000 1.0
C      1  0.5560060000000  0.5155370000000  0.5872100000000 1.0
C      1  0.4111270000000  0.4465550000000  0.5466720000000 1.0
C      1  0.4723270000000  0.5444750000000  0.5939840000000 1.0
C      1  0.4761580000000  0.4823320000000  0.4451940000000 1.0
C      1  0.4597640000000  0.4994460000000  0.6141700000000 1.0
C      1  0.4645170000000  0.4063700000000  0.4363490000000 1.0
C      1  0.5050730000000  0.5508610000000  0.5175780000000 1.0
C      1  0.4005530000000  0.4499910000000  0.5194140000000 1.0
C      1  0.4581710000000  0.5673220000000  0.5801900000000 1.0
C      1  0.4984680000000  0.4419930000000  0.5072460000000 1.0
C      1  0.5079000000000  0.5877820000000  0.5302110000000 1.0
C      1  0.3977280000000  0.5239150000000  0.4634250000000 1.0
C      1  0.5418440000000  0.4269650000000  0.5586160000000 1.0
C      1  0.4840870000000  0.4975780000000  0.3982030000000 1.0
C      1  0.4265190000000  0.5190610000000  0.5932530000000 1.0
C      1  0.4945620000000  0.5724440000000  0.4128030000000 1.0
C      1  0.5927430000000  0.5206310000000  0.5559480000000 1.0
C      1  0.4784220000000  0.3969790000000  0.5315420000000 1.0
C      1  0.4813280000000  0.5645330000000  0.4909470000000 1.0
C      1  0.5245060000000  0.5741120000000  0.4856450000000 1.0
C      1  0.5005640000000  0.4138910000000  0.5704100000000 1.0
C      1  0.5093290000000  0.4168900000000  0.4141240000000 1.0
C      1  0.4579240000000  0.5146290000000  0.4861490000000 1.0
C      1  0.5497940000000  0.4880770000000  0.4569070000000 1.0
C      1  0.6268460000000  0.4703810000000  0.5097300000000 1.0
C      1  0.5839740000000  0.4727930000000  0.4667030000000 1.0
C      1  0.4645820000000  0.5834150000000  0.5321660000000 1.0
C      1  0.4525790000000  0.4485640000000  0.5316340000000 1.0
C      1  0.4061870000000  0.5279940000000  0.4084940000000 1.0
C      1  0.4724160000000  0.4024450000000  0.5606780000000 1.0
C      1  0.5189480000000  0.6027690000000  0.4855830000000 1.0
C      1  0.4704250000000  0.4504340000000  0.4117130000000 1.0
C      1  0.4148740000000  0.4792050000000  0.4380010000000 1.0
C      1  0.5654550000000  0.5896140000000  0.5033760000000 1.0
C      1  0.5404320000000  0.5101830000000  0.5241080000000 1.0
C      1  0.6303150000000  0.4858530000000  0.4865450000000 1.0
C      1  0.5069170000000  0.3858050000000  0.4531300000000 1.0
C      1  0.4002530000000  0.4935180000000  0.5552410000000 1.0
C      1  0.4153980000000  0.4686910000000  0.5932750000000 1.0
C      1  0.5207580000000  0.4648090000000  0.5114520000000 1.0
C      1  0.4703950000000  0.4808190000000  0.5618210000000 1.0
C      1  0.4799480000000  0.5260280000000  0.4014320000000 1.0
C      1  0.5125870000000  0.4903640000000  0.3951990000000 1.0
C      1  0.4091990000000  0.5607210000000  0.5180100000000 1.0
C      1  0.4523300000000  0.5333270000000  0.3996310000000 1.0
C      1  0.5619210000000  0.5414730000000  0.4904480000000 1.0
C      1  0.5357250000000  0.4983140000000  0.6042950000000 1.0
C      1  0.5417230000000  0.4646260000000  0.4189170000000 1.0
C      1  0.4548830000000  0.4967120000000  0.4611720000000 1.0
C      1  0.5062480000000  0.5285340000000  0.4920510000000 1.0
C      1  0.5983250000000  0.4294640000000  0.4874910000000 1.0
C      1  0.5808500000000  0.4781550000000  0.5189610000000 1.0
C      1  0.5610410000000  0.4362120000000  0.4551750000000 1.0
C      1  0.4412990000000  0.6091940000000  0.4705780000000 1.0
C      1  0.4224860000000  0.5296970000000  0.5656790000000 1.0
C      1  0.4122790000000  0.4346110000000  0.4723660000000 1.0
C      1  0.5624930000000  0.5455350000000  0.5890060000000 1.0
C      1  0.4948310000000  0.3850180000000  0.4800330000000 1.0
C      1  0.4806600000000  0.4583030000000  0.5769160000000 1.0
C      1  0.6147030000000  0.5071820000000  0.5388600000000 1.0
C      1  0.5163550000000  0.3901110000000  0.4998940000000 1.0
C      1  0.4501250000000  0.4201760000000  0.5613020000000 1.0
C      1  0.4663050000000  0.5780880000000  0.4193590000000 1.0
C      1  0.3939610000000  0.5355340000000  0.5180150000000 1.0
C      1  0.4520380000000  0.5286050000000  0.6085190000000 1.0
C      1  0.4304170000000  0.5141720000000  0.4029500000000 1.0
C      1  0.6023400000000  0.5194080000000  0.4938960000000 1.0
C      1  0.5816130000000  0.4999800000000  0.4283740000000 1.0
C      1  0.4766540000000  0.4510280000000  0.4882340000000 1.0
C      1  0.5485880000000  0.4560000000000  0.4857090000000 1.0
C      1  0.4880370000000  0.5045600000000  0.5683860000000 1.0
C      1  0.5176730000000  0.4959320000000  0.5640330000000 1.0
C      1  0.6118230000000  0.4830080000000  0.4631000000000 1.0
C      1  0.5251020000000  0.4347550000000  0.4805770000000 1.0
C      1  0.6256750000000  0.5142690000000  0.5114560000000 1.0
C      1  0.5068720000000  0.5856430000000  0.4465190000000 1.0
C      1  0.5367820000000  0.4982840000000  0.4805020000000 1.0
C      1  0.4339150000000  0.5276000000000  0.5002710000000 1.0
C      1  0.4570430000000  0.3993180000000  0.5103410000000 1.0
C      1  0.4760370000000  0.5395970000000  0.4502590000000 1.0
C      1  0.5091460000000  0.5700880000000  0.5705930000000 1.0
C      1  0.5668540000000  0.5395690000000  0.4587390000000 1.0
C      1  0.4654910000000  0.4795800000000  0.4156890000000 1.0
C      1  0.4948120000000  0.4408080000000  0.5594130000000 1.0
C      1  0.3857480000000  0.4904750000000  0.4948900000000 1.0
C      1  0.4210400000000  0.5657080000000  0.4707320000000 1.0
C      1  0.5348710000000  0.3908400000000  0.4564420000000 1.0
C      1  0.4552580000000  0.4337360000000  0.4312040000000 1.0
C      1  0.4573850000000  0.5698480000000  0.5069710000000 1.0
C      1  0.5233610000000  0.5904980000000  0.5557790000000 1.0
C      1  0.4310240000000  0.5574400000000  0.4982890000000 1.0
C      1  0.4528510000000  0.3950610000000  0.4595230000000 1.0
C      1  0.4853950000000  0.5589760000000  0.5542990000000 1.0
C      1  0.4161300000000  0.5691590000000  0.5461910000000 1.0
C      1  0.4991270000000  0.5026470000000  0.5038980000000 1.0
C      1  0.5586060000000  0.4906190000000  0.4134400000000 1.0
C      1  0.4934260000000  0.4032590000000  0.4342970000000 1.0
C      1  0.5075050000000  0.4026130000000  0.5246320000000 1.0
C      1  0.5017910000000  0.5460610000000  0.4020170000000 1.0
C      1  0.5342810000000  0.5581200000000  0.5285800000000 1.0
C      1  0.5671140000000  0.4500660000000  0.5117890000000 1.0
C      1  0.5020510000000  0.5399270000000  0.6025990000000 1.0
C      1  0.5610490000000  0.5777000000000  0.4527600000000 1.0
C      1  0.4216450000000  0.4914410000000  0.5345640000000 1.0
C      1  0.5293480000000  0.5664010000000  0.4581200000000 1.0
C      1  0.5275630000000  0.5348340000000  0.4120530000000 1.0
C      1  0.4833790000000  0.5282830000000  0.5481470000000 1.0
C      1  0.4084070000000  0.4765580000000  0.5095370000000 1.0
C      1  0.4308050000000  0.4701020000000  0.4911640000000 1.0
C      1  0.4704730000000  0.4977230000000  0.5075650000000 1.0
C      1  0.4335280000000  0.5196640000000  0.5302030000000 1.0
C      1  0.4618080000000  0.5693280000000  0.4473690000000 1.0
C      1  0.5354760000000  0.5078420000000  0.4036450000000 1.0
C      1  0.5815510000000  0.5597000000000  0.4381820000000 1.0
C      1  0.5339800000000  0.4388830000000  0.5859910000000 1.0
C      1  0.5222150000000  0.4047150000000  0.5506760000000 1.0
C      1  0.4369710000000  0.5848170000000  0.4569600000000 1.0
C      1  0.5886040000000  0.4298190000000  0.5135750000000 1.0
C      1  0.6048490000000  0.4587720000000  0.5534160000000 1.0
C      1  0.5860200000000  0.4435040000000  0.4663020000000 1.0
C      1  0.5142350000000  0.4837210000000  0.4905250000000 1.0
C      1  0.4745040000000  0.6105050000000  0.5058090000000 1.0
C      1  0.5126760000000  0.4479150000000  0.4560460000000 1.0
C      1  0.5879910000000  0.5414790000000  0.5053340000000 1.0
C      1  0.5195920000000  0.4620900000000  0.3982930000000 1.0
C      1  0.3948340000000  0.4536170000000  0.4593500000000 1.0
C      1  0.6084020000000  0.4781850000000  0.5308480000000 1.0
C      1  0.4261060000000  0.4201620000000  0.5460810000000 1.0
C      1  0.5541030000000  0.4380960000000  0.4269040000000 1.0
C      1  0.5246470000000  0.5526210000000  0.5882940000000 1.0
C      1  0.6052650000000  0.5049690000000  0.4445900000000 1.0
C      1  0.4347670000000  0.4748560000000  0.4617150000000 1.0
C      1  0.5510610000000  0.5858810000000  0.5563180000000 1.0
C      1  0.3913930000000  0.5191770000000  0.4924210000000 1.0
C      1  0.4829410000000  0.4539810000000  0.4587640000000 1.0
C      1  0.5536170000000  0.5121350000000  0.4985740000000 1.0
C      1  0.5477880000000  0.5201990000000  0.4441970000000 1.0
C      1  0.5029470000000  0.6089430000000  0.5101920000000 1.0
C      1  0.4624050000000  0.5127170000000  0.5323340000000 1.0
C      1  0.3818360000000  0.4792360000000  0.4668680000000 1.0
C      1  0.4339340000000  0.4898810000000  0.5974000000000 1.0
C      1  0.6017520000000  0.4340680000000  0.5386870000000 1.0
C      1  0.4314070000000  0.4129020000000  0.5174300000000 1.0
C      1  0.6036540000000  0.5776610000000  0.4776860000000 1.0
C      1  0.5809780000000  0.5015810000000  0.5752070000000 1.0
C      1  0.5336800000000  0.5219460000000  0.5665320000000 1.0
C      1  0.4012840000000  0.5504860000000  0.5639820000000 1.0
C      1  0.5022110000000  0.4955260000000  0.4430940000000 1.0
C      1  0.4134150000000  0.4303930000000  0.5014140000000 1.0
C      1  0.4574030000000  0.4670910000000  0.5041710000000 1.0
C      1  0.5374500000000  0.4175490000000  0.4170770000000 1.0
C      1  0.5768970000000  0.5911940000000  0.4756000000000 1.0
C      1  0.4872700000000  0.4968140000000  0.6018900000000 1.0
C      1  0.5307090000000  0.4855920000000  0.5375050000000 1.0
C      1  0.5821440000000  0.5484500000000  0.5659410000000 1.0
C      1  0.6039600000000  0.5661490000000  0.5062350000000 1.0
C      1  0.4785720000000  0.5361710000000  0.4790400000000 1.0
C      1  0.5143100000000  0.4201410000000  0.5963290000000 1.0
C      1  0.4965370000000  0.4686610000000  0.5993860000000 1.0
C      1  0.5561480000000  0.4722410000000  0.5482320000000 1.0
C      1  0.5503390000000  0.4454820000000  0.5376130000000 1.0
C      1  0.4450150000000  0.5754370000000  0.5541940000000 1.0
C      1  0.3881850000000  0.5279680000000  0.5465590000000 1.0
C      1  0.4453590000000  0.4454200000000  0.4574300000000 1.0
C      1  0.5137120000000  0.6121420000000  0.4585020000000 1.0
C      1  0.5232420000000  0.5347340000000  0.4591090000000 1.0
C      1  0.3923730000000  0.4998650000000  0.4473330000000 1.0
C      1  0.5347290000000  0.4049060000000  0.4816150000000 1.0
C      1  0.5017690000000  0.5260410000000  0.4400070000000 1.0
C      1  0.4159330000000  0.5507900000000  0.4230520000000 1.0
END
