TITL C-950533-5798-192 1.52573294944716e-05 125000 -241.123960844916 0 0 41 (C1) n - 1
REM
REM in /home/bkarasulu/work/CARBON/AIRSS/Generating-Clusters/EDIP-Nigel-Params/with-SteepDescent/Only-C1/SD-CG/HFTN-CG
REM
REM
REM
REM
REM
REM ./C.cell (11c1c37f851c82e70ff6c80c92926a4b)
REM
REM compiler GCC version 9.2.1 20190827 (Red Hat 9.2.1-1)
REM options -cpp -mtune=generic -march=x86-64 -g -O0 -fpre-include=/usr/include/finclude/math-vector-fortran.h
REM seed -853820175 -1756573079 1179132874 -2143265960 1713751389 -968301626 -2144428955 -666154422 932411456 -1230403002 -2040993543 27282423 -1886158052 -35490525 -2099422047 -1782598019 -1321574771 1491721570 -2016326130 1908070036 308116107 -1326606376 1130408360 633216301 1847105545 1001317998 -585869051 1403857958 195511337 1522637655 479544910 -1691625097 181000086
REM
CELL 1.54180   50.00000   50.00000   50.00000   90.00000   90.00000   90.00000
LATT -1
SFAC C  
C      1  0.5231100000000  0.4552310000000  0.5018870000000 1.0
C      1  0.4799740000000  0.5582180000000  0.5034570000000 1.0
C      1  0.5484620000000  0.4738040000000  0.4566100000000 1.0
C      1  0.5437610000000  0.5182780000000  0.4836320000000 1.0
C      1  0.4572190000000  0.4499700000000  0.4624030000000 1.0
C      1  0.4782430000000  0.4844920000000  0.4398670000000 1.0
C      1  0.5261270000000  0.5159910000000  0.4615270000000 1.0
C      1  0.5516850000000  0.4480680000000  0.4644500000000 1.0
C      1  0.4685990000000  0.5390100000000  0.5215380000000 1.0
C      1  0.4858820000000  0.4738910000000  0.5471920000000 1.0
C      1  0.5066690000000  0.5193590000000  0.5440990000000 1.0
C      1  0.4552550000000  0.4762360000000  0.4533220000000 1.0
C      1  0.4459300000000  0.4991640000000  0.5340990000000 1.0
C      1  0.5040630000000  0.4459130000000  0.4575920000000 1.0
C      1  0.5122780000000  0.5692570000000  0.5389280000000 1.0
C      1  0.5481300000000  0.4674520000000  0.5363200000000 1.0
C      1  0.4725990000000  0.5619180000000  0.4469090000000 1.0
C      1  0.4792010000000  0.4342470000000  0.4640190000000 1.0
C      1  0.5269680000000  0.4897870000000  0.4482860000000 1.0
C      1  0.4488680000000  0.5192110000000  0.5152200000000 1.0
C      1  0.5206810000000  0.4430440000000  0.5286080000000 1.0
C      1  0.4995030000000  0.4494790000000  0.5456080000000 1.0
C      1  0.5031460000000  0.5483450000000  0.5552560000000 1.0
C      1  0.4971880000000  0.5719730000000  0.4576330000000 1.0
C      1  0.4997440000000  0.4956720000000  0.5613970000000 1.0
C      1  0.5240560000000  0.4873650000000  0.5732040000000 1.0
C      1  0.4784530000000  0.5550750000000  0.4746250000000 1.0
C      1  0.4429080000000  0.5128500000000  0.4890670000000 1.0
C      1  0.5361840000000  0.5024970000000  0.5065990000000 1.0
C      1  0.5007940000000  0.5728570000000  0.5146990000000 1.0
C      1  0.4577590000000  0.4750180000000  0.5407290000000 1.0
C      1  0.5446860000000  0.4742730000000  0.5079790000000 1.0
C      1  0.4466590000000  0.4529450000000  0.5312960000000 1.0
C      1  0.5429690000000  0.4911800000000  0.5524640000000 1.0
C      1  0.4427750000000  0.4950060000000  0.4692500000000 1.0
C      1  0.5269430000000  0.4402580000000  0.4763570000000 1.0
C      1  0.5351520000000  0.5135190000000  0.5340080000000 1.0
C      1  0.5023780000000  0.4743420000000  0.4497990000000 1.0
C      1  0.5220260000000  0.5624240000000  0.4493010000000 1.0
C      1  0.5375100000000  0.5399830000000  0.4518120000000 1.0
C      1  0.4754620000000  0.5423950000000  0.5489530000000 1.0
END
