TITL C-950522-5749-554 -1.81025351748195e-06 125000 -1022.85517170465 0 0 165 (C1) n - 1
REM
REM in /home/bkarasulu/work/CARBON/AIRSS/Generating-Clusters/EDIP-Nigel-Params/with-SteepDescent/Only-C1/SD-CG/HFTN-CG
REM
REM
REM
REM
REM
REM ./C.cell (11c1c37f851c82e70ff6c80c92926a4b)
REM
REM compiler GCC version 9.2.1 20190827 (Red Hat 9.2.1-1)
REM options -cpp -mtune=generic -march=x86-64 -g -O0 -fpre-include=/usr/include/finclude/math-vector-fortran.h
REM seed 2091337543 1893069568 -1329737025 248674874 -668715248 1348684483 -287781441 1312061608 -932649006 1655045918 -1154603234 2099781345 135447189 129313687 -1382169654 1996705373 -1059245209 -228564755 -452206298 1149707818 416556970 -423381903 1682371955 -1018257433 512074561 1530112622 1916967039 -1531622883 1737055491 395696210 1153171822 202777757 -1289257284
REM
CELL 1.54180   50.00000   50.00000   50.00000   90.00000   90.00000   90.00000
LATT -1
SFAC C  
C      1  0.4587570000000  0.4601950000000  0.5218840000000 1.0
C      1  0.4779350000000  0.5243810000000  0.5482500000000 1.0
C      1  0.4756670000000  0.4003870000000  0.4985660000000 1.0
C      1  0.5102360000000  0.5582900000000  0.4049750000000 1.0
C      1  0.4175530000000  0.4719300000000  0.4558070000000 1.0
C      1  0.5146290000000  0.4631570000000  0.5157430000000 1.0
C      1  0.4489990000000  0.4844230000000  0.5398580000000 1.0
C      1  0.5804910000000  0.5668760000000  0.4932710000000 1.0
C      1  0.3848490000000  0.5193840000000  0.4924900000000 1.0
C      1  0.5291860000000  0.5705470000000  0.4224680000000 1.0
C      1  0.5228370000000  0.4323870000000  0.5498500000000 1.0
C      1  0.5587600000000  0.4311670000000  0.4705350000000 1.0
C      1  0.4369030000000  0.5573230000000  0.4402780000000 1.0
C      1  0.5046000000000  0.4834260000000  0.5536880000000 1.0
C      1  0.5490800000000  0.4686440000000  0.4760710000000 1.0
C      1  0.5240530000000  0.5007210000000  0.5384230000000 1.0
C      1  0.5772810000000  0.5237610000000  0.6001540000000 1.0
C      1  0.4300670000000  0.5058190000000  0.5768840000000 1.0
C      1  0.4661210000000  0.5748320000000  0.5481060000000 1.0
C      1  0.5559870000000  0.4826130000000  0.4505260000000 1.0
C      1  0.5668660000000  0.5256660000000  0.5355280000000 1.0
C      1  0.4081070000000  0.5160370000000  0.4482920000000 1.0
C      1  0.4295730000000  0.5606970000000  0.5274900000000 1.0
C      1  0.4141610000000  0.4415890000000  0.5030230000000 1.0
C      1  0.5800800000000  0.4693510000000  0.4407620000000 1.0
C      1  0.4147960000000  0.4963830000000  0.5155040000000 1.0
C      1  0.5018530000000  0.4031750000000  0.5155280000000 1.0
C      1  0.6008630000000  0.4955010000000  0.5470490000000 1.0
C      1  0.4713220000000  0.4381030000000  0.5786380000000 1.0
C      1  0.5040350000000  0.5611530000000  0.5722830000000 1.0
C      1  0.6080180000000  0.4909370000000  0.4974520000000 1.0
C      1  0.4579570000000  0.5154380000000  0.5024140000000 1.0
C      1  0.5682550000000  0.4361600000000  0.5265260000000 1.0
C      1  0.4717340000000  0.6040190000000  0.5070830000000 1.0
C      1  0.4905870000000  0.5615310000000  0.4488830000000 1.0
C      1  0.4111030000000  0.5453010000000  0.4476840000000 1.0
C      1  0.4939210000000  0.5055480000000  0.6152220000000 1.0
C      1  0.5108010000000  0.5945600000000  0.4777480000000 1.0
C      1  0.4822620000000  0.4370890000000  0.4890490000000 1.0
C      1  0.5441710000000  0.4184660000000  0.5654580000000 1.0
C      1  0.4030930000000  0.4458090000000  0.4607330000000 1.0
C      1  0.6134410000000  0.4810260000000  0.5249230000000 1.0
C      1  0.4431450000000  0.5170530000000  0.4103870000000 1.0
C      1  0.4880450000000  0.5028810000000  0.5669160000000 1.0
C      1  0.5151960000000  0.5388990000000  0.4589830000000 1.0
C      1  0.5177880000000  0.4622810000000  0.4126630000000 1.0
C      1  0.4839340000000  0.4836270000000  0.4866610000000 1.0
C      1  0.4701310000000  0.5452990000000  0.4665080000000 1.0
C      1  0.5517020000000  0.4111430000000  0.4922340000000 1.0
C      1  0.4262490000000  0.5909940000000  0.5252460000000 1.0
C      1  0.4300170000000  0.4423910000000  0.5527580000000 1.0
C      1  0.4859570000000  0.4611320000000  0.5061200000000 1.0
C      1  0.5847210000000  0.4979520000000  0.5995340000000 1.0
C      1  0.5582350000000  0.5546490000000  0.5422160000000 1.0
C      1  0.4641020000000  0.5993360000000  0.4635660000000 1.0
C      1  0.5100770000000  0.4313160000000  0.4780700000000 1.0
C      1  0.5655530000000  0.5165000000000  0.5055700000000 1.0
C      1  0.4229990000000  0.5773400000000  0.4809710000000 1.0
C      1  0.4147730000000  0.5410800000000  0.5445420000000 1.0
C      1  0.5868220000000  0.4295890000000  0.4631970000000 1.0
C      1  0.4551980000000  0.5965200000000  0.5305610000000 1.0
C      1  0.4244940000000  0.4134360000000  0.4968080000000 1.0
C      1  0.5845650000000  0.4754090000000  0.5830160000000 1.0
C      1  0.5009510000000  0.5310880000000  0.4864170000000 1.0
C      1  0.4591320000000  0.4680450000000  0.4104520000000 1.0
C      1  0.5521070000000  0.5046060000000  0.5513310000000 1.0
C      1  0.5142810000000  0.4301310000000  0.6026040000000 1.0
C      1  0.5962910000000  0.5186960000000  0.4962360000000 1.0
C      1  0.5153840000000  0.4871670000000  0.6189510000000 1.0
C      1  0.5088720000000  0.4179980000000  0.4357700000000 1.0
C      1  0.5941950000000  0.4570000000000  0.4622800000000 1.0
C      1  0.6087140000000  0.5360720000000  0.5176210000000 1.0
C      1  0.5066300000000  0.3994700000000  0.4573090000000 1.0
C      1  0.5230820000000  0.4565410000000  0.4727800000000 1.0
C      1  0.5901480000000  0.5161470000000  0.4475360000000 1.0
C      1  0.4750960000000  0.4262090000000  0.5521390000000 1.0
C      1  0.5245200000000  0.4191280000000  0.5020150000000 1.0
C      1  0.3862460000000  0.4749640000000  0.4776450000000 1.0
C      1  0.3925880000000  0.5461070000000  0.4926650000000 1.0
C      1  0.4336940000000  0.5024440000000  0.4919420000000 1.0
C      1  0.4654990000000  0.4219260000000  0.4498420000000 1.0
C      1  0.4157540000000  0.4649190000000  0.5380250000000 1.0
C      1  0.4835900000000  0.4279190000000  0.4271020000000 1.0
C      1  0.5631970000000  0.5116130000000  0.4546260000000 1.0
C      1  0.5524840000000  0.4880770000000  0.5005600000000 1.0
C      1  0.5319880000000  0.4321440000000  0.4256140000000 1.0
C      1  0.5573930000000  0.5586330000000  0.5711560000000 1.0
C      1  0.5687940000000  0.4327490000000  0.5576270000000 1.0
C      1  0.5700490000000  0.4103280000000  0.5133560000000 1.0
C      1  0.5311780000000  0.4816370000000  0.4330080000000 1.0
C      1  0.4919730000000  0.5046310000000  0.4073400000000 1.0
C      1  0.5048150000000  0.5326540000000  0.6078570000000 1.0
C      1  0.4182660000000  0.5998530000000  0.4991450000000 1.0
C      1  0.5907740000000  0.4688630000000  0.4891400000000 1.0
C      1  0.4948530000000  0.5765950000000  0.5499720000000 1.0
C      1  0.4711750000000  0.5190330000000  0.4562560000000 1.0
C      1  0.5411070000000  0.5718900000000  0.5221550000000 1.0
C      1  0.5361620000000  0.5813800000000  0.4729660000000 1.0
C      1  0.5473760000000  0.5374950000000  0.4951170000000 1.0
C      1  0.4529330000000  0.4327710000000  0.5345980000000 1.0
C      1  0.4014950000000  0.5202830000000  0.5271350000000 1.0
C      1  0.4999300000000  0.4143040000000  0.5432340000000 1.0
C      1  0.4912070000000  0.5908420000000  0.4561460000000 1.0
C      1  0.4646890000000  0.4963430000000  0.4164450000000 1.0
C      1  0.5692380000000  0.5605210000000  0.4452110000000 1.0
C      1  0.4610680000000  0.6177170000000  0.4850110000000 1.0
C      1  0.5547740000000  0.4241540000000  0.4418630000000 1.0
C      1  0.5545720000000  0.5808470000000  0.4963280000000 1.0
C      1  0.5912300000000  0.4530500000000  0.5142840000000 1.0
C      1  0.4583800000000  0.5109530000000  0.5306300000000 1.0
C      1  0.4972280000000  0.4488370000000  0.5901450000000 1.0
C      1  0.5191150000000  0.5423940000000  0.5093780000000 1.0
C      1  0.5071200000000  0.5230140000000  0.4307360000000 1.0
C      1  0.3898130000000  0.5036740000000  0.4685550000000 1.0
C      1  0.5328570000000  0.4406750000000  0.5222840000000 1.0
C      1  0.4303370000000  0.5524110000000  0.4992950000000 1.0
C      1  0.3994100000000  0.5617190000000  0.4697460000000 1.0
C      1  0.5552800000000  0.5397950000000  0.5938860000000 1.0
C      1  0.5883620000000  0.5582740000000  0.4667990000000 1.0
C      1  0.4992850000000  0.4909940000000  0.3717390000000 1.0
C      1  0.4622300000000  0.5464030000000  0.5646040000000 1.0
C      1  0.4430250000000  0.5794900000000  0.4590580000000 1.0
C      1  0.5407690000000  0.4736080000000  0.5774210000000 1.0
C      1  0.5150400000000  0.4588760000000  0.5673290000000 1.0
C      1  0.5250020000000  0.4896990000000  0.5105580000000 1.0
C      1  0.5396590000000  0.4236290000000  0.5935820000000 1.0
C      1  0.5467290000000  0.5364280000000  0.4646930000000 1.0
C      1  0.5451740000000  0.5753820000000  0.4454780000000 1.0
C      1  0.4379580000000  0.4591530000000  0.5002300000000 1.0
C      1  0.4857070000000  0.4549400000000  0.4165180000000 1.0
C      1  0.5232550000000  0.5415630000000  0.5635100000000 1.0
C      1  0.5122840000000  0.5818610000000  0.5267530000000 1.0
C      1  0.4790690000000  0.4733440000000  0.4595860000000 1.0
C      1  0.4772470000000  0.4973350000000  0.5928680000000 1.0
C      1  0.5327590000000  0.5089420000000  0.4228290000000 1.0
C      1  0.4862170000000  0.5505730000000  0.5929560000000 1.0
C      1  0.5114720000000  0.5281470000000  0.5375810000000 1.0
C      1  0.4595870000000  0.5436040000000  0.4944750000000 1.0
C      1  0.5336770000000  0.4942910000000  0.5987050000000 1.0
C      1  0.4485550000000  0.4840420000000  0.5706800000000 1.0
C      1  0.5635640000000  0.4527930000000  0.5844070000000 1.0
C      1  0.4446180000000  0.4539470000000  0.5767570000000 1.0
C      1  0.4398690000000  0.4768190000000  0.4763460000000 1.0
C      1  0.4843010000000  0.5530500000000  0.4200410000000 1.0
C      1  0.6000200000000  0.5626070000000  0.5134220000000 1.0
C      1  0.3934900000000  0.4742500000000  0.5075150000000 1.0
C      1  0.5291210000000  0.5240660000000  0.5907180000000 1.0
C      1  0.4165350000000  0.4217430000000  0.4694010000000 1.0
C      1  0.4260150000000  0.4745520000000  0.4265650000000 1.0
C      1  0.5338380000000  0.5065790000000  0.3937110000000 1.0
C      1  0.4642050000000  0.4474290000000  0.4670530000000 1.0
C      1  0.5218560000000  0.4799500000000  0.3864310000000 1.0
C      1  0.4528860000000  0.5453070000000  0.4186470000000 1.0
C      1  0.5960380000000  0.5244410000000  0.5417110000000 1.0
C      1  0.4196170000000  0.5031590000000  0.4243710000000 1.0
C      1  0.4935440000000  0.5189980000000  0.3796730000000 1.0
C      1  0.6001850000000  0.5314720000000  0.4686170000000 1.0
C      1  0.5734920000000  0.4826540000000  0.5549010000000 1.0
C      1  0.5061620000000  0.5017410000000  0.4899590000000 1.0
C      1  0.4989420000000  0.5945500000000  0.5046000000000 1.0
C      1  0.4328690000000  0.5327720000000  0.5674290000000 1.0
C      1  0.4658300000000  0.4946480000000  0.4454920000000 1.0
C      1  0.4789340000000  0.3993760000000  0.4666250000000 1.0
C      1  0.5163000000000  0.5374890000000  0.3843570000000 1.0
C      1  0.4509800000000  0.4139480000000  0.5102120000000 1.0
END
