TITL C-950525-1983-113 -9.32661290106279e-07 125000 -531.587787091695 0 0 85 (C1) n - 1
REM
REM in /home/bkarasulu/work/CARBON/AIRSS/Generating-Clusters/EDIP-Nigel-Params/with-SteepDescent/Only-C1/SD-CG/HFTN-CG
REM
REM
REM
REM
REM
REM ./C.cell (11c1c37f851c82e70ff6c80c92926a4b)
REM
REM compiler GCC version 9.2.1 20190827 (Red Hat 9.2.1-1)
REM options -cpp -mtune=generic -march=x86-64 -g -O0 -fpre-include=/usr/include/finclude/math-vector-fortran.h
REM seed -1099356749 432185258 1717723354 -443093405 1268323982 -1742787426 -374948350 -1378963651 478178260 -1398534973 -2123784539 1564458314 11507470 868546127 -244391720 -1024645759 -704457983 -1729804895 1326866110 -286814559 -58003373 2143648647 187910770 683213703 -308355073 -1434474090 -782148910 795626724 -1210254163 -66049054 -1119731296 -1563619558 1912589256
REM
CELL 1.54180   50.00000   50.00000   50.00000   90.00000   90.00000   90.00000
LATT -1
SFAC C  
C      1  0.5586920000000  0.4847990000000  0.4348180000000 1.0
C      1  0.4491780000000  0.4919610000000  0.4567920000000 1.0
C      1  0.4787460000000  0.4435180000000  0.4784290000000 1.0
C      1  0.4339890000000  0.4942830000000  0.5091680000000 1.0
C      1  0.4730910000000  0.5098970000000  0.4612860000000 1.0
C      1  0.5468990000000  0.5382540000000  0.4485540000000 1.0
C      1  0.5071480000000  0.5250860000000  0.5275390000000 1.0
C      1  0.5744420000000  0.5098910000000  0.5193050000000 1.0
C      1  0.5814410000000  0.4888480000000  0.4503570000000 1.0
C      1  0.4739210000000  0.5670320000000  0.4708030000000 1.0
C      1  0.5098220000000  0.5743660000000  0.5032310000000 1.0
C      1  0.4487780000000  0.4824470000000  0.5608180000000 1.0
C      1  0.5324620000000  0.5615550000000  0.5188020000000 1.0
C      1  0.5378690000000  0.5325350000000  0.5097240000000 1.0
C      1  0.5187520000000  0.5486770000000  0.4560310000000 1.0
C      1  0.5292640000000  0.5571370000000  0.5482340000000 1.0
C      1  0.5266980000000  0.5188540000000  0.5795170000000 1.0
C      1  0.4792870000000  0.5112560000000  0.5842150000000 1.0
C      1  0.5779080000000  0.4886240000000  0.4985260000000 1.0
C      1  0.4821890000000  0.4545210000000  0.5396570000000 1.0
C      1  0.4830740000000  0.5805360000000  0.5180100000000 1.0
C      1  0.4662930000000  0.5181530000000  0.4911490000000 1.0
C      1  0.4872450000000  0.4878450000000  0.5024520000000 1.0
C      1  0.5001210000000  0.5326980000000  0.5791700000000 1.0
C      1  0.4918700000000  0.4836460000000  0.5835060000000 1.0
C      1  0.5395120000000  0.4724080000000  0.5719930000000 1.0
C      1  0.5047460000000  0.4585810000000  0.4210880000000 1.0
C      1  0.5108710000000  0.4912330000000  0.4833370000000 1.0
C      1  0.5102960000000  0.4439770000000  0.4781640000000 1.0
C      1  0.5659860000000  0.4395660000000  0.4847510000000 1.0
C      1  0.4102380000000  0.5364500000000  0.5291390000000 1.0
C      1  0.5416870000000  0.5117970000000  0.4271800000000 1.0
C      1  0.5564020000000  0.4650020000000  0.4981580000000 1.0
C      1  0.4604390000000  0.4697050000000  0.4385430000000 1.0
C      1  0.4433870000000  0.4806040000000  0.4843590000000 1.0
C      1  0.4968490000000  0.4920540000000  0.4575520000000 1.0
C      1  0.4497540000000  0.5532490000000  0.5451440000000 1.0
C      1  0.4386670000000  0.4754680000000  0.5328190000000 1.0
C      1  0.5274910000000  0.5165930000000  0.4852130000000 1.0
C      1  0.4775910000000  0.5634000000000  0.5421980000000 1.0
C      1  0.4667500000000  0.4658220000000  0.4956960000000 1.0
C      1  0.4747500000000  0.5301050000000  0.4372190000000 1.0
C      1  0.5546800000000  0.4777600000000  0.5489200000000 1.0
C      1  0.4575310000000  0.4548130000000  0.5224380000000 1.0
C      1  0.4184490000000  0.5193020000000  0.5052690000000 1.0
C      1  0.4974990000000  0.4769940000000  0.5270030000000 1.0
C      1  0.5514630000000  0.4565500000000  0.4358770000000 1.0
C      1  0.4951870000000  0.4142330000000  0.5078540000000 1.0
C      1  0.4612550000000  0.5793570000000  0.4951280000000 1.0
C      1  0.5893990000000  0.5012690000000  0.4739980000000 1.0
C      1  0.4898550000000  0.5320830000000  0.5016670000000 1.0
C      1  0.4578570000000  0.5099460000000  0.5649110000000 1.0
C      1  0.4287750000000  0.5104800000000  0.4472930000000 1.0
C      1  0.4973490000000  0.4272640000000  0.5350670000000 1.0
C      1  0.4363880000000  0.5639390000000  0.4998490000000 1.0
C      1  0.5484450000000  0.4203040000000  0.5019680000000 1.0
C      1  0.4134610000000  0.5235270000000  0.5543640000000 1.0
C      1  0.4726690000000  0.4648800000000  0.5679230000000 1.0
C      1  0.5521970000000  0.4584830000000  0.5270140000000 1.0
C      1  0.5468230000000  0.4303620000000  0.5306650000000 1.0
C      1  0.5178010000000  0.4918830000000  0.5692040000000 1.0
C      1  0.5448270000000  0.5300740000000  0.5582880000000 1.0
C      1  0.5022840000000  0.5418640000000  0.4327890000000 1.0
C      1  0.4713910000000  0.4190430000000  0.4926010000000 1.0
C      1  0.5485410000000  0.5139000000000  0.4656700000000 1.0
C      1  0.5196520000000  0.4184800000000  0.4898220000000 1.0
C      1  0.5127810000000  0.5199510000000  0.4162870000000 1.0
C      1  0.4887320000000  0.5032320000000  0.4129750000000 1.0
C      1  0.5745480000000  0.5281940000000  0.4752630000000 1.0
C      1  0.5689950000000  0.5342390000000  0.5042130000000 1.0
C      1  0.5275370000000  0.4673310000000  0.4849350000000 1.0
C      1  0.5616860000000  0.4404200000000  0.4566760000000 1.0
C      1  0.5109100000000  0.4974540000000  0.5401450000000 1.0
C      1  0.5545810000000  0.5060410000000  0.5405620000000 1.0
C      1  0.4327020000000  0.5360190000000  0.4592950000000 1.0
C      1  0.4395500000000  0.5316150000000  0.5620290000000 1.0
C      1  0.4881220000000  0.4795710000000  0.4306740000000 1.0
C      1  0.4275860000000  0.5616280000000  0.5278940000000 1.0
C      1  0.5010800000000  0.5457810000000  0.5509200000000 1.0
C      1  0.4996630000000  0.5546380000000  0.4819690000000 1.0
C      1  0.4571370000000  0.5509910000000  0.4499990000000 1.0
C      1  0.4377790000000  0.5355530000000  0.4887010000000 1.0
C      1  0.5234210000000  0.4238790000000  0.5447670000000 1.0
C      1  0.4655440000000  0.4457610000000  0.4525980000000 1.0
C      1  0.5292720000000  0.4484840000000  0.4218710000000 1.0
END
