TITL C-951348-1603-308 5.69800156059461e-07 125000 -119.248136608261 0 0 20 (C1) n - 1
REM
REM in /home/bkarasulu/work/CARBON/AIRSS/Generating-Clusters/EDIP-Nigel-Params/with-SteepDescent/Only-C1/SD-CG/HFTN-CG
REM
REM
REM
REM
REM
REM ./C.cell (11c1c37f851c82e70ff6c80c92926a4b)
REM
REM compiler GCC version 9.2.1 20190827 (Red Hat 9.2.1-1)
REM options -cpp -mtune=generic -march=x86-64 -g -O0 -fpre-include=/usr/include/finclude/math-vector-fortran.h
REM seed -1289458363 1397691992 -1946718701 -1530936451 70099419 1529356775 1375983048 -757798501 -73247485 1039752257 824901839 639383069 2024161710 -1278635178 111465554 468053157 -162342126 -429956516 -4031091 -1852257652 -1905209894 -953972277 57370513 -1797286952 -708945261 1326081422 245621384 -1213386480 1677798292 -1066546422 77175339 1503353661 145950471
REM
CELL 1.54180   50.00000   50.00000   50.00000   90.00000   90.00000   90.00000
LATT -1
SFAC C  
C      1  0.4812790000000  0.5432890000000  0.4853490000000 1.0
C      1  0.5562780000000  0.4881930000000  0.4738160000000 1.0
C      1  0.5411110000000  0.4441760000000  0.4908710000000 1.0
C      1  0.5244180000000  0.4648560000000  0.5341010000000 1.0
C      1  0.4629580000000  0.5615630000000  0.4752600000000 1.0
C      1  0.4379860000000  0.5530120000000  0.4842140000000 1.0
C      1  0.4707610000000  0.5235960000000  0.5029840000000 1.0
C      1  0.5146130000000  0.5015390000000  0.5028680000000 1.0
C      1  0.5339820000000  0.4832900000000  0.5148640000000 1.0
C      1  0.4299440000000  0.5511270000000  0.5106390000000 1.0
C      1  0.5193730000000  0.4322940000000  0.5023140000000 1.0
C      1  0.5472890000000  0.5133880000000  0.4695890000000 1.0
C      1  0.5077110000000  0.4443860000000  0.5248680000000 1.0
C      1  0.4879060000000  0.5032630000000  0.5135990000000 1.0
C      1  0.5509340000000  0.4703690000000  0.4947880000000 1.0
C      1  0.4771530000000  0.4803430000000  0.5251340000000 1.0
C      1  0.5067350000000  0.5399990000000  0.4750890000000 1.0
C      1  0.4439320000000  0.5272880000000  0.5118520000000 1.0
C      1  0.5243100000000  0.5204540000000  0.4836380000000 1.0
C      1  0.4813260000000  0.4535750000000  0.5241620000000 1.0
END
