TITL C-951341-1326-402 -7.05907100320612e-06 125000 -1226.43938153332 0 0 198 (C1) n - 1
REM
REM in /home/bkarasulu/work/CARBON/AIRSS/Generating-Clusters/EDIP-Nigel-Params/with-SteepDescent/Only-C1/SD-CG/HFTN-CG
REM
REM
REM
REM
REM
REM ./C.cell (11c1c37f851c82e70ff6c80c92926a4b)
REM
REM compiler GCC version 9.2.1 20190827 (Red Hat 9.2.1-1)
REM options -cpp -mtune=generic -march=x86-64 -g -O0 -fpre-include=/usr/include/finclude/math-vector-fortran.h
REM seed 1901635647 423284256 1132952163 710428001 1864475298 -1817702857 -578414796 -652551333 1482924420 739689084 6945089 1418555608 968932973 1301755357 695790262 1613014008 1741070595 2100748382 449846866 1362293653 -1940186621 1798201058 811666763 -464852005 1048849114 -2060986154 -543292491 -202679847 -237238210 -1459656630 -983447530 665032696 1160974494
REM
CELL 1.54180   50.00000   50.00000   50.00000   90.00000   90.00000   90.00000
LATT -1
SFAC C  
C      1  0.5313270000000  0.4620740000000  0.4909860000000 1.0
C      1  0.4553040000000  0.4409640000000  0.4222330000000 1.0
C      1  0.5613250000000  0.4177610000000  0.5370120000000 1.0
C      1  0.5198850000000  0.5498370000000  0.5780290000000 1.0
C      1  0.4093990000000  0.4731780000000  0.5548170000000 1.0
C      1  0.5783720000000  0.4486360000000  0.4979420000000 1.0
C      1  0.4269120000000  0.5160260000000  0.5673380000000 1.0
C      1  0.6062610000000  0.5256850000000  0.4715230000000 1.0
C      1  0.5492910000000  0.5147860000000  0.5958300000000 1.0
C      1  0.5575440000000  0.4944580000000  0.5164490000000 1.0
C      1  0.3931280000000  0.5019710000000  0.5049830000000 1.0
C      1  0.5797250000000  0.5387550000000  0.4320420000000 1.0
C      1  0.5991590000000  0.5211580000000  0.4439500000000 1.0
C      1  0.4661740000000  0.5530590000000  0.5467370000000 1.0
C      1  0.4988500000000  0.5776160000000  0.5161130000000 1.0
C      1  0.4469890000000  0.5036600000000  0.5473470000000 1.0
C      1  0.5790420000000  0.4218000000000  0.5115650000000 1.0
C      1  0.4968570000000  0.5349990000000  0.4071060000000 1.0
C      1  0.5587460000000  0.4384080000000  0.4228680000000 1.0
C      1  0.4286740000000  0.4315820000000  0.4571620000000 1.0
C      1  0.4129630000000  0.4269390000000  0.4978170000000 1.0
C      1  0.5128240000000  0.4952630000000  0.5311820000000 1.0
C      1  0.4550490000000  0.5852880000000  0.4425190000000 1.0
C      1  0.4413370000000  0.4148030000000  0.4951010000000 1.0
C      1  0.4835420000000  0.5822110000000  0.5806590000000 1.0
C      1  0.5245820000000  0.4545360000000  0.5974950000000 1.0
C      1  0.4290090000000  0.4648330000000  0.5755870000000 1.0
C      1  0.5088150000000  0.4646610000000  0.5346630000000 1.0
C      1  0.4640100000000  0.4449590000000  0.5373100000000 1.0
C      1  0.5785860000000  0.4575000000000  0.4221080000000 1.0
C      1  0.4297740000000  0.4959100000000  0.4573340000000 1.0
C      1  0.6188790000000  0.4779500000000  0.4769020000000 1.0
C      1  0.6188110000000  0.5046940000000  0.4878120000000 1.0
C      1  0.5082660000000  0.4463560000000  0.5023350000000 1.0
C      1  0.4512840000000  0.6034720000000  0.5005080000000 1.0
C      1  0.5128330000000  0.5585810000000  0.4098820000000 1.0
C      1  0.4514290000000  0.4008910000000  0.4607740000000 1.0
C      1  0.4528320000000  0.5332550000000  0.5975650000000 1.0
C      1  0.5060620000000  0.5912690000000  0.5632810000000 1.0
C      1  0.4246300000000  0.5456770000000  0.5575490000000 1.0
C      1  0.5623650000000  0.4143480000000  0.4390260000000 1.0
C      1  0.5390120000000  0.4396950000000  0.4027720000000 1.0
C      1  0.5678750000000  0.4067650000000  0.4883280000000 1.0
C      1  0.4508950000000  0.5874440000000  0.5414440000000 1.0
C      1  0.4472320000000  0.4889510000000  0.4330760000000 1.0
C      1  0.4032130000000  0.5024090000000  0.5550380000000 1.0
C      1  0.3903430000000  0.5466240000000  0.4837530000000 1.0
C      1  0.5281230000000  0.4913490000000  0.3965490000000 1.0
C      1  0.4836730000000  0.4587410000000  0.5547050000000 1.0
C      1  0.4497870000000  0.4422240000000  0.5793500000000 1.0
C      1  0.4660340000000  0.4656650000000  0.4350910000000 1.0
C      1  0.5378830000000  0.4801660000000  0.5642100000000 1.0
C      1  0.5392160000000  0.5883050000000  0.4447330000000 1.0
C      1  0.4952440000000  0.4665090000000  0.4436640000000 1.0
C      1  0.5083260000000  0.4396310000000  0.4395820000000 1.0
C      1  0.4519650000000  0.5385330000000  0.5146270000000 1.0
C      1  0.5781260000000  0.4127920000000  0.4625900000000 1.0
C      1  0.6000170000000  0.5521470000000  0.4820520000000 1.0
C      1  0.4015790000000  0.4549580000000  0.4822400000000 1.0
C      1  0.4873910000000  0.4371970000000  0.4811060000000 1.0
C      1  0.5193060000000  0.4152270000000  0.5664330000000 1.0
C      1  0.5872890000000  0.5773780000000  0.5234170000000 1.0
C      1  0.4832410000000  0.5958770000000  0.4376460000000 1.0
C      1  0.5781080000000  0.5523050000000  0.5619390000000 1.0
C      1  0.5505740000000  0.4941840000000  0.6151870000000 1.0
C      1  0.5392060000000  0.5119420000000  0.5336530000000 1.0
C      1  0.5231840000000  0.3950850000000  0.5459650000000 1.0
C      1  0.5375990000000  0.4379770000000  0.5337440000000 1.0
C      1  0.4289680000000  0.4861270000000  0.4093900000000 1.0
C      1  0.4598010000000  0.4395680000000  0.4905000000000 1.0
C      1  0.5826600000000  0.4880480000000  0.4683240000000 1.0
C      1  0.4379120000000  0.5567270000000  0.4926580000000 1.0
C      1  0.5502470000000  0.3908560000000  0.5395900000000 1.0
C      1  0.4066550000000  0.4596860000000  0.5297860000000 1.0
C      1  0.4990440000000  0.4917190000000  0.3903970000000 1.0
C      1  0.4804000000000  0.5496370000000  0.4596110000000 1.0
C      1  0.4932170000000  0.5129000000000  0.4385670000000 1.0
C      1  0.4599080000000  0.4792820000000  0.6069450000000 1.0
C      1  0.5788650000000  0.4579640000000  0.5525970000000 1.0
C      1  0.4367820000000  0.5554550000000  0.6030300000000 1.0
C      1  0.3973550000000  0.5176410000000  0.5297760000000 1.0
C      1  0.5487630000000  0.5675050000000  0.5426470000000 1.0
C      1  0.4530770000000  0.5307860000000  0.4066340000000 1.0
C      1  0.4843340000000  0.4675660000000  0.3882250000000 1.0
C      1  0.5391100000000  0.5419930000000  0.5259950000000 1.0
C      1  0.5850590000000  0.5773000000000  0.5516710000000 1.0
C      1  0.5037750000000  0.5014930000000  0.6130700000000 1.0
C      1  0.4319830000000  0.4788680000000  0.4805330000000 1.0
C      1  0.6032710000000  0.4572110000000  0.4871160000000 1.0
C      1  0.3987220000000  0.5171830000000  0.4277950000000 1.0
C      1  0.5944270000000  0.5295370000000  0.5550930000000 1.0
C      1  0.4530200000000  0.5867840000000  0.5705810000000 1.0
C      1  0.5130790000000  0.4893130000000  0.4321720000000 1.0
C      1  0.4773530000000  0.6091090000000  0.5138030000000 1.0
C      1  0.6066840000000  0.5309680000000  0.5283230000000 1.0
C      1  0.5386760000000  0.3969440000000  0.4388760000000 1.0
C      1  0.4386810000000  0.4710330000000  0.3876410000000 1.0
C      1  0.5025570000000  0.3910300000000  0.5252220000000 1.0
C      1  0.4812490000000  0.5730740000000  0.4756840000000 1.0
C      1  0.5546700000000  0.4481120000000  0.4784190000000 1.0
C      1  0.5383340000000  0.4913910000000  0.4529100000000 1.0
C      1  0.4397590000000  0.5122580000000  0.5184730000000 1.0
C      1  0.4440140000000  0.4222080000000  0.5403790000000 1.0
C      1  0.4073720000000  0.5463570000000  0.5328480000000 1.0
C      1  0.4778550000000  0.3935650000000  0.5093690000000 1.0
C      1  0.4189940000000  0.5132200000000  0.4067490000000 1.0
C      1  0.5234030000000  0.4881970000000  0.4798680000000 1.0
C      1  0.4993570000000  0.3848480000000  0.4653440000000 1.0
C      1  0.5517410000000  0.5071480000000  0.5666610000000 1.0
C      1  0.4530710000000  0.5815930000000  0.4803900000000 1.0
C      1  0.4940670000000  0.4805360000000  0.4754790000000 1.0
C      1  0.5525200000000  0.4684970000000  0.5389230000000 1.0
C      1  0.5617160000000  0.5328990000000  0.4805160000000 1.0
C      1  0.5929000000000  0.4789700000000  0.5678210000000 1.0
C      1  0.4853360000000  0.5039400000000  0.5256080000000 1.0
C      1  0.4951540000000  0.6113770000000  0.4581670000000 1.0
C      1  0.5431560000000  0.5557640000000  0.4143430000000 1.0
C      1  0.3970000000000  0.4728450000000  0.5057890000000 1.0
C      1  0.5168010000000  0.4271500000000  0.4145250000000 1.0
C      1  0.4873770000000  0.5087910000000  0.5644540000000 1.0
C      1  0.5091800000000  0.5298430000000  0.6161050000000 1.0
C      1  0.4644840000000  0.5116090000000  0.4266590000000 1.0
C      1  0.4119730000000  0.5651340000000  0.5085380000000 1.0
C      1  0.5256950000000  0.4814850000000  0.6133350000000 1.0
C      1  0.4306940000000  0.5913870000000  0.5197760000000 1.0
C      1  0.4819200000000  0.5057180000000  0.4666380000000 1.0
C      1  0.5664170000000  0.5917360000000  0.5101910000000 1.0
C      1  0.4889860000000  0.5295600000000  0.4814650000000 1.0
C      1  0.5072530000000  0.4823490000000  0.5735350000000 1.0
C      1  0.5223970000000  0.4209470000000  0.5105660000000 1.0
C      1  0.4752220000000  0.4828570000000  0.5048900000000 1.0
C      1  0.5321830000000  0.5377330000000  0.6010340000000 1.0
C      1  0.4492520000000  0.5592400000000  0.4186010000000 1.0
C      1  0.5526280000000  0.5016940000000  0.4098480000000 1.0
C      1  0.4528010000000  0.5484050000000  0.4472000000000 1.0
C      1  0.5614240000000  0.4687310000000  0.4549980000000 1.0
C      1  0.3935550000000  0.5433020000000  0.4355460000000 1.0
C      1  0.4924130000000  0.5534370000000  0.5899020000000 1.0
C      1  0.4160360000000  0.4323950000000  0.5271280000000 1.0
C      1  0.5038890000000  0.6201710000000  0.5055070000000 1.0
C      1  0.4921470000000  0.4217610000000  0.4558940000000 1.0
C      1  0.5473670000000  0.6056260000000  0.5251510000000 1.0
C      1  0.4622190000000  0.5216660000000  0.6212000000000 1.0
C      1  0.4913230000000  0.5529690000000  0.5287860000000 1.0
C      1  0.5080520000000  0.5774580000000  0.4876160000000 1.0
C      1  0.4516590000000  0.4010450000000  0.5199150000000 1.0
C      1  0.6163300000000  0.5060480000000  0.5166950000000 1.0
C      1  0.5986170000000  0.5535110000000  0.5112830000000 1.0
C      1  0.6042090000000  0.4584520000000  0.5369210000000 1.0
C      1  0.4250260000000  0.4374080000000  0.4288010000000 1.0
C      1  0.5981690000000  0.4955160000000  0.4335160000000 1.0
C      1  0.5230420000000  0.6201090000000  0.5282600000000 1.0
C      1  0.5292410000000  0.5735190000000  0.5651520000000 1.0
C      1  0.5390820000000  0.4132320000000  0.4859260000000 1.0
C      1  0.4638090000000  0.4167270000000  0.5712090000000 1.0
C      1  0.5257950000000  0.3961000000000  0.4649930000000 1.0
C      1  0.3906020000000  0.5167030000000  0.4800380000000 1.0
C      1  0.4848190000000  0.5175580000000  0.3882950000000 1.0
C      1  0.4007280000000  0.5008920000000  0.4541570000000 1.0
C      1  0.5767050000000  0.4855750000000  0.4171980000000 1.0
C      1  0.5257040000000  0.5369760000000  0.4547900000000 1.0
C      1  0.5432120000000  0.6041300000000  0.4688860000000 1.0
C      1  0.4042930000000  0.5536790000000  0.4592920000000 1.0
C      1  0.5100240000000  0.6170850000000  0.5531190000000 1.0
C      1  0.4363680000000  0.4878480000000  0.5920160000000 1.0
C      1  0.4929460000000  0.4222340000000  0.5768030000000 1.0
C      1  0.5637050000000  0.5879490000000  0.4819530000000 1.0
C      1  0.5595210000000  0.5304200000000  0.4107040000000 1.0
C      1  0.5367980000000  0.5451320000000  0.4970400000000 1.0
C      1  0.4763670000000  0.4979310000000  0.6208570000000 1.0
C      1  0.5180640000000  0.5267680000000  0.4815650000000 1.0
C      1  0.4050940000000  0.4569270000000  0.4327170000000 1.0
C      1  0.5773410000000  0.5657950000000  0.4666320000000 1.0
C      1  0.4666420000000  0.4853600000000  0.5644770000000 1.0
C      1  0.5209430000000  0.5674120000000  0.4557010000000 1.0
C      1  0.4441080000000  0.4531070000000  0.4709570000000 1.0
C      1  0.5000600000000  0.5709480000000  0.4343460000000 1.0
C      1  0.4309040000000  0.5448360000000  0.4666360000000 1.0
C      1  0.5138470000000  0.6065340000000  0.4801390000000 1.0
C      1  0.5809460000000  0.5043550000000  0.5620500000000 1.0
C      1  0.5675060000000  0.5045130000000  0.4899630000000 1.0
C      1  0.4316850000000  0.5667680000000  0.5780570000000 1.0
C      1  0.4964040000000  0.4447470000000  0.5940880000000 1.0
C      1  0.6177460000000  0.4821140000000  0.5311530000000 1.0
C      1  0.4507400000000  0.4961440000000  0.4963850000000 1.0
C      1  0.4748270000000  0.3890810000000  0.4799150000000 1.0
C      1  0.4668130000000  0.4171240000000  0.4400070000000 1.0
C      1  0.3935270000000  0.4703140000000  0.4549100000000 1.0
C      1  0.4632660000000  0.4569680000000  0.5126430000000 1.0
C      1  0.5412500000000  0.4322510000000  0.5774970000000 1.0
C      1  0.5689940000000  0.4309440000000  0.5641770000000 1.0
C      1  0.4600920000000  0.4535560000000  0.3929210000000 1.0
C      1  0.4731020000000  0.5360630000000  0.5743900000000 1.0
C      1  0.4811590000000  0.5309350000000  0.5112920000000 1.0
C      1  0.5512630000000  0.5220110000000  0.4525480000000 1.0
C      1  0.5211740000000  0.3993050000000  0.4165670000000 1.0
C      1  0.4696930000000  0.4548470000000  0.5963840000000 1.0
C      1  0.5610090000000  0.5744240000000  0.4323330000000 1.0
END
