TITL C-951336-9012-128 -7.71638584605618e-07 125000 -141.657863988631 0 0 25 (C1) n - 1
REM
REM in /home/bkarasulu/work/CARBON/AIRSS/Generating-Clusters/EDIP-Nigel-Params/with-SteepDescent/Only-C1/SD-CG/HFTN-CG
REM
REM
REM
REM
REM
REM ./C.cell (11c1c37f851c82e70ff6c80c92926a4b)
REM
REM compiler GCC version 9.2.1 20190827 (Red Hat 9.2.1-1)
REM options -cpp -mtune=generic -march=x86-64 -g -O0 -fpre-include=/usr/include/finclude/math-vector-fortran.h
REM seed -43445854 -4975452 -1675163545 -1466807519 -1113188598 -2130152395 1085832484 418147066 181341659 437307312 -1366147677 1664738097 -962804637 425654074 -1678772424 -332543749 1662351970 -1032533580 -1840557579 -1852195717 2027261993 -803366581 1205041884 -1271265902 245253751 -1734388576 1325552141 -1036807862 -1919942191 -2093590804 -1146533436 -1891917683 -1540601487
REM
CELL 1.54180   50.00000   50.00000   50.00000   90.00000   90.00000   90.00000
LATT -1
SFAC C  
C      1  0.4616340000000  0.4533640000000  0.4874450000000 1.0
C      1  0.4788720000000  0.4641310000000  0.4679910000000 1.0
C      1  0.5309550000000  0.4622020000000  0.4660210000000 1.0
C      1  0.5329970000000  0.4817240000000  0.5229330000000 1.0
C      1  0.4970420000000  0.5571570000000  0.5073780000000 1.0
C      1  0.4856440000000  0.4739850000000  0.5243320000000 1.0
C      1  0.5355620000000  0.5093920000000  0.4803300000000 1.0
C      1  0.5326050000000  0.5069030000000  0.5099430000000 1.0
C      1  0.4864240000000  0.5421350000000  0.4844910000000 1.0
C      1  0.5052630000000  0.5323570000000  0.5433030000000 1.0
C      1  0.5058530000000  0.4645200000000  0.4782430000000 1.0
C      1  0.4739300000000  0.5155190000000  0.4864440000000 1.0
C      1  0.5123800000000  0.4622550000000  0.5221100000000 1.0
C      1  0.5255460000000  0.5545400000000  0.5080190000000 1.0
C      1  0.4666670000000  0.5055260000000  0.5127230000000 1.0
C      1  0.4953410000000  0.5065480000000  0.4512550000000 1.0
C      1  0.4861530000000  0.5507560000000  0.5330650000000 1.0
C      1  0.5445060000000  0.4859940000000  0.4670760000000 1.0
C      1  0.4602270000000  0.4626110000000  0.5140120000000 1.0
C      1  0.5145780000000  0.4464790000000  0.4979290000000 1.0
C      1  0.5089910000000  0.5296470000000  0.5694850000000 1.0
C      1  0.4727800000000  0.4910110000000  0.4584880000000 1.0
C      1  0.4448160000000  0.4870140000000  0.5152910000000 1.0
C      1  0.5128110000000  0.5225970000000  0.4665710000000 1.0
C      1  0.5284230000000  0.5316320000000  0.5251220000000 1.0
END
