TITL C-950535-5962-675 -6.61601991287517e-06 125000 -1207.69463766126 0 0 191 (C1) n - 1
REM
REM in /home/bkarasulu/work/CARBON/AIRSS/Generating-Clusters/EDIP-Nigel-Params/with-SteepDescent/Only-C1/SD-CG/HFTN-CG
REM
REM
REM
REM
REM
REM ./C.cell (11c1c37f851c82e70ff6c80c92926a4b)
REM
REM compiler GCC version 9.2.1 20190827 (Red Hat 9.2.1-1)
REM options -cpp -mtune=generic -march=x86-64 -g -O0 -fpre-include=/usr/include/finclude/math-vector-fortran.h
REM seed -211889327 2144855928 1540169278 -1013970574 -1432977752 1218368255 1061337807 1812443184 -1093094180 910264236 -1045562332 831571877 -1511556727 -1385068519 1966167643 2102737365 150614906 1573288536 2095112947 -413329584 614992737 -2002977484 237522254 -221273567 788244105 -1728544451 369562398 -928889342 -954561131 -1553228111 403828987 -1450345164 -448174304
REM
CELL 1.54180   50.00000   50.00000   50.00000   90.00000   90.00000   90.00000
LATT -1
SFAC C  
C      1  0.4222980000000  0.5659700000000  0.4477800000000 1.0
C      1  0.5496210000000  0.5584890000000  0.4441520000000 1.0
C      1  0.4714160000000  0.5215750000000  0.4412150000000 1.0
C      1  0.4236480000000  0.5886050000000  0.5337070000000 1.0
C      1  0.4093310000000  0.5416270000000  0.5658280000000 1.0
C      1  0.5544450000000  0.5845800000000  0.5523220000000 1.0
C      1  0.5101370000000  0.4237180000000  0.4233490000000 1.0
C      1  0.4955530000000  0.5521910000000  0.5802400000000 1.0
C      1  0.5550730000000  0.4602140000000  0.5434420000000 1.0
C      1  0.4442900000000  0.5391870000000  0.5305100000000 1.0
C      1  0.4071300000000  0.5432410000000  0.4368100000000 1.0
C      1  0.5803980000000  0.4312590000000  0.4818900000000 1.0
C      1  0.5880090000000  0.4946060000000  0.5612520000000 1.0
C      1  0.5397300000000  0.5213670000000  0.4102460000000 1.0
C      1  0.4550810000000  0.4800160000000  0.4578480000000 1.0
C      1  0.4720760000000  0.5884470000000  0.5532690000000 1.0
C      1  0.5126870000000  0.5220420000000  0.5117920000000 1.0
C      1  0.5255950000000  0.5127860000000  0.4553270000000 1.0
C      1  0.5128030000000  0.6021700000000  0.5229360000000 1.0
C      1  0.5239710000000  0.4497320000000  0.4745200000000 1.0
C      1  0.5291430000000  0.5788570000000  0.5702250000000 1.0
C      1  0.6017890000000  0.5581920000000  0.4837070000000 1.0
C      1  0.5956770000000  0.4791410000000  0.5169400000000 1.0
C      1  0.4075240000000  0.4559270000000  0.5138260000000 1.0
C      1  0.5652210000000  0.5382100000000  0.5646780000000 1.0
C      1  0.4397910000000  0.4238210000000  0.4568370000000 1.0
C      1  0.4773190000000  0.4517450000000  0.4841290000000 1.0
C      1  0.5645860000000  0.4149660000000  0.5269790000000 1.0
C      1  0.6108180000000  0.5278720000000  0.5177160000000 1.0
C      1  0.4024460000000  0.5615330000000  0.4954840000000 1.0
C      1  0.5102540000000  0.4460940000000  0.5209610000000 1.0
C      1  0.4944180000000  0.5584950000000  0.4793910000000 1.0
C      1  0.4877970000000  0.5552230000000  0.5281100000000 1.0
C      1  0.4796060000000  0.5502980000000  0.6041130000000 1.0
C      1  0.5075090000000  0.3926620000000  0.4634750000000 1.0
C      1  0.4268050000000  0.4795510000000  0.4756390000000 1.0
C      1  0.5610440000000  0.5469200000000  0.5055930000000 1.0
C      1  0.4692010000000  0.4268560000000  0.5955520000000 1.0
C      1  0.5486660000000  0.4332070000000  0.5890250000000 1.0
C      1  0.5241600000000  0.4262390000000  0.5762280000000 1.0
C      1  0.5885900000000  0.5132010000000  0.4754440000000 1.0
C      1  0.5614840000000  0.4765430000000  0.4813630000000 1.0
C      1  0.5678760000000  0.4114150000000  0.4980180000000 1.0
C      1  0.4259280000000  0.4924950000000  0.4174200000000 1.0
C      1  0.4163120000000  0.4903190000000  0.5458890000000 1.0
C      1  0.6150160000000  0.4992330000000  0.5553570000000 1.0
C      1  0.4663480000000  0.4158650000000  0.4484740000000 1.0
C      1  0.4810500000000  0.4307130000000  0.4266760000000 1.0
C      1  0.4746800000000  0.4846480000000  0.5712500000000 1.0
C      1  0.4949400000000  0.5804170000000  0.5697390000000 1.0
C      1  0.4342350000000  0.4242040000000  0.4867200000000 1.0
C      1  0.5051800000000  0.4964780000000  0.4700920000000 1.0
C      1  0.4567720000000  0.4397540000000  0.5711440000000 1.0
C      1  0.4431270000000  0.4683020000000  0.4294280000000 1.0
C      1  0.4757670000000  0.5211940000000  0.3779040000000 1.0
C      1  0.5789530000000  0.5506480000000  0.4098500000000 1.0
C      1  0.4891290000000  0.5859360000000  0.4205350000000 1.0
C      1  0.4648310000000  0.6086550000000  0.5094850000000 1.0
C      1  0.6155910000000  0.5005050000000  0.5272820000000 1.0
C      1  0.5070710000000  0.4510420000000  0.5791120000000 1.0
C      1  0.5086690000000  0.5532440000000  0.4556230000000 1.0
C      1  0.5149680000000  0.5078560000000  0.6127160000000 1.0
C      1  0.4502220000000  0.5638540000000  0.4874110000000 1.0
C      1  0.4382790000000  0.5020860000000  0.3934010000000 1.0
C      1  0.4313500000000  0.5593140000000  0.5756390000000 1.0
C      1  0.4589670000000  0.5316140000000  0.5553050000000 1.0
C      1  0.4821300000000  0.4697700000000  0.3899410000000 1.0
C      1  0.5694970000000  0.5937630000000  0.5052430000000 1.0
C      1  0.5247260000000  0.5103280000000  0.3860090000000 1.0
C      1  0.5147820000000  0.3803900000000  0.5633100000000 1.0
C      1  0.4423180000000  0.5803570000000  0.5567240000000 1.0
C      1  0.5430470000000  0.5341050000000  0.4634590000000 1.0
C      1  0.5029270000000  0.4424270000000  0.4931230000000 1.0
C      1  0.5326820000000  0.4710370000000  0.5670650000000 1.0
C      1  0.5594290000000  0.5983310000000  0.4772480000000 1.0
C      1  0.5319640000000  0.5171960000000  0.5370210000000 1.0
C      1  0.5775740000000  0.5639570000000  0.5556550000000 1.0
C      1  0.5290230000000  0.3779850000000  0.5366460000000 1.0
C      1  0.5363080000000  0.5590260000000  0.5138160000000 1.0
C      1  0.4159090000000  0.5143420000000  0.4358370000000 1.0
C      1  0.5523840000000  0.3952210000000  0.5450130000000 1.0
C      1  0.5146560000000  0.4956650000000  0.4987840000000 1.0
C      1  0.6094720000000  0.5305920000000  0.4887760000000 1.0
C      1  0.4738230000000  0.4762740000000  0.6094320000000 1.0
C      1  0.5310320000000  0.5563300000000  0.5904530000000 1.0
C      1  0.4687290000000  0.5838890000000  0.4432050000000 1.0
C      1  0.4171390000000  0.5125390000000  0.5699200000000 1.0
C      1  0.5808050000000  0.4870230000000  0.5865710000000 1.0
C      1  0.5101070000000  0.6048700000000  0.4927380000000 1.0
C      1  0.5453120000000  0.4590470000000  0.6015330000000 1.0
C      1  0.5270680000000  0.4392000000000  0.4080610000000 1.0
C      1  0.5495390000000  0.5989720000000  0.5270290000000 1.0
C      1  0.5988740000000  0.4505890000000  0.5235250000000 1.0
C      1  0.4095710000000  0.4560220000000  0.4648930000000 1.0
C      1  0.5138430000000  0.4826640000000  0.3963590000000 1.0
C      1  0.3919910000000  0.4953290000000  0.4735230000000 1.0
C      1  0.4672810000000  0.4970080000000  0.3938520000000 1.0
C      1  0.4425380000000  0.5354450000000  0.4862730000000 1.0
C      1  0.4151580000000  0.4630130000000  0.5596700000000 1.0
C      1  0.4815390000000  0.4570450000000  0.5621830000000 1.0
C      1  0.4900630000000  0.5390350000000  0.5018630000000 1.0
C      1  0.5304430000000  0.5962620000000  0.4723520000000 1.0
C      1  0.4352370000000  0.4581830000000  0.5808820000000 1.0
C      1  0.5516200000000  0.3945160000000  0.4801810000000 1.0
C      1  0.4445720000000  0.3990890000000  0.5330660000000 1.0
C      1  0.5586810000000  0.4574990000000  0.4480730000000 1.0
C      1  0.5111570000000  0.5590930000000  0.3813500000000 1.0
C      1  0.4852960000000  0.4582750000000  0.5324930000000 1.0
C      1  0.4617730000000  0.5058430000000  0.5203660000000 1.0
C      1  0.5776600000000  0.4386870000000  0.5390270000000 1.0
C      1  0.5065150000000  0.4692400000000  0.4549320000000 1.0
C      1  0.5514160000000  0.4072340000000  0.4529780000000 1.0
C      1  0.4061910000000  0.4370000000000  0.4887920000000 1.0
C      1  0.4869540000000  0.5353330000000  0.5542640000000 1.0
C      1  0.4879570000000  0.3919480000000  0.5627490000000 1.0
C      1  0.5038120000000  0.5305650000000  0.3816390000000 1.0
C      1  0.4786870000000  0.4022110000000  0.5869340000000 1.0
C      1  0.5367220000000  0.4648620000000  0.4046340000000 1.0
C      1  0.5725080000000  0.4978460000000  0.4277420000000 1.0
C      1  0.4825480000000  0.6063040000000  0.5327080000000 1.0
C      1  0.4929450000000  0.5028610000000  0.5532820000000 1.0
C      1  0.4036990000000  0.5674300000000  0.5251250000000 1.0
C      1  0.3997260000000  0.5060480000000  0.4985830000000 1.0
C      1  0.5162950000000  0.5167500000000  0.4291350000000 1.0
C      1  0.4842370000000  0.3796200000000  0.5144470000000 1.0
C      1  0.4872740000000  0.4895180000000  0.5258590000000 1.0
C      1  0.4150660000000  0.5329450000000  0.4991500000000 1.0
C      1  0.5215910000000  0.4987130000000  0.5592420000000 1.0
C      1  0.5386900000000  0.5438920000000  0.5493870000000 1.0
C      1  0.4334050000000  0.4694700000000  0.5032750000000 1.0
C      1  0.5391620000000  0.3992960000000  0.5736420000000 1.0
C      1  0.4467950000000  0.5685660000000  0.4319480000000 1.0
C      1  0.4687100000000  0.5250150000000  0.6029140000000 1.0
C      1  0.5725940000000  0.4850350000000  0.5373220000000 1.0
C      1  0.5128660000000  0.3832230000000  0.5128120000000 1.0
C      1  0.5493870000000  0.4508340000000  0.4923250000000 1.0
C      1  0.4674700000000  0.3882690000000  0.4922010000000 1.0
C      1  0.5186460000000  0.5888320000000  0.4215570000000 1.0
C      1  0.5578510000000  0.4734930000000  0.4244870000000 1.0
C      1  0.5964930000000  0.5593780000000  0.5327250000000 1.0
C      1  0.4461850000000  0.5246400000000  0.5809080000000 1.0
C      1  0.5501670000000  0.5502400000000  0.4139810000000 1.0
C      1  0.5314250000000  0.5709870000000  0.3998670000000 1.0
C      1  0.4875390000000  0.5031130000000  0.6090030000000 1.0
C      1  0.5394360000000  0.5087720000000  0.5987990000000 1.0
C      1  0.4814120000000  0.6039340000000  0.4857450000000 1.0
C      1  0.4707450000000  0.3854840000000  0.5396760000000 1.0
C      1  0.5880910000000  0.5152240000000  0.4443120000000 1.0
C      1  0.4567250000000  0.5661770000000  0.5185180000000 1.0
C      1  0.4795580000000  0.3977160000000  0.4671730000000 1.0
C      1  0.5697950000000  0.4314340000000  0.4546580000000 1.0
C      1  0.5570250000000  0.4853650000000  0.6002290000000 1.0
C      1  0.5902850000000  0.5430700000000  0.4350690000000 1.0
C      1  0.4748680000000  0.5057270000000  0.4670150000000 1.0
C      1  0.4775920000000  0.4574970000000  0.4561750000000 1.0
C      1  0.4855580000000  0.5590380000000  0.4092930000000 1.0
C      1  0.5226850000000  0.4084740000000  0.4446440000000 1.0
C      1  0.4361150000000  0.5995210000000  0.5089840000000 1.0
C      1  0.3954280000000  0.4883010000000  0.5221480000000 1.0
C      1  0.4752500000000  0.4983710000000  0.4229070000000 1.0
C      1  0.4485500000000  0.4820350000000  0.5906920000000 1.0
C      1  0.3913170000000  0.5108770000000  0.4504340000000 1.0
C      1  0.4394860000000  0.4884160000000  0.5250360000000 1.0
C      1  0.4886370000000  0.4486040000000  0.6053060000000 1.0
C      1  0.5895950000000  0.4839170000000  0.4871410000000 1.0
C      1  0.5743230000000  0.5862120000000  0.4552290000000 1.0
C      1  0.5606600000000  0.5248960000000  0.4852350000000 1.0
C      1  0.5256400000000  0.5777750000000  0.4481900000000 1.0
C      1  0.4135830000000  0.5415580000000  0.5364540000000 1.0
C      1  0.4510100000000  0.5373050000000  0.3846630000000 1.0
C      1  0.4561180000000  0.5567590000000  0.4055540000000 1.0
C      1  0.4739680000000  0.5782530000000  0.4726650000000 1.0
C      1  0.4435880000000  0.4282810000000  0.5430360000000 1.0
C      1  0.4623250000000  0.4410090000000  0.5244680000000 1.0
C      1  0.4524820000000  0.4463890000000  0.4987440000000 1.0
C      1  0.4159750000000  0.4415770000000  0.5395660000000 1.0
C      1  0.4683110000000  0.4555190000000  0.4134760000000 1.0
C      1  0.5150700000000  0.5714050000000  0.5311300000000 1.0
C      1  0.5476130000000  0.4993610000000  0.4966820000000 1.0
C      1  0.4258680000000  0.4455780000000  0.4423210000000 1.0
C      1  0.5835030000000  0.5659630000000  0.5067230000000 1.0
C      1  0.4231550000000  0.5774330000000  0.4798500000000 1.0
C      1  0.5508740000000  0.5353450000000  0.5909420000000 1.0
C      1  0.4942460000000  0.5388470000000  0.4323940000000 1.0
C      1  0.5034530000000  0.4900770000000  0.4243970000000 1.0
C      1  0.4660910000000  0.5203300000000  0.4934350000000 1.0
C      1  0.5914750000000  0.5634030000000  0.4567750000000 1.0
C      1  0.4415460000000  0.3982570000000  0.5022040000000 1.0
C      1  0.5375020000000  0.4563400000000  0.5195950000000 1.0
C      1  0.5556500000000  0.5046610000000  0.5246590000000 1.0
C      1  0.5242060000000  0.3854000000000  0.4862540000000 1.0
END
