TITL C-951346-9544-247 1.17152950373147e-07 125000 -629.593666007637 0 0 103 (C1) n - 1
REM
REM in /home/bkarasulu/work/CARBON/AIRSS/Generating-Clusters/EDIP-Nigel-Params/with-SteepDescent/Only-C1/SD-CG/HFTN-CG
REM
REM
REM
REM
REM
REM ./C.cell (11c1c37f851c82e70ff6c80c92926a4b)
REM
REM compiler GCC version 9.2.1 20190827 (Red Hat 9.2.1-1)
REM options -cpp -mtune=generic -march=x86-64 -g -O0 -fpre-include=/usr/include/finclude/math-vector-fortran.h
REM seed 1857902979 1562211369 1225087613 -829808048 1426985756 -978687829 376131573 -730217478 -1048479269 -852230962 1850275783 978444011 -443923174 -1520360304 679247825 -851588631 -193647240 614676405 -1449253028 -620746968 1348130026 132820051 -79066096 794243635 -515695499 504373129 -1495001260 -319116845 -1884905140 1211954132 -1920279056 -36777649 -1729854939
REM
CELL 1.54180   50.00000   50.00000   50.00000   90.00000   90.00000   90.00000
LATT -1
SFAC C  
C      1  0.4686780000000  0.5688380000000  0.5080800000000 1.0
C      1  0.4595670000000  0.5770810000000  0.5342340000000 1.0
C      1  0.5548800000000  0.5659400000000  0.5053800000000 1.0
C      1  0.4835120000000  0.5156590000000  0.4648240000000 1.0
C      1  0.5764690000000  0.5104470000000  0.4605000000000 1.0
C      1  0.5767990000000  0.5241190000000  0.4862240000000 1.0
C      1  0.4541490000000  0.4851710000000  0.5765460000000 1.0
C      1  0.4727970000000  0.4766630000000  0.4250240000000 1.0
C      1  0.5298240000000  0.5809880000000  0.5004610000000 1.0
C      1  0.4283230000000  0.5586350000000  0.4752120000000 1.0
C      1  0.5195990000000  0.5791260000000  0.4733050000000 1.0
C      1  0.5733160000000  0.5315540000000  0.4389150000000 1.0
C      1  0.4393980000000  0.5087970000000  0.5668850000000 1.0
C      1  0.5530230000000  0.5531390000000  0.5319160000000 1.0
C      1  0.4854830000000  0.5025400000000  0.4189720000000 1.0
C      1  0.5236360000000  0.4475000000000  0.4560770000000 1.0
C      1  0.4343000000000  0.4951040000000  0.4546100000000 1.0
C      1  0.4064650000000  0.5269560000000  0.4796070000000 1.0
C      1  0.4606070000000  0.4412300000000  0.5583310000000 1.0
C      1  0.5936460000000  0.5520510000000  0.4405100000000 1.0
C      1  0.4776940000000  0.4570690000000  0.4052350000000 1.0
C      1  0.4989890000000  0.4708070000000  0.4973770000000 1.0
C      1  0.4731620000000  0.4349410000000  0.4634660000000 1.0
C      1  0.4453790000000  0.4589570000000  0.5733300000000 1.0
C      1  0.5297880000000  0.4726820000000  0.5844190000000 1.0
C      1  0.5038060000000  0.4696240000000  0.4671340000000 1.0
C      1  0.4928590000000  0.4378380000000  0.4188480000000 1.0
C      1  0.4655490000000  0.5296240000000  0.5474460000000 1.0
C      1  0.4947050000000  0.4342420000000  0.5314990000000 1.0
C      1  0.5359510000000  0.5092470000000  0.4785090000000 1.0
C      1  0.4872440000000  0.5178860000000  0.5890400000000 1.0
C      1  0.4755510000000  0.4677980000000  0.4550530000000 1.0
C      1  0.5546030000000  0.4702950000000  0.5051470000000 1.0
C      1  0.4326130000000  0.4867580000000  0.5179520000000 1.0
C      1  0.4271550000000  0.5380850000000  0.4957570000000 1.0
C      1  0.5451450000000  0.5423540000000  0.4409460000000 1.0
C      1  0.5468410000000  0.4979250000000  0.5138750000000 1.0
C      1  0.5066350000000  0.4798810000000  0.5438440000000 1.0
C      1  0.4564910000000  0.4837240000000  0.4982620000000 1.0
C      1  0.5717180000000  0.5083140000000  0.5271100000000 1.0
C      1  0.5419510000000  0.4994580000000  0.5836240000000 1.0
C      1  0.4940290000000  0.5536830000000  0.5138860000000 1.0
C      1  0.4212760000000  0.4697810000000  0.4494640000000 1.0
C      1  0.4805990000000  0.5636150000000  0.5775790000000 1.0
C      1  0.4996420000000  0.5707100000000  0.4537650000000 1.0
C      1  0.5569040000000  0.4783670000000  0.4292510000000 1.0
C      1  0.5312050000000  0.4756170000000  0.4179840000000 1.0
C      1  0.4285780000000  0.5095560000000  0.5376890000000 1.0
C      1  0.4283680000000  0.5366630000000  0.5252570000000 1.0
C      1  0.4491170000000  0.4303020000000  0.4818110000000 1.0
C      1  0.5514530000000  0.4430400000000  0.5483980000000 1.0
C      1  0.5765050000000  0.4327850000000  0.5452510000000 1.0
C      1  0.5788070000000  0.5643510000000  0.4600460000000 1.0
C      1  0.4778270000000  0.4220980000000  0.4375820000000 1.0
C      1  0.4519180000000  0.5402280000000  0.4352360000000 1.0
C      1  0.4104720000000  0.4568730000000  0.4715080000000 1.0
C      1  0.5121630000000  0.5759310000000  0.5266340000000 1.0
C      1  0.5375200000000  0.5187900000000  0.5611350000000 1.0
C      1  0.5150520000000  0.5007740000000  0.4277240000000 1.0
C      1  0.5317710000000  0.5649760000000  0.5470120000000 1.0
C      1  0.5001020000000  0.5473030000000  0.4336400000000 1.0
C      1  0.5026790000000  0.5416170000000  0.4860480000000 1.0
C      1  0.4331170000000  0.4537750000000  0.4887920000000 1.0
C      1  0.5114050000000  0.4975060000000  0.4580820000000 1.0
C      1  0.5186430000000  0.5069270000000  0.5387600000000 1.0
C      1  0.4583390000000  0.4232930000000  0.5091330000000 1.0
C      1  0.4398380000000  0.5577080000000  0.5419110000000 1.0
C      1  0.4832440000000  0.5776240000000  0.5515340000000 1.0
C      1  0.5602290000000  0.4378230000000  0.4680870000000 1.0
C      1  0.4664830000000  0.5353760000000  0.5772670000000 1.0
C      1  0.5383040000000  0.5405340000000  0.4699020000000 1.0
C      1  0.4923140000000  0.4975220000000  0.5040320000000 1.0
C      1  0.5107130000000  0.4587810000000  0.5227860000000 1.0
C      1  0.4701780000000  0.5891290000000  0.4884590000000 1.0
C      1  0.5399470000000  0.4508860000000  0.5212080000000 1.0
C      1  0.5202310000000  0.4483910000000  0.4267100000000 1.0
C      1  0.4867670000000  0.4165120000000  0.5079790000000 1.0
C      1  0.5167860000000  0.4115200000000  0.4690330000000 1.0
C      1  0.4500970000000  0.5590540000000  0.4562240000000 1.0
C      1  0.5913930000000  0.5171230000000  0.5091710000000 1.0
C      1  0.5129920000000  0.5170610000000  0.4974740000000 1.0
C      1  0.5070330000000  0.4200760000000  0.5557310000000 1.0
C      1  0.5055420000000  0.5516860000000  0.5881780000000 1.0
C      1  0.4097080000000  0.5018890000000  0.4680810000000 1.0
C      1  0.5524070000000  0.4660320000000  0.5673160000000 1.0
C      1  0.4890950000000  0.4409500000000  0.5694780000000 1.0
C      1  0.4727630000000  0.5751220000000  0.4643690000000 1.0
C      1  0.5622600000000  0.5281330000000  0.5458230000000 1.0
C      1  0.5436360000000  0.4164760000000  0.4735170000000 1.0
C      1  0.4817650000000  0.4897620000000  0.5847470000000 1.0
C      1  0.5257590000000  0.5457830000000  0.5685180000000 1.0
C      1  0.5342660000000  0.4229730000000  0.5591920000000 1.0
C      1  0.5641490000000  0.4845610000000  0.4556370000000 1.0
C      1  0.5239670000000  0.5314790000000  0.4244650000000 1.0
C      1  0.5642520000000  0.5504300000000  0.4817550000000 1.0
C      1  0.5586010000000  0.4647660000000  0.4764410000000 1.0
C      1  0.4779970000000  0.5273430000000  0.4369240000000 1.0
C      1  0.5019860000000  0.4707380000000  0.5718110000000 1.0
C      1  0.4283080000000  0.4590350000000  0.5262290000000 1.0
C      1  0.4607900000000  0.4917370000000  0.4690880000000 1.0
C      1  0.4926110000000  0.5295890000000  0.5341640000000 1.0
C      1  0.4523810000000  0.4434030000000  0.5300900000000 1.0
C      1  0.4954180000000  0.4253860000000  0.4815190000000 1.0
END
