TITL C-950528-5794-639 -4.50525778765252e-06 125000 -1149.64516662686 0 0 181 (C1) n - 1
REM
REM in /home/bkarasulu/work/CARBON/AIRSS/Generating-Clusters/EDIP-Nigel-Params/with-SteepDescent/Only-C1/SD-CG/HFTN-CG
REM
REM
REM
REM
REM
REM ./C.cell (11c1c37f851c82e70ff6c80c92926a4b)
REM
REM compiler GCC version 9.2.1 20190827 (Red Hat 9.2.1-1)
REM options -cpp -mtune=generic -march=x86-64 -g -O0 -fpre-include=/usr/include/finclude/math-vector-fortran.h
REM seed -739268879 986712842 -1204710165 -944005192 -1944931707 1917089608 1263044852 1446911276 -941612069 637826143 176606924 -247550866 726851061 390288954 14440941 -1548855152 2035108155 1061417382 2069725785 1451500866 1241482463 1606514652 1129120106 -746319489 -1747835618 815482520 -1541922604 -1201137587 2058221170 1261390115 2023638603 1487891667 -667068969
REM
CELL 1.54180   50.00000   50.00000   50.00000   90.00000   90.00000   90.00000
LATT -1
SFAC C  
C      1  0.4735120000000  0.4771010000000  0.4521280000000 1.0
C      1  0.5500500000000  0.5003150000000  0.5213660000000 1.0
C      1  0.5044190000000  0.5036570000000  0.6120860000000 1.0
C      1  0.5687050000000  0.5458720000000  0.4194800000000 1.0
C      1  0.4924810000000  0.5430430000000  0.4451820000000 1.0
C      1  0.4836570000000  0.4151790000000  0.4449200000000 1.0
C      1  0.4498710000000  0.5402300000000  0.4654910000000 1.0
C      1  0.4160660000000  0.4831250000000  0.5132590000000 1.0
C      1  0.5139740000000  0.5315090000000  0.3880870000000 1.0
C      1  0.4357690000000  0.5670430000000  0.4105090000000 1.0
C      1  0.4188960000000  0.5700470000000  0.4348600000000 1.0
C      1  0.4652990000000  0.3988840000000  0.5373540000000 1.0
C      1  0.5230790000000  0.4591560000000  0.5292340000000 1.0
C      1  0.4741120000000  0.5299680000000  0.5548930000000 1.0
C      1  0.5668950000000  0.4096130000000  0.4912880000000 1.0
C      1  0.5852830000000  0.5422320000000  0.4670070000000 1.0
C      1  0.4404540000000  0.5923820000000  0.5425340000000 1.0
C      1  0.4115150000000  0.5004130000000  0.5815250000000 1.0
C      1  0.4767060000000  0.4450740000000  0.5278700000000 1.0
C      1  0.4621100000000  0.4519080000000  0.4630650000000 1.0
C      1  0.5184490000000  0.5241780000000  0.5926580000000 1.0
C      1  0.4355700000000  0.4029570000000  0.4667300000000 1.0
C      1  0.5067500000000  0.5885050000000  0.4272010000000 1.0
C      1  0.4887570000000  0.5028170000000  0.5102940000000 1.0
C      1  0.5068850000000  0.3968270000000  0.4449520000000 1.0
C      1  0.4299510000000  0.4357510000000  0.5335520000000 1.0
C      1  0.4894180000000  0.5574550000000  0.6171710000000 1.0
C      1  0.4516240000000  0.5761270000000  0.5027620000000 1.0
C      1  0.4583530000000  0.5934030000000  0.4383470000000 1.0
C      1  0.4897170000000  0.5589200000000  0.4692610000000 1.0
C      1  0.4983130000000  0.4588910000000  0.5474250000000 1.0
C      1  0.5728570000000  0.5706080000000  0.5365590000000 1.0
C      1  0.5363610000000  0.5405010000000  0.4612140000000 1.0
C      1  0.4985090000000  0.6093320000000  0.5028300000000 1.0
C      1  0.4464810000000  0.5422550000000  0.5969450000000 1.0
C      1  0.5514080000000  0.4493850000000  0.4198200000000 1.0
C      1  0.5136930000000  0.5794280000000  0.4742140000000 1.0
C      1  0.5925970000000  0.4685230000000  0.4535850000000 1.0
C      1  0.4342370000000  0.5856220000000  0.4550890000000 1.0
C      1  0.5039690000000  0.5581400000000  0.4213100000000 1.0
C      1  0.5050680000000  0.4424290000000  0.4064640000000 1.0
C      1  0.4196420000000  0.5417610000000  0.4449550000000 1.0
C      1  0.4955990000000  0.4323800000000  0.4975210000000 1.0
C      1  0.3993110000000  0.4762260000000  0.5372180000000 1.0
C      1  0.5526910000000  0.4262710000000  0.4367610000000 1.0
C      1  0.4696550000000  0.5026990000000  0.5675910000000 1.0
C      1  0.5338870000000  0.5144660000000  0.5423750000000 1.0
C      1  0.4140600000000  0.4847850000000  0.4596320000000 1.0
C      1  0.4735370000000  0.6151740000000  0.5188720000000 1.0
C      1  0.4471770000000  0.4566990000000  0.4872130000000 1.0
C      1  0.4726510000000  0.5595450000000  0.5181910000000 1.0
C      1  0.4658200000000  0.4715980000000  0.6031850000000 1.0
C      1  0.5599040000000  0.4980520000000  0.4512800000000 1.0
C      1  0.4445700000000  0.4380770000000  0.4419180000000 1.0
C      1  0.4943250000000  0.4320310000000  0.5754420000000 1.0
C      1  0.4463150000000  0.5165280000000  0.4825480000000 1.0
C      1  0.5888680000000  0.4965000000000  0.5211210000000 1.0
C      1  0.4005800000000  0.5296250000000  0.5433730000000 1.0
C      1  0.5232480000000  0.5032410000000  0.5693150000000 1.0
C      1  0.5440420000000  0.4842850000000  0.5817950000000 1.0
C      1  0.4897150000000  0.4772960000000  0.4973290000000 1.0
C      1  0.4561080000000  0.5864940000000  0.4109090000000 1.0
C      1  0.4151320000000  0.4232240000000  0.4611470000000 1.0
C      1  0.4332970000000  0.5692740000000  0.5594770000000 1.0
C      1  0.5352180000000  0.4558980000000  0.5828490000000 1.0
C      1  0.5969950000000  0.4694520000000  0.5340850000000 1.0
C      1  0.4662870000000  0.5271630000000  0.3932230000000 1.0
C      1  0.5525160000000  0.5594700000000  0.5560610000000 1.0
C      1  0.6058290000000  0.5228420000000  0.4598310000000 1.0
C      1  0.5513900000000  0.4319390000000  0.5773810000000 1.0
C      1  0.4352850000000  0.5659690000000  0.4801290000000 1.0
C      1  0.4859840000000  0.5766430000000  0.5444730000000 1.0
C      1  0.5113630000000  0.4565560000000  0.5028500000000 1.0
C      1  0.5090370000000  0.4122190000000  0.5584040000000 1.0
C      1  0.5697350000000  0.4720470000000  0.4236940000000 1.0
C      1  0.5336170000000  0.5808850000000  0.5648690000000 1.0
C      1  0.5358230000000  0.5432310000000  0.5372790000000 1.0
C      1  0.4487790000000  0.6044470000000  0.5067820000000 1.0
C      1  0.4043120000000  0.5073890000000  0.5023330000000 1.0
C      1  0.5016740000000  0.5530220000000  0.5912910000000 1.0
C      1  0.4135750000000  0.5465070000000  0.5636050000000 1.0
C      1  0.5713190000000  0.3968360000000  0.4654490000000 1.0
C      1  0.5370590000000  0.5098350000000  0.4951970000000 1.0
C      1  0.5908970000000  0.5224270000000  0.5365760000000 1.0
C      1  0.5318470000000  0.5443500000000  0.4102930000000 1.0
C      1  0.5192320000000  0.5006290000000  0.4341080000000 1.0
C      1  0.4574690000000  0.4994790000000  0.6004960000000 1.0
C      1  0.4599890000000  0.5123740000000  0.5107140000000 1.0
C      1  0.4421850000000  0.4048960000000  0.4953720000000 1.0
C      1  0.5458800000000  0.5321140000000  0.5982780000000 1.0
C      1  0.4072050000000  0.5331650000000  0.5148220000000 1.0
C      1  0.4952380000000  0.4763820000000  0.5962320000000 1.0
C      1  0.5634600000000  0.5400570000000  0.5773730000000 1.0
C      1  0.5178170000000  0.4829630000000  0.4570540000000 1.0
C      1  0.4532250000000  0.5655040000000  0.5806600000000 1.0
C      1  0.5415000000000  0.5548690000000  0.5093020000000 1.0
C      1  0.4215250000000  0.4216280000000  0.5085890000000 1.0
C      1  0.4967120000000  0.6137360000000  0.4728830000000 1.0
C      1  0.5347990000000  0.4024720000000  0.4355240000000 1.0
C      1  0.5345740000000  0.5903890000000  0.4340590000000 1.0
C      1  0.4168020000000  0.5100510000000  0.4765970000000 1.0
C      1  0.5413820000000  0.4874520000000  0.4742010000000 1.0
C      1  0.5268680000000  0.4589630000000  0.4089930000000 1.0
C      1  0.5605410000000  0.4959080000000  0.4070910000000 1.0
C      1  0.5609680000000  0.4611720000000  0.4951780000000 1.0
C      1  0.5795810000000  0.5598690000000  0.4436720000000 1.0
C      1  0.5548410000000  0.4106240000000  0.5359920000000 1.0
C      1  0.4072860000000  0.4368330000000  0.4862650000000 1.0
C      1  0.5708800000000  0.4891740000000  0.5711190000000 1.0
C      1  0.5568340000000  0.5829670000000  0.5126140000000 1.0
C      1  0.5074780000000  0.5205050000000  0.4994820000000 1.0
C      1  0.6189890000000  0.5129610000000  0.4822070000000 1.0
C      1  0.5833450000000  0.4789450000000  0.4804250000000 1.0
C      1  0.4413720000000  0.5374860000000  0.4064220000000 1.0
C      1  0.4666170000000  0.5305250000000  0.4420560000000 1.0
C      1  0.5854540000000  0.5482910000000  0.5215740000000 1.0
C      1  0.4641710000000  0.4331250000000  0.5724050000000 1.0
C      1  0.5204090000000  0.5740030000000  0.5879680000000 1.0
C      1  0.4189600000000  0.4650300000000  0.4859270000000 1.0
C      1  0.4882000000000  0.5460420000000  0.3897630000000 1.0
C      1  0.5410560000000  0.5204140000000  0.4396490000000 1.0
C      1  0.5514610000000  0.4699090000000  0.5251990000000 1.0
C      1  0.5787700000000  0.5177820000000  0.4167880000000 1.0
C      1  0.4308060000000  0.4722740000000  0.5687850000000 1.0
C      1  0.5809710000000  0.4364510000000  0.4933200000000 1.0
C      1  0.3972930000000  0.5014790000000  0.5550490000000 1.0
C      1  0.4929570000000  0.4862300000000  0.4693890000000 1.0
C      1  0.4632540000000  0.4661020000000  0.5093280000000 1.0
C      1  0.5510770000000  0.5352140000000  0.4862650000000 1.0
C      1  0.5938120000000  0.4394290000000  0.4641710000000 1.0
C      1  0.5383030000000  0.4113640000000  0.5599220000000 1.0
C      1  0.4572470000000  0.4271890000000  0.5436680000000 1.0
C      1  0.4797050000000  0.5564670000000  0.5686060000000 1.0
C      1  0.5642910000000  0.5817380000000  0.4580010000000 1.0
C      1  0.5163400000000  0.5689130000000  0.5030540000000 1.0
C      1  0.4573820000000  0.5002090000000  0.4436920000000 1.0
C      1  0.5247960000000  0.3776270000000  0.4725870000000 1.0
C      1  0.4942800000000  0.5483960000000  0.4987950000000 1.0
C      1  0.4564230000000  0.4019060000000  0.4459570000000 1.0
C      1  0.4579080000000  0.4484170000000  0.4161870000000 1.0
C      1  0.5249230000000  0.3847010000000  0.5005880000000 1.0
C      1  0.5960040000000  0.4401470000000  0.5204600000000 1.0
C      1  0.4608670000000  0.5351970000000  0.5297030000000 1.0
C      1  0.4681630000000  0.5392710000000  0.6171640000000 1.0
C      1  0.5791560000000  0.4192280000000  0.4474130000000 1.0
C      1  0.4864160000000  0.6003070000000  0.4470280000000 1.0
C      1  0.4938310000000  0.3941610000000  0.5409080000000 1.0
C      1  0.5815200000000  0.4225830000000  0.5408690000000 1.0
C      1  0.5483750000000  0.3991550000000  0.5104250000000 1.0
C      1  0.4292530000000  0.4934770000000  0.4329570000000 1.0
C      1  0.4963630000000  0.4860170000000  0.5669410000000 1.0
C      1  0.5736390000000  0.4664890000000  0.5515470000000 1.0
C      1  0.5279470000000  0.4889640000000  0.4082830000000 1.0
C      1  0.5149150000000  0.5874610000000  0.5430740000000 1.0
C      1  0.4213270000000  0.5209270000000  0.4225180000000 1.0
C      1  0.5354750000000  0.5705070000000  0.4561390000000 1.0
C      1  0.4759830000000  0.5115850000000  0.6198350000000 1.0
C      1  0.5961500000000  0.5045640000000  0.4387980000000 1.0
C      1  0.6010790000000  0.4958930000000  0.4948650000000 1.0
C      1  0.4848970000000  0.4333190000000  0.4696190000000 1.0
C      1  0.4497080000000  0.4875110000000  0.5519900000000 1.0
C      1  0.5774260000000  0.5177420000000  0.5631840000000 1.0
C      1  0.4142750000000  0.4545940000000  0.5505350000000 1.0
C      1  0.4075770000000  0.5534040000000  0.4912770000000 1.0
C      1  0.4213020000000  0.5289820000000  0.5859960000000 1.0
C      1  0.5743220000000  0.5824420000000  0.4876290000000 1.0
C      1  0.5889300000000  0.5572810000000  0.4927940000000 1.0
C      1  0.5069310000000  0.5025280000000  0.3912670000000 1.0
C      1  0.4997350000000  0.3826860000000  0.5147420000000 1.0
C      1  0.5240770000000  0.6034150000000  0.5194440000000 1.0
C      1  0.4766700000000  0.4996280000000  0.3966860000000 1.0
C      1  0.4828940000000  0.4332540000000  0.4199150000000 1.0
C      1  0.5475140000000  0.3823250000000  0.4538800000000 1.0
C      1  0.4685360000000  0.6008030000000  0.5454860000000 1.0
C      1  0.4492810000000  0.4548500000000  0.5858600000000 1.0
C      1  0.4021210000000  0.5352740000000  0.4677090000000 1.0
C      1  0.5767790000000  0.4394940000000  0.5645240000000 1.0
C      1  0.4622900000000  0.3899660000000  0.5099750000000 1.0
C      1  0.4462090000000  0.4879830000000  0.5227700000000 1.0
C      1  0.4573810000000  0.4791030000000  0.4111450000000 1.0
C      1  0.5093450000000  0.4505210000000  0.5938910000000 1.0
END
