TITL C-950531-5884-267 9.52631022913305e-07 125000 -190.46755851916 0 0 32 (C1) n - 1
REM
REM in /home/bkarasulu/work/CARBON/AIRSS/Generating-Clusters/EDIP-Nigel-Params/with-SteepDescent/Only-C1/SD-CG/HFTN-CG
REM
REM
REM
REM
REM
REM ./C.cell (11c1c37f851c82e70ff6c80c92926a4b)
REM
REM compiler GCC version 9.2.1 20190827 (Red Hat 9.2.1-1)
REM options -cpp -mtune=generic -march=x86-64 -g -O0 -fpre-include=/usr/include/finclude/math-vector-fortran.h
REM seed -1605081979 -1370056690 -1616016104 -1954649949 -1307095117 1337186061 -246859385 -668481328 288925475 -29549701 -879062854 -1033038515 -1439503345 499796404 -1055552056 1324898691 1839739708 1179301712 -1461064101 438528372 -139930998 1392560689 -823351188 1155085715 -882839566 -263466150 -1859305140 -2129500086 1797895956 -1477993441 -1337418684 -1880984928 1159959228
REM
CELL 1.54180   50.00000   50.00000   50.00000   90.00000   90.00000   90.00000
LATT -1
SFAC C  
C      1  0.4635050000000  0.4748730000000  0.5075220000000 1.0
C      1  0.4551300000000  0.4904630000000  0.4589140000000 1.0
C      1  0.4925810000000  0.4540150000000  0.5165490000000 1.0
C      1  0.5082270000000  0.4596710000000  0.5406180000000 1.0
C      1  0.5117650000000  0.5247620000000  0.5380100000000 1.0
C      1  0.4908730000000  0.5036160000000  0.5415070000000 1.0
C      1  0.5367100000000  0.4542830000000  0.4896370000000 1.0
C      1  0.4778400000000  0.5338440000000  0.4484070000000 1.0
C      1  0.5390030000000  0.5167860000000  0.5287200000000 1.0
C      1  0.4921800000000  0.5452540000000  0.4693170000000 1.0
C      1  0.4773610000000  0.5460580000000  0.5040250000000 1.0
C      1  0.5513890000000  0.4969670000000  0.4731670000000 1.0
C      1  0.5510320000000  0.5367860000000  0.5126870000000 1.0
C      1  0.5348980000000  0.4666780000000  0.5357330000000 1.0
C      1  0.5495190000000  0.4893310000000  0.5275590000000 1.0
C      1  0.4349650000000  0.4820600000000  0.5114990000000 1.0
C      1  0.4120490000000  0.5231330000000  0.5027140000000 1.0
C      1  0.5087860000000  0.4550400000000  0.4921180000000 1.0
C      1  0.4767390000000  0.5008020000000  0.5161540000000 1.0
C      1  0.5586580000000  0.4706680000000  0.4833370000000 1.0
C      1  0.5037260000000  0.5474320000000  0.5185940000000 1.0
C      1  0.4778870000000  0.5063900000000  0.4535470000000 1.0
C      1  0.5245730000000  0.5074520000000  0.4723680000000 1.0
C      1  0.5196640000000  0.5367030000000  0.4743300000000 1.0
C      1  0.4939950000000  0.4662400000000  0.4695890000000 1.0
C      1  0.5030400000000  0.4926380000000  0.4588000000000 1.0
C      1  0.4656450000000  0.4707400000000  0.4768040000000 1.0
C      1  0.4347580000000  0.5097010000000  0.5046400000000 1.0
C      1  0.5282190000000  0.5491530000000  0.5003540000000 1.0
C      1  0.5684750000000  0.4851880000000  0.5063850000000 1.0
C      1  0.4967240000000  0.4799330000000  0.5558440000000 1.0
C      1  0.4600850000000  0.5233410000000  0.5105520000000 1.0
END
