TITL C-950528-5794-702 -3.04773108408424e-06 125000 -803.243483660518 0 0 130 (C1) n - 1
REM
REM in /home/bkarasulu/work/CARBON/AIRSS/Generating-Clusters/EDIP-Nigel-Params/with-SteepDescent/Only-C1/SD-CG/HFTN-CG
REM
REM
REM
REM
REM
REM ./C.cell (11c1c37f851c82e70ff6c80c92926a4b)
REM
REM compiler GCC version 9.2.1 20190827 (Red Hat 9.2.1-1)
REM options -cpp -mtune=generic -march=x86-64 -g -O0 -fpre-include=/usr/include/finclude/math-vector-fortran.h
REM seed -1551497150 -1725313654 1816359207 1150050787 675396697 -811562487 -1516255491 1869983367 1260357107 266735964 918277586 1689988834 -1454305125 -1993207504 -758414179 -1854473436 -2027296724 1998158816 -1166274412 -535332899 339006743 620819419 717856676 -502279771 650154776 303615963 -1124377729 -1132226426 1806621142 508202260 -2040419415 -1543884896 -2099900307
REM
CELL 1.54180   50.00000   50.00000   50.00000   90.00000   90.00000   90.00000
LATT -1
SFAC C  
C      1  0.5448110000000  0.4383840000000  0.5705000000000 1.0
C      1  0.5805880000000  0.4818740000000  0.4820620000000 1.0
C      1  0.5397950000000  0.4979490000000  0.5906100000000 1.0
C      1  0.4231640000000  0.4590590000000  0.5536470000000 1.0
C      1  0.4030730000000  0.4585040000000  0.4905480000000 1.0
C      1  0.5597920000000  0.5323150000000  0.4170910000000 1.0
C      1  0.5140930000000  0.5306140000000  0.6061160000000 1.0
C      1  0.4315770000000  0.4827160000000  0.5663050000000 1.0
C      1  0.4895020000000  0.5435770000000  0.5240860000000 1.0
C      1  0.4855030000000  0.3988940000000  0.5189070000000 1.0
C      1  0.4781420000000  0.4862670000000  0.5532480000000 1.0
C      1  0.5397210000000  0.4931010000000  0.5077600000000 1.0
C      1  0.4694080000000  0.4570900000000  0.5452400000000 1.0
C      1  0.5313520000000  0.5876180000000  0.4609410000000 1.0
C      1  0.5011610000000  0.6038400000000  0.5204310000000 1.0
C      1  0.5602210000000  0.4885510000000  0.5711520000000 1.0
C      1  0.4047360000000  0.5268940000000  0.5123590000000 1.0
C      1  0.5489980000000  0.4154000000000  0.5552490000000 1.0
C      1  0.5731350000000  0.4751630000000  0.4332550000000 1.0
C      1  0.4608060000000  0.4878160000000  0.5787390000000 1.0
C      1  0.4880890000000  0.5499510000000  0.4751270000000 1.0
C      1  0.5336070000000  0.4646430000000  0.5121470000000 1.0
C      1  0.5420690000000  0.5067130000000  0.5351630000000 1.0
C      1  0.4893440000000  0.4533440000000  0.5255180000000 1.0
C      1  0.4405750000000  0.5834140000000  0.4926770000000 1.0
C      1  0.4913470000000  0.5347880000000  0.5902850000000 1.0
C      1  0.4683220000000  0.5061980000000  0.5346260000000 1.0
C      1  0.5401110000000  0.5234190000000  0.6029080000000 1.0
C      1  0.5595370000000  0.4465710000000  0.5118280000000 1.0
C      1  0.4396530000000  0.5117800000000  0.4206250000000 1.0
C      1  0.4651350000000  0.4400910000000  0.4307570000000 1.0
C      1  0.4801510000000  0.4880400000000  0.4066430000000 1.0
C      1  0.5607810000000  0.4450130000000  0.4634780000000 1.0
C      1  0.5819860000000  0.4877650000000  0.5319710000000 1.0
C      1  0.4642380000000  0.4961650000000  0.5071670000000 1.0
C      1  0.4537690000000  0.4650720000000  0.4391200000000 1.0
C      1  0.5518000000000  0.4910700000000  0.4792510000000 1.0
C      1  0.4736340000000  0.5123010000000  0.4481970000000 1.0
C      1  0.5160190000000  0.4456430000000  0.5680510000000 1.0
C      1  0.5099030000000  0.5930790000000  0.4932500000000 1.0
C      1  0.5033310000000  0.4131030000000  0.5376770000000 1.0
C      1  0.4384760000000  0.4273620000000  0.5169990000000 1.0
C      1  0.5815500000000  0.5193560000000  0.4529390000000 1.0
C      1  0.4748090000000  0.4610430000000  0.5897730000000 1.0
C      1  0.5155820000000  0.4617190000000  0.5377550000000 1.0
C      1  0.4247380000000  0.5181570000000  0.4461220000000 1.0
C      1  0.5008730000000  0.5338410000000  0.4975740000000 1.0
C      1  0.5846070000000  0.5711430000000  0.5010390000000 1.0
C      1  0.4223610000000  0.5049540000000  0.5492540000000 1.0
C      1  0.4496360000000  0.5352390000000  0.5720460000000 1.0
C      1  0.5606280000000  0.5572510000000  0.5353080000000 1.0
C      1  0.4840300000000  0.5789990000000  0.4841460000000 1.0
C      1  0.5503940000000  0.5568880000000  0.4275190000000 1.0
C      1  0.5583350000000  0.5806760000000  0.5144920000000 1.0
C      1  0.4649380000000  0.4153820000000  0.5031850000000 1.0
C      1  0.4312190000000  0.5361750000000  0.5045740000000 1.0
C      1  0.4088320000000  0.4697210000000  0.4619080000000 1.0
C      1  0.5761370000000  0.4520440000000  0.4871400000000 1.0
C      1  0.4982930000000  0.4812420000000  0.4291320000000 1.0
C      1  0.5131990000000  0.4904890000000  0.5801350000000 1.0
C      1  0.5131250000000  0.5830280000000  0.4371550000000 1.0
C      1  0.4806020000000  0.4412120000000  0.4991020000000 1.0
C      1  0.5527510000000  0.5643730000000  0.4576480000000 1.0
C      1  0.5749830000000  0.4474560000000  0.4393200000000 1.0
C      1  0.5409890000000  0.4206290000000  0.5082210000000 1.0
C      1  0.4547540000000  0.5815150000000  0.5170840000000 1.0
C      1  0.5181370000000  0.4583420000000  0.4869020000000 1.0
C      1  0.5754200000000  0.5055570000000  0.5539530000000 1.0
C      1  0.5583260000000  0.4618130000000  0.5595670000000 1.0
C      1  0.4160120000000  0.4853730000000  0.5014800000000 1.0
C      1  0.5037460000000  0.3905080000000  0.4979600000000 1.0
C      1  0.5813480000000  0.5270160000000  0.5018530000000 1.0
C      1  0.5324270000000  0.4086020000000  0.5335120000000 1.0
C      1  0.4044500000000  0.5011780000000  0.5252550000000 1.0
C      1  0.5118800000000  0.5446630000000  0.5432540000000 1.0
C      1  0.4454140000000  0.5238190000000  0.5441650000000 1.0
C      1  0.4518230000000  0.5188470000000  0.4926900000000 1.0
C      1  0.4517010000000  0.4559240000000  0.4871140000000 1.0
C      1  0.4614490000000  0.5544070000000  0.5310840000000 1.0
C      1  0.4886180000000  0.5614340000000  0.5773690000000 1.0
C      1  0.5200810000000  0.5555180000000  0.4258520000000 1.0
C      1  0.5152510000000  0.4906950000000  0.5493670000000 1.0
C      1  0.4423610000000  0.4543770000000  0.5324150000000 1.0
C      1  0.5741680000000  0.4589910000000  0.5356350000000 1.0
C      1  0.5139680000000  0.5261550000000  0.4119470000000 1.0
C      1  0.4507590000000  0.4840740000000  0.4149730000000 1.0
C      1  0.5381090000000  0.4655900000000  0.4646980000000 1.0
C      1  0.4871830000000  0.4824970000000  0.4872740000000 1.0
C      1  0.4441980000000  0.5818880000000  0.4646970000000 1.0
C      1  0.4683800000000  0.4087970000000  0.4716790000000 1.0
C      1  0.4625750000000  0.5325280000000  0.4687190000000 1.0
C      1  0.5345280000000  0.5739550000000  0.4972160000000 1.0
C      1  0.5811830000000  0.5482430000000  0.4784930000000 1.0
C      1  0.5230270000000  0.4665190000000  0.4240150000000 1.0
C      1  0.5454010000000  0.4854840000000  0.4258830000000 1.0
C      1  0.5045090000000  0.5117360000000  0.4527020000000 1.0
C      1  0.5122570000000  0.5691140000000  0.5598580000000 1.0
C      1  0.4170500000000  0.5486440000000  0.4825060000000 1.0
C      1  0.4665480000000  0.5180440000000  0.5890300000000 1.0
C      1  0.4715470000000  0.4384520000000  0.5693820000000 1.0
C      1  0.5544950000000  0.5160830000000  0.4633890000000 1.0
C      1  0.5862800000000  0.5475390000000  0.5222800000000 1.0
C      1  0.5891630000000  0.4988390000000  0.5055030000000 1.0
C      1  0.5126180000000  0.5412600000000  0.4535820000000 1.0
C      1  0.4429410000000  0.4749440000000  0.5087920000000 1.0
C      1  0.5054110000000  0.5056420000000  0.4829470000000 1.0
C      1  0.4945910000000  0.3940150000000  0.4712350000000 1.0
C      1  0.4623420000000  0.5297290000000  0.4161420000000 1.0
C      1  0.4708390000000  0.5921690000000  0.4613980000000 1.0
C      1  0.5299040000000  0.5434790000000  0.4992240000000 1.0
C      1  0.5057210000000  0.4220720000000  0.4485250000000 1.0
C      1  0.4725040000000  0.4815240000000  0.4583070000000 1.0
C      1  0.4200840000000  0.4347750000000  0.4954960000000 1.0
C      1  0.5385010000000  0.5398730000000  0.4691560000000 1.0
C      1  0.4734860000000  0.6018540000000  0.5205920000000 1.0
C      1  0.4132080000000  0.4985270000000  0.4651510000000 1.0
C      1  0.4354450000000  0.4568740000000  0.4602200000000 1.0
C      1  0.5249580000000  0.4410770000000  0.4379630000000 1.0
C      1  0.4785100000000  0.4305240000000  0.4533080000000 1.0
C      1  0.4859360000000  0.5167860000000  0.4058260000000 1.0
C      1  0.5046120000000  0.4639780000000  0.5892700000000 1.0
C      1  0.4624370000000  0.5602760000000  0.5624690000000 1.0
C      1  0.4967990000000  0.4223520000000  0.5652410000000 1.0
C      1  0.4862120000000  0.5889510000000  0.4386870000000 1.0
C      1  0.5112050000000  0.5923890000000  0.5437770000000 1.0
C      1  0.4352130000000  0.5451510000000  0.4587000000000 1.0
C      1  0.5377230000000  0.5375050000000  0.5295960000000 1.0
C      1  0.5404920000000  0.5119220000000  0.4127630000000 1.0
C      1  0.5158570000000  0.4262640000000  0.4903380000000 1.0
C      1  0.5898610000000  0.4911570000000  0.4533460000000 1.0
END
