TITL C-950530-3293-719 4.60051015467145e-08 125000 -472.984955750471 0 0 77 (C1) n - 1
REM
REM in /home/bkarasulu/work/CARBON/AIRSS/Generating-Clusters/EDIP-Nigel-Params/with-SteepDescent/Only-C1/SD-CG/HFTN-CG
REM
REM
REM
REM
REM
REM ./C.cell (11c1c37f851c82e70ff6c80c92926a4b)
REM
REM compiler GCC version 9.2.1 20190827 (Red Hat 9.2.1-1)
REM options -cpp -mtune=generic -march=x86-64 -g -O0 -fpre-include=/usr/include/finclude/math-vector-fortran.h
REM seed -1620608909 1376876278 -1663776517 -314870278 -1367961595 -1424706379 -128430377 478576948 -1807486248 1634702756 1544347257 701021548 1381201045 1895196282 1467739567 1005253630 -202038314 995686576 114491752 1607932954 838707323 -1139178010 -1275676987 -1490247487 -720976945 1896563143 1693559669 -615668766 -854310008 -772907516 1214878812 -583609409 1864065221
REM
CELL 1.54180   50.00000   50.00000   50.00000   90.00000   90.00000   90.00000
LATT -1
SFAC C  
C      1  0.4894450000000  0.5212020000000  0.4641370000000 1.0
C      1  0.5532200000000  0.5507440000000  0.5272030000000 1.0
C      1  0.4669650000000  0.5116160000000  0.5132850000000 1.0
C      1  0.4769730000000  0.5709750000000  0.4717890000000 1.0
C      1  0.4330060000000  0.4734620000000  0.5106380000000 1.0
C      1  0.4882020000000  0.5105360000000  0.5564220000000 1.0
C      1  0.4471020000000  0.4484290000000  0.5046280000000 1.0
C      1  0.4916690000000  0.4245570000000  0.5119970000000 1.0
C      1  0.4477430000000  0.4404490000000  0.4768170000000 1.0
C      1  0.5230290000000  0.5051140000000  0.4332170000000 1.0
C      1  0.5313120000000  0.4776540000000  0.4385570000000 1.0
C      1  0.5116690000000  0.4565680000000  0.4358370000000 1.0
C      1  0.4688970000000  0.4445860000000  0.5493950000000 1.0
C      1  0.4187100000000  0.4881060000000  0.4893620000000 1.0
C      1  0.4421050000000  0.5315520000000  0.4668110000000 1.0
C      1  0.5747290000000  0.4773130000000  0.5214310000000 1.0
C      1  0.4487980000000  0.4869980000000  0.5556800000000 1.0
C      1  0.5773640000000  0.5254100000000  0.4921730000000 1.0
C      1  0.5926120000000  0.5032750000000  0.4841410000000 1.0
C      1  0.4358310000000  0.5397350000000  0.5385200000000 1.0
C      1  0.5499220000000  0.4424010000000  0.4792440000000 1.0
C      1  0.4480670000000  0.5472010000000  0.4437710000000 1.0
C      1  0.4611600000000  0.4864940000000  0.4634470000000 1.0
C      1  0.5700960000000  0.5288360000000  0.5205650000000 1.0
C      1  0.5378670000000  0.4700610000000  0.5757210000000 1.0
C      1  0.5217420000000  0.5537840000000  0.4418180000000 1.0
C      1  0.4861180000000  0.4624760000000  0.5626600000000 1.0
C      1  0.5685600000000  0.5032590000000  0.5369430000000 1.0
C      1  0.4352450000000  0.5484300000000  0.4890780000000 1.0
C      1  0.4866470000000  0.4416070000000  0.4605170000000 1.0
C      1  0.5315440000000  0.4786950000000  0.5323050000000 1.0
C      1  0.5282530000000  0.5610110000000  0.5364040000000 1.0
C      1  0.4695070000000  0.4414140000000  0.5214560000000 1.0
C      1  0.4852400000000  0.4629240000000  0.4283280000000 1.0
C      1  0.4644160000000  0.5133100000000  0.4777320000000 1.0
C      1  0.4777250000000  0.4649360000000  0.4783010000000 1.0
C      1  0.5028480000000  0.5699860000000  0.5122190000000 1.0
C      1  0.5631420000000  0.5403900000000  0.4723250000000 1.0
C      1  0.4222910000000  0.5167110000000  0.5275640000000 1.0
C      1  0.5212290000000  0.5434050000000  0.5576600000000 1.0
C      1  0.5773890000000  0.4811080000000  0.4919870000000 1.0
C      1  0.5511760000000  0.4473030000000  0.5577560000000 1.0
C      1  0.4286310000000  0.4513760000000  0.4596310000000 1.0
C      1  0.5111940000000  0.4532550000000  0.5756380000000 1.0
C      1  0.5374730000000  0.4953240000000  0.5585580000000 1.0
C      1  0.5024550000000  0.4709660000000  0.5230840000000 1.0
C      1  0.5670780000000  0.4626380000000  0.4712300000000 1.0
C      1  0.5241200000000  0.4320980000000  0.5578220000000 1.0
C      1  0.5238130000000  0.4450090000000  0.4894420000000 1.0
C      1  0.5240480000000  0.4940460000000  0.4871770000000 1.0
C      1  0.5193350000000  0.5223330000000  0.5219470000000 1.0
C      1  0.5123720000000  0.4344570000000  0.5308590000000 1.0
C      1  0.5378450000000  0.5006290000000  0.5127420000000 1.0
C      1  0.4158020000000  0.5166750000000  0.4988630000000 1.0
C      1  0.4942150000000  0.5500220000000  0.4309840000000 1.0
C      1  0.5161400000000  0.5165630000000  0.5655600000000 1.0
C      1  0.4715760000000  0.5626140000000  0.4441820000000 1.0
C      1  0.4933980000000  0.5034880000000  0.5270500000000 1.0
C      1  0.4313210000000  0.4792610000000  0.4633470000000 1.0
C      1  0.5343910000000  0.5276900000000  0.4515390000000 1.0
C      1  0.5186660000000  0.5420570000000  0.4974980000000 1.0
C      1  0.4432500000000  0.4951260000000  0.5283500000000 1.0
C      1  0.5579360000000  0.4729130000000  0.4467540000000 1.0
C      1  0.4931250000000  0.5124620000000  0.4354200000000 1.0
C      1  0.4735590000000  0.4883580000000  0.4354800000000 1.0
C      1  0.4703840000000  0.5344190000000  0.5560460000000 1.0
C      1  0.5435090000000  0.5573880000000  0.4849160000000 1.0
C      1  0.5026670000000  0.5803910000000  0.4818680000000 1.0
C      1  0.4730790000000  0.5643670000000  0.5177590000000 1.0
C      1  0.4572190000000  0.5676980000000  0.4933220000000 1.0
C      1  0.4737180000000  0.4875470000000  0.5683570000000 1.0
C      1  0.5065260000000  0.4701700000000  0.4928960000000 1.0
C      1  0.5028100000000  0.4255310000000  0.4822760000000 1.0
C      1  0.5159600000000  0.5204580000000  0.4757240000000 1.0
C      1  0.5264840000000  0.5725210000000  0.4655740000000 1.0
C      1  0.5535820000000  0.4574440000000  0.5293550000000 1.0
C      1  0.4627550000000  0.5386800000000  0.5289140000000 1.0
END
