TITL C-950535-5962-61 -1.81961786978631e-06 125000 -1008.84156085857 0 0 162 (C1) n - 1
REM
REM in /home/bkarasulu/work/CARBON/AIRSS/Generating-Clusters/EDIP-Nigel-Params/with-SteepDescent/Only-C1/SD-CG/HFTN-CG
REM
REM
REM
REM
REM
REM ./C.cell (11c1c37f851c82e70ff6c80c92926a4b)
REM
REM compiler GCC version 9.2.1 20190827 (Red Hat 9.2.1-1)
REM options -cpp -mtune=generic -march=x86-64 -g -O0 -fpre-include=/usr/include/finclude/math-vector-fortran.h
REM seed -1768558630 1956261361 -819778594 -449969787 815642368 291550043 1940077504 1111552993 1089465670 1418534716 1352844509 753112327 1816669661 -1345429982 -144304831 -1882085762 -907209213 630727190 -780950073 178004332 -789220708 -800393675 -1743809865 979527267 -715573430 53678442 -1628924651 -4931700 943193170 -1749305730 -1497863215 178327074 -85161147
REM
CELL 1.54180   50.00000   50.00000   50.00000   90.00000   90.00000   90.00000
LATT -1
SFAC C  
C      1  0.4523210000000  0.4650820000000  0.4693580000000 1.0
C      1  0.3910950000000  0.5281830000000  0.4898800000000 1.0
C      1  0.5940230000000  0.5410320000000  0.5282040000000 1.0
C      1  0.4876880000000  0.4309660000000  0.5184350000000 1.0
C      1  0.4972080000000  0.4320300000000  0.4578610000000 1.0
C      1  0.4669800000000  0.4451860000000  0.5554740000000 1.0
C      1  0.5242340000000  0.4334550000000  0.4409920000000 1.0
C      1  0.4945460000000  0.5130670000000  0.4960740000000 1.0
C      1  0.4784840000000  0.5672330000000  0.4820320000000 1.0
C      1  0.5870670000000  0.4829570000000  0.4936860000000 1.0
C      1  0.4854420000000  0.6128170000000  0.4688040000000 1.0
C      1  0.4291330000000  0.4831210000000  0.4167600000000 1.0
C      1  0.5207490000000  0.5170860000000  0.4526160000000 1.0
C      1  0.4740760000000  0.4236870000000  0.4427640000000 1.0
C      1  0.5802470000000  0.5784120000000  0.5027420000000 1.0
C      1  0.5434920000000  0.4546200000000  0.4519160000000 1.0
C      1  0.5031990000000  0.4879570000000  0.5088000000000 1.0
C      1  0.4859100000000  0.5820420000000  0.5564970000000 1.0
C      1  0.5604130000000  0.5018570000000  0.5301630000000 1.0
C      1  0.4145240000000  0.4964060000000  0.5157420000000 1.0
C      1  0.5196610000000  0.5958440000000  0.4971120000000 1.0
C      1  0.4861080000000  0.4077450000000  0.5367990000000 1.0
C      1  0.4031610000000  0.4498860000000  0.4981930000000 1.0
C      1  0.4845810000000  0.4917860000000  0.6035970000000 1.0
C      1  0.5735440000000  0.4233780000000  0.5344970000000 1.0
C      1  0.5225770000000  0.5248770000000  0.5947040000000 1.0
C      1  0.4176250000000  0.4399790000000  0.5242850000000 1.0
C      1  0.4343540000000  0.5538580000000  0.5473250000000 1.0
C      1  0.5928750000000  0.4561950000000  0.4564200000000 1.0
C      1  0.5831090000000  0.4405700000000  0.4800470000000 1.0
C      1  0.5774060000000  0.4135290000000  0.4750170000000 1.0
C      1  0.4510350000000  0.4194200000000  0.4917930000000 1.0
C      1  0.5307870000000  0.5560210000000  0.4161130000000 1.0
C      1  0.4728340000000  0.4165220000000  0.5606830000000 1.0
C      1  0.5696670000000  0.5133820000000  0.5936510000000 1.0
C      1  0.5346210000000  0.4977550000000  0.4044650000000 1.0
C      1  0.4630060000000  0.5071130000000  0.5055040000000 1.0
C      1  0.4986600000000  0.5586820000000  0.5732730000000 1.0
C      1  0.4580930000000  0.5482070000000  0.5623090000000 1.0
C      1  0.5462900000000  0.6059490000000  0.4949690000000 1.0
C      1  0.5297560000000  0.4824510000000  0.5722340000000 1.0
C      1  0.4044190000000  0.5309070000000  0.4419660000000 1.0
C      1  0.5580750000000  0.5736350000000  0.4598930000000 1.0
C      1  0.4100230000000  0.4371070000000  0.4709570000000 1.0
C      1  0.5606080000000  0.4202510000000  0.5611560000000 1.0
C      1  0.4922850000000  0.4580200000000  0.4736770000000 1.0
C      1  0.5020970000000  0.4106010000000  0.4776860000000 1.0
C      1  0.5090240000000  0.5178010000000  0.5443960000000 1.0
C      1  0.4793830000000  0.4084280000000  0.4989760000000 1.0
C      1  0.5409170000000  0.4704180000000  0.4777720000000 1.0
C      1  0.5438260000000  0.5080410000000  0.6067170000000 1.0
C      1  0.4068830000000  0.5028330000000  0.4550620000000 1.0
C      1  0.5091870000000  0.5994710000000  0.5453560000000 1.0
C      1  0.5886610000000  0.4489430000000  0.5311790000000 1.0
C      1  0.4658490000000  0.4774660000000  0.4435880000000 1.0
C      1  0.4285250000000  0.4862120000000  0.5389590000000 1.0
C      1  0.4860420000000  0.4162720000000  0.5858530000000 1.0
C      1  0.5709320000000  0.5508230000000  0.4472820000000 1.0
C      1  0.4106840000000  0.4785620000000  0.4383810000000 1.0
C      1  0.5079020000000  0.5390550000000  0.4118600000000 1.0
C      1  0.4943260000000  0.5100590000000  0.4651440000000 1.0
C      1  0.4303500000000  0.4346770000000  0.4228880000000 1.0
C      1  0.5235300000000  0.5360840000000  0.5066420000000 1.0
C      1  0.4421320000000  0.5679610000000  0.4350320000000 1.0
C      1  0.5427960000000  0.4607340000000  0.5552120000000 1.0
C      1  0.4640470000000  0.5160140000000  0.3999230000000 1.0
C      1  0.5091410000000  0.5970370000000  0.4692970000000 1.0
C      1  0.4175660000000  0.4595060000000  0.5466120000000 1.0
C      1  0.5545120000000  0.5693070000000  0.5454500000000 1.0
C      1  0.5317940000000  0.4143230000000  0.5545050000000 1.0
C      1  0.5207920000000  0.4421380000000  0.5463770000000 1.0
C      1  0.4583230000000  0.4852100000000  0.5302930000000 1.0
C      1  0.4401460000000  0.5280710000000  0.4052620000000 1.0
C      1  0.4698220000000  0.4596900000000  0.4183540000000 1.0
C      1  0.5922930000000  0.5233400000000  0.5517650000000 1.0
C      1  0.5016590000000  0.6106460000000  0.5180560000000 1.0
C      1  0.5656170000000  0.5900850000000  0.4826580000000 1.0
C      1  0.5161590000000  0.4653400000000  0.4018590000000 1.0
C      1  0.5360470000000  0.4792670000000  0.6030080000000 1.0
C      1  0.4445210000000  0.5103640000000  0.5811100000000 1.0
C      1  0.4579100000000  0.4866480000000  0.5925200000000 1.0
C      1  0.4155280000000  0.5316380000000  0.5430800000000 1.0
C      1  0.5126920000000  0.5113480000000  0.4190340000000 1.0
C      1  0.4982960000000  0.4418690000000  0.5902510000000 1.0
C      1  0.5546720000000  0.4075690000000  0.5173270000000 1.0
C      1  0.4526440000000  0.5383510000000  0.5883300000000 1.0
C      1  0.4447320000000  0.5614560000000  0.5221660000000 1.0
C      1  0.5943050000000  0.4677180000000  0.5529410000000 1.0
C      1  0.4935930000000  0.5183140000000  0.5932290000000 1.0
C      1  0.4416620000000  0.4445850000000  0.5051310000000 1.0
C      1  0.5658930000000  0.4619830000000  0.4955050000000 1.0
C      1  0.4492640000000  0.4597680000000  0.5859820000000 1.0
C      1  0.5283090000000  0.5489150000000  0.4596880000000 1.0
C      1  0.5150620000000  0.4422170000000  0.5156560000000 1.0
C      1  0.4143830000000  0.5255910000000  0.5118090000000 1.0
C      1  0.4911790000000  0.4816940000000  0.4563240000000 1.0
C      1  0.4460160000000  0.4904610000000  0.4852030000000 1.0
C      1  0.5274770000000  0.5500320000000  0.5810860000000 1.0
C      1  0.5302980000000  0.4013750000000  0.4719400000000 1.0
C      1  0.4270600000000  0.4521210000000  0.5715440000000 1.0
C      1  0.5471500000000  0.5064420000000  0.5630630000000 1.0
C      1  0.5572410000000  0.4709850000000  0.5291240000000 1.0
C      1  0.5421920000000  0.5418200000000  0.4859350000000 1.0
C      1  0.5060000000000  0.4706270000000  0.6015160000000 1.0
C      1  0.4856780000000  0.5005090000000  0.4099460000000 1.0
C      1  0.5137170000000  0.4642330000000  0.4944900000000 1.0
C      1  0.5229750000000  0.5712610000000  0.5421350000000 1.0
C      1  0.5537960000000  0.4081690000000  0.4884480000000 1.0
C      1  0.4243960000000  0.5076620000000  0.5593290000000 1.0
C      1  0.4840790000000  0.5194900000000  0.5633540000000 1.0
C      1  0.4706830000000  0.5762790000000  0.5277840000000 1.0
C      1  0.4380130000000  0.5712760000000  0.4638200000000 1.0
C      1  0.4722730000000  0.5711170000000  0.4272030000000 1.0
C      1  0.5199440000000  0.4402750000000  0.4134110000000 1.0
C      1  0.4294570000000  0.5414070000000  0.4277800000000 1.0
C      1  0.5721100000000  0.4934190000000  0.4356040000000 1.0
C      1  0.5854150000000  0.5303450000000  0.4655900000000 1.0
C      1  0.4778750000000  0.4881360000000  0.5532920000000 1.0
C      1  0.5873950000000  0.4574630000000  0.5778500000000 1.0
C      1  0.4679190000000  0.5964150000000  0.4844120000000 1.0
C      1  0.4111990000000  0.5693620000000  0.4713030000000 1.0
C      1  0.5943490000000  0.5055560000000  0.4502290000000 1.0
C      1  0.5539230000000  0.5393060000000  0.4259240000000 1.0
C      1  0.5769390000000  0.5345050000000  0.5749050000000 1.0
C      1  0.5207910000000  0.5819110000000  0.4222420000000 1.0
C      1  0.5990410000000  0.4956720000000  0.5507050000000 1.0
C      1  0.5356980000000  0.5266530000000  0.5338840000000 1.0
C      1  0.5694030000000  0.4631950000000  0.4379140000000 1.0
C      1  0.5528820000000  0.5500610000000  0.5665630000000 1.0
C      1  0.3957060000000  0.5466290000000  0.4664040000000 1.0
C      1  0.4326210000000  0.4155630000000  0.4689380000000 1.0
C      1  0.4640340000000  0.4542550000000  0.5237990000000 1.0
C      1  0.4421290000000  0.4578980000000  0.4088620000000 1.0
C      1  0.5768270000000  0.5084770000000  0.5033710000000 1.0
C      1  0.4722700000000  0.6027090000000  0.5133790000000 1.0
C      1  0.4716000000000  0.5270120000000  0.4511270000000 1.0
C      1  0.4830180000000  0.5445130000000  0.4281220000000 1.0
C      1  0.5419650000000  0.4995650000000  0.4673770000000 1.0
C      1  0.5022430000000  0.5690150000000  0.4594940000000 1.0
C      1  0.5597470000000  0.5192970000000  0.4807630000000 1.0
C      1  0.4785310000000  0.5425870000000  0.6009200000000 1.0
C      1  0.4945430000000  0.5901760000000  0.4281270000000 1.0
C      1  0.5154950000000  0.5647600000000  0.5128360000000 1.0
C      1  0.3980510000000  0.4803310000000  0.4987710000000 1.0
C      1  0.4557160000000  0.5484220000000  0.4739660000000 1.0
C      1  0.5330190000000  0.3965670000000  0.5321080000000 1.0
C      1  0.5617030000000  0.4463590000000  0.5744040000000 1.0
C      1  0.4511720000000  0.5045870000000  0.4399520000000 1.0
C      1  0.5573690000000  0.5107190000000  0.4172320000000 1.0
C      1  0.6021750000000  0.4827030000000  0.4680140000000 1.0
C      1  0.5990370000000  0.5288470000000  0.5021340000000 1.0
C      1  0.4462480000000  0.4184160000000  0.4419620000000 1.0
C      1  0.5044840000000  0.4898270000000  0.5375980000000 1.0
C      1  0.4444230000000  0.5363750000000  0.5027240000000 1.0
C      1  0.4963910000000  0.4546920000000  0.5630600000000 1.0
C      1  0.4883570000000  0.4736320000000  0.4002190000000 1.0
C      1  0.3878480000000  0.4998840000000  0.4786560000000 1.0
C      1  0.4344000000000  0.5075020000000  0.4647990000000 1.0
C      1  0.5753060000000  0.5630610000000  0.5252560000000 1.0
C      1  0.4871270000000  0.5605460000000  0.5096560000000 1.0
C      1  0.5358290000000  0.4068630000000  0.4444800000000 1.0
C      1  0.4256310000000  0.4559610000000  0.4530290000000 1.0
END
