TITL C-951344-124-71 -2.15582102924622e-06 125000 -923.440908873708 0 0 148 (C1) n - 1
REM
REM in /home/bkarasulu/work/CARBON/AIRSS/Generating-Clusters/EDIP-Nigel-Params/with-SteepDescent/Only-C1/SD-CG/HFTN-CG
REM
REM
REM
REM
REM
REM ./C.cell (11c1c37f851c82e70ff6c80c92926a4b)
REM
REM compiler GCC version 9.2.1 20190827 (Red Hat 9.2.1-1)
REM options -cpp -mtune=generic -march=x86-64 -g -O0 -fpre-include=/usr/include/finclude/math-vector-fortran.h
REM seed -1650352374 1351433512 -85338894 -1036737345 -340105666 -828665955 -250114116 -393991968 -1731609707 -1314445900 -997191754 1742200548 961190723 -1435778522 -1373043573 954875938 1385000877 1433354026 -1765342076 -566519591 1680056885 -528185707 91108382 1442318282 1939445621 -1686202044 -1363241776 536189934 1795200100 1610295037 59847285 2002164478 -652404115
REM
CELL 1.54180   50.00000   50.00000   50.00000   90.00000   90.00000   90.00000
LATT -1
SFAC C  
C      1  0.4651440000000  0.4651990000000  0.5766310000000 1.0
C      1  0.5536690000000  0.4922670000000  0.4202210000000 1.0
C      1  0.4956820000000  0.5310440000000  0.5548180000000 1.0
C      1  0.4971680000000  0.5437920000000  0.5265000000000 1.0
C      1  0.4587610000000  0.4280000000000  0.5542610000000 1.0
C      1  0.4422490000000  0.4849270000000  0.5758960000000 1.0
C      1  0.5032680000000  0.4513470000000  0.5989370000000 1.0
C      1  0.5257850000000  0.5540050000000  0.5208350000000 1.0
C      1  0.4268140000000  0.5452530000000  0.5354130000000 1.0
C      1  0.6035290000000  0.5431110000000  0.4819550000000 1.0
C      1  0.3950160000000  0.4924440000000  0.5136860000000 1.0
C      1  0.5847800000000  0.5416750000000  0.5289680000000 1.0
C      1  0.4048430000000  0.4705170000000  0.4928070000000 1.0
C      1  0.5622090000000  0.4553400000000  0.5718620000000 1.0
C      1  0.5396240000000  0.4894450000000  0.5887980000000 1.0
C      1  0.5302100000000  0.5109820000000  0.6100460000000 1.0
C      1  0.4425360000000  0.5350430000000  0.5800590000000 1.0
C      1  0.5545350000000  0.4685570000000  0.5481040000000 1.0
C      1  0.5507040000000  0.5311660000000  0.5997630000000 1.0
C      1  0.4175050000000  0.4415830000000  0.5303810000000 1.0
C      1  0.5673530000000  0.5670660000000  0.5293630000000 1.0
C      1  0.3928970000000  0.5226670000000  0.5059880000000 1.0
C      1  0.5215360000000  0.4974330000000  0.4767670000000 1.0
C      1  0.5073170000000  0.4797570000000  0.4061190000000 1.0
C      1  0.5501150000000  0.5399240000000  0.4127350000000 1.0
C      1  0.4458250000000  0.5336990000000  0.5155720000000 1.0
C      1  0.5385490000000  0.5699560000000  0.5454900000000 1.0
C      1  0.5268540000000  0.5000580000000  0.4103630000000 1.0
C      1  0.4939890000000  0.5868710000000  0.5001380000000 1.0
C      1  0.5412710000000  0.5276070000000  0.5088430000000 1.0
C      1  0.4828650000000  0.4577000000000  0.4702170000000 1.0
C      1  0.4960020000000  0.6034780000000  0.5266320000000 1.0
C      1  0.5227570000000  0.5292510000000  0.4079360000000 1.0
C      1  0.4275290000000  0.5743520000000  0.4883220000000 1.0
C      1  0.4986340000000  0.5476480000000  0.4051910000000 1.0
C      1  0.4580920000000  0.5521480000000  0.4961340000000 1.0
C      1  0.5134070000000  0.4691040000000  0.5145190000000 1.0
C      1  0.4358680000000  0.5036560000000  0.4173740000000 1.0
C      1  0.5171940000000  0.4856880000000  0.5670640000000 1.0
C      1  0.4983080000000  0.5520170000000  0.5771130000000 1.0
C      1  0.6081180000000  0.5018560000000  0.5102210000000 1.0
C      1  0.5589320000000  0.4189720000000  0.4681960000000 1.0
C      1  0.4255980000000  0.5189010000000  0.4398610000000 1.0
C      1  0.5553610000000  0.4211440000000  0.5300230000000 1.0
C      1  0.5188090000000  0.5232790000000  0.4892840000000 1.0
C      1  0.4853640000000  0.4988580000000  0.4430750000000 1.0
C      1  0.5350600000000  0.4557110000000  0.4666390000000 1.0
C      1  0.5706960000000  0.5178160000000  0.4168760000000 1.0
C      1  0.5101010000000  0.4616170000000  0.4520430000000 1.0
C      1  0.5866160000000  0.4720070000000  0.4802370000000 1.0
C      1  0.5889550000000  0.5224070000000  0.4406460000000 1.0
C      1  0.5647340000000  0.5135360000000  0.4953680000000 1.0
C      1  0.5258520000000  0.4672090000000  0.5434530000000 1.0
C      1  0.5870840000000  0.4590020000000  0.4289710000000 1.0
C      1  0.4221970000000  0.4487680000000  0.5025480000000 1.0
C      1  0.4838350000000  0.4128070000000  0.5175740000000 1.0
C      1  0.4800700000000  0.4904270000000  0.4128970000000 1.0
C      1  0.4102420000000  0.4779590000000  0.4649620000000 1.0
C      1  0.5466730000000  0.4373580000000  0.5851430000000 1.0
C      1  0.4328910000000  0.5464500000000  0.4467260000000 1.0
C      1  0.5023250000000  0.5755540000000  0.4084700000000 1.0
C      1  0.5938000000000  0.4917120000000  0.5338590000000 1.0
C      1  0.4598570000000  0.4686670000000  0.5240350000000 1.0
C      1  0.3972500000000  0.4845300000000  0.5433470000000 1.0
C      1  0.4635330000000  0.5834610000000  0.5333370000000 1.0
C      1  0.4738910000000  0.5320110000000  0.4766160000000 1.0
C      1  0.4819370000000  0.4994770000000  0.6019960000000 1.0
C      1  0.4711550000000  0.4357390000000  0.4503190000000 1.0
C      1  0.5551280000000  0.4861990000000  0.4511050000000 1.0
C      1  0.4551840000000  0.5608670000000  0.5723360000000 1.0
C      1  0.3998170000000  0.5438550000000  0.5237510000000 1.0
C      1  0.4797990000000  0.4437050000000  0.4226300000000 1.0
C      1  0.5432150000000  0.4434890000000  0.4203600000000 1.0
C      1  0.5109220000000  0.4534370000000  0.4219330000000 1.0
C      1  0.4650770000000  0.4160270000000  0.4947490000000 1.0
C      1  0.6106270000000  0.4819810000000  0.4905630000000 1.0
C      1  0.5736950000000  0.4376730000000  0.5163000000000 1.0
C      1  0.5457320000000  0.5256410000000  0.5568420000000 1.0
C      1  0.5573130000000  0.4280130000000  0.4404080000000 1.0
C      1  0.5937880000000  0.5480830000000  0.4562480000000 1.0
C      1  0.5634500000000  0.4640770000000  0.4133150000000 1.0
C      1  0.5611460000000  0.5102070000000  0.5789670000000 1.0
C      1  0.4077390000000  0.5065830000000  0.4597440000000 1.0
C      1  0.5649940000000  0.5810150000000  0.5053290000000 1.0
C      1  0.4247430000000  0.4965640000000  0.5520520000000 1.0
C      1  0.4594060000000  0.5092840000000  0.5822250000000 1.0
C      1  0.4570260000000  0.5593190000000  0.4348110000000 1.0
C      1  0.5104910000000  0.4271890000000  0.5535610000000 1.0
C      1  0.4606410000000  0.4370900000000  0.5808540000000 1.0
C      1  0.4420020000000  0.5704200000000  0.5483040000000 1.0
C      1  0.4637190000000  0.4657160000000  0.4111800000000 1.0
C      1  0.4784940000000  0.3960860000000  0.4770030000000 1.0
C      1  0.4851650000000  0.4536920000000  0.5059460000000 1.0
C      1  0.4737830000000  0.5385380000000  0.4199170000000 1.0
C      1  0.5167300000000  0.5526870000000  0.4450960000000 1.0
C      1  0.5140630000000  0.4103100000000  0.4545810000000 1.0
C      1  0.5746970000000  0.4304960000000  0.4888860000000 1.0
C      1  0.5283630000000  0.4137520000000  0.5335960000000 1.0
C      1  0.4206430000000  0.5511710000000  0.4728590000000 1.0
C      1  0.4774290000000  0.5651930000000  0.5147070000000 1.0
C      1  0.4310790000000  0.4640480000000  0.4495260000000 1.0
C      1  0.4400950000000  0.4313780000000  0.4859290000000 1.0
C      1  0.5733930000000  0.4683910000000  0.5251160000000 1.0
C      1  0.5344720000000  0.4746300000000  0.4908190000000 1.0
C      1  0.4915100000000  0.4749970000000  0.5866610000000 1.0
C      1  0.5440430000000  0.5869590000000  0.4895410000000 1.0
C      1  0.4620720000000  0.5054630000000  0.4829620000000 1.0
C      1  0.4869820000000  0.5290260000000  0.4468750000000 1.0
C      1  0.5189240000000  0.5130330000000  0.5548080000000 1.0
C      1  0.4615800000000  0.5141480000000  0.4058920000000 1.0
C      1  0.4239440000000  0.5265320000000  0.5581660000000 1.0
C      1  0.5031330000000  0.5781910000000  0.4367720000000 1.0
C      1  0.4947970000000  0.5464960000000  0.6047980000000 1.0
C      1  0.4895720000000  0.5774120000000  0.5679510000000 1.0
C      1  0.4415180000000  0.4375950000000  0.4572150000000 1.0
C      1  0.5461930000000  0.5551190000000  0.4372670000000 1.0
C      1  0.5021750000000  0.5193950000000  0.6067670000000 1.0
C      1  0.5189920000000  0.4352470000000  0.5814140000000 1.0
C      1  0.4742580000000  0.5925040000000  0.4758340000000 1.0
C      1  0.4474560000000  0.5922910000000  0.4827330000000 1.0
C      1  0.4430510000000  0.4491430000000  0.5418760000000 1.0
C      1  0.4952670000000  0.5205460000000  0.5068580000000 1.0
C      1  0.4381940000000  0.5106530000000  0.4997780000000 1.0
C      1  0.5205190000000  0.5711220000000  0.4948300000000 1.0
C      1  0.4848100000000  0.4090320000000  0.4524170000000 1.0
C      1  0.4337380000000  0.4876660000000  0.5196930000000 1.0
C      1  0.5639380000000  0.4822240000000  0.4986020000000 1.0
C      1  0.5418880000000  0.5519390000000  0.5693920000000 1.0
C      1  0.5088570000000  0.5889690000000  0.5488450000000 1.0
C      1  0.4763260000000  0.5784900000000  0.4494300000000 1.0
C      1  0.5637380000000  0.5460750000000  0.4592350000000 1.0
C      1  0.5302930000000  0.4249340000000  0.4745560000000 1.0
C      1  0.4773550000000  0.4879310000000  0.5405850000000 1.0
C      1  0.5062130000000  0.3903510000000  0.4865410000000 1.0
C      1  0.5918700000000  0.5266640000000  0.5030950000000 1.0
C      1  0.4977860000000  0.4936920000000  0.5210750000000 1.0
C      1  0.4678400000000  0.4844520000000  0.4635120000000 1.0
C      1  0.5116160000000  0.4903600000000  0.4507650000000 1.0
C      1  0.4725940000000  0.5123750000000  0.5560360000000 1.0
C      1  0.5148470000000  0.5491660000000  0.4747010000000 1.0
C      1  0.5822890000000  0.4753100000000  0.4518680000000 1.0
C      1  0.4374510000000  0.4737840000000  0.4223440000000 1.0
C      1  0.4839190000000  0.4321840000000  0.5388300000000 1.0
C      1  0.5823030000000  0.5170120000000  0.5468920000000 1.0
C      1  0.4130690000000  0.5232110000000  0.4841110000000 1.0
C      1  0.5596940000000  0.5154600000000  0.4654880000000 1.0
C      1  0.3968400000000  0.4564230000000  0.5425950000000 1.0
C      1  0.5111580000000  0.4066140000000  0.5102980000000 1.0
END
