TITL C-951342-2639-494 3.96596289378942e-08 125000 -852.702945735362 0 0 138 (C1) n - 1
REM
REM in /home/bkarasulu/work/CARBON/AIRSS/Generating-Clusters/EDIP-Nigel-Params/with-SteepDescent/Only-C1/SD-CG/HFTN-CG
REM
REM
REM
REM
REM
REM ./C.cell (11c1c37f851c82e70ff6c80c92926a4b)
REM
REM compiler GCC version 9.2.1 20190827 (Red Hat 9.2.1-1)
REM options -cpp -mtune=generic -march=x86-64 -g -O0 -fpre-include=/usr/include/finclude/math-vector-fortran.h
REM seed -1109398156 -1029676950 487722692 -384626728 1672762109 -717523885 -162398741 -1270528256 -1753007036 -1509953470 209056220 1201282939 -2097580876 -237225749 871761031 508871001 -2083626224 1624255615 1861102324 -2086709883 -1529066344 -643088681 -1970866332 -1519278050 -1832311160 -1727655398 -1794279331 -1367572903 -919974377 -799524151 -647821560 -1983856985 -1279453040
REM
CELL 1.54180   50.00000   50.00000   50.00000   90.00000   90.00000   90.00000
LATT -1
SFAC C  
C      1  0.4866540000000  0.4498460000000  0.4588380000000 1.0
C      1  0.5728350000000  0.5296200000000  0.4461020000000 1.0
C      1  0.5440490000000  0.5155450000000  0.5901230000000 1.0
C      1  0.5438640000000  0.4652690000000  0.5838270000000 1.0
C      1  0.5137670000000  0.4678290000000  0.5834040000000 1.0
C      1  0.4765710000000  0.5577630000000  0.4036120000000 1.0
C      1  0.4737880000000  0.5318230000000  0.4185020000000 1.0
C      1  0.5461410000000  0.4146290000000  0.5322650000000 1.0
C      1  0.4286840000000  0.4844700000000  0.5630310000000 1.0
C      1  0.5516790000000  0.4450370000000  0.4469930000000 1.0
C      1  0.4212900000000  0.5385130000000  0.4328930000000 1.0
C      1  0.5787700000000  0.4531210000000  0.4570680000000 1.0
C      1  0.4257880000000  0.5219240000000  0.5277410000000 1.0
C      1  0.4452380000000  0.4588490000000  0.5563120000000 1.0
C      1  0.5045000000000  0.4294280000000  0.5569660000000 1.0
C      1  0.5804700000000  0.5214270000000  0.4741170000000 1.0
C      1  0.5159480000000  0.5619590000000  0.5585390000000 1.0
C      1  0.5430190000000  0.4723890000000  0.4400750000000 1.0
C      1  0.4696690000000  0.4668570000000  0.5394890000000 1.0
C      1  0.4589900000000  0.4726380000000  0.5121250000000 1.0
C      1  0.5790520000000  0.5566570000000  0.5254760000000 1.0
C      1  0.5455930000000  0.5496070000000  0.5619120000000 1.0
C      1  0.5918180000000  0.4768900000000  0.4972550000000 1.0
C      1  0.5425940000000  0.5505370000000  0.4107000000000 1.0
C      1  0.4250610000000  0.5537850000000  0.4792630000000 1.0
C      1  0.4372520000000  0.5035390000000  0.5820490000000 1.0
C      1  0.4784000000000  0.4828840000000  0.3919570000000 1.0
C      1  0.5095040000000  0.5835390000000  0.5396530000000 1.0
C      1  0.4439720000000  0.4262240000000  0.4937390000000 1.0
C      1  0.4425800000000  0.5160650000000  0.5013160000000 1.0
C      1  0.5524160000000  0.5315450000000  0.3929810000000 1.0
C      1  0.4037760000000  0.4502000000000  0.5248790000000 1.0
C      1  0.4844250000000  0.4195770000000  0.4576280000000 1.0
C      1  0.5780490000000  0.4315380000000  0.5661640000000 1.0
C      1  0.5029130000000  0.4941640000000  0.3844880000000 1.0
C      1  0.4464230000000  0.5420070000000  0.5446360000000 1.0
C      1  0.5158000000000  0.5113140000000  0.5914470000000 1.0
C      1  0.4975390000000  0.5334590000000  0.5952570000000 1.0
C      1  0.5153260000000  0.3959230000000  0.4878590000000 1.0
C      1  0.5637160000000  0.5543800000000  0.5015830000000 1.0
C      1  0.4774660000000  0.5438220000000  0.4452400000000 1.0
C      1  0.4672920000000  0.4920970000000  0.4689850000000 1.0
C      1  0.6013960000000  0.4898670000000  0.5475150000000 1.0
C      1  0.5001670000000  0.5348630000000  0.5275840000000 1.0
C      1  0.5678200000000  0.5037050000000  0.4326100000000 1.0
C      1  0.3989520000000  0.4775550000000  0.5269070000000 1.0
C      1  0.4033080000000  0.5308070000000  0.4849100000000 1.0
C      1  0.5147560000000  0.5806410000000  0.4499480000000 1.0
C      1  0.5521440000000  0.5940450000000  0.4751830000000 1.0
C      1  0.4641650000000  0.4160330000000  0.5413730000000 1.0
C      1  0.4969450000000  0.5952200000000  0.4677100000000 1.0
C      1  0.4940510000000  0.4446780000000  0.5791740000000 1.0
C      1  0.5085840000000  0.4934290000000  0.5690420000000 1.0
C      1  0.4821600000000  0.5883500000000  0.5372870000000 1.0
C      1  0.5004180000000  0.5529370000000  0.5027910000000 1.0
C      1  0.5747510000000  0.4552430000000  0.4862800000000 1.0
C      1  0.4038970000000  0.5393530000000  0.5146180000000 1.0
C      1  0.5760730000000  0.4188150000000  0.5386730000000 1.0
C      1  0.5217770000000  0.4688850000000  0.4209470000000 1.0
C      1  0.4937720000000  0.5089490000000  0.4192780000000 1.0
C      1  0.5002070000000  0.4823520000000  0.4990470000000 1.0
C      1  0.5890250000000  0.5449750000000  0.4900930000000 1.0
C      1  0.4493370000000  0.5383200000000  0.5935700000000 1.0
C      1  0.5927920000000  0.4436550000000  0.5327370000000 1.0
C      1  0.5400680000000  0.4903860000000  0.4738780000000 1.0
C      1  0.5292260000000  0.5276400000000  0.5342160000000 1.0
C      1  0.4602640000000  0.5520800000000  0.5706730000000 1.0
C      1  0.5905230000000  0.5248250000000  0.5599540000000 1.0
C      1  0.5057810000000  0.5548580000000  0.4390710000000 1.0
C      1  0.4648020000000  0.4978330000000  0.5854350000000 1.0
C      1  0.5329460000000  0.4300040000000  0.5528250000000 1.0
C      1  0.4569480000000  0.4152030000000  0.5690000000000 1.0
C      1  0.4205050000000  0.5128100000000  0.4254750000000 1.0
C      1  0.5134450000000  0.5546230000000  0.4099640000000 1.0
C      1  0.4535280000000  0.4539420000000  0.4907010000000 1.0
C      1  0.5189980000000  0.5773070000000  0.5124590000000 1.0
C      1  0.5330680000000  0.4124140000000  0.5058690000000 1.0
C      1  0.4407860000000  0.4196370000000  0.5241410000000 1.0
C      1  0.4853050000000  0.4366240000000  0.5357130000000 1.0
C      1  0.4158160000000  0.4553510000000  0.4671840000000 1.0
C      1  0.4593580000000  0.4644800000000  0.4624550000000 1.0
C      1  0.5191210000000  0.5341210000000  0.4842590000000 1.0
C      1  0.5266940000000  0.4874770000000  0.3992100000000 1.0
C      1  0.5861280000000  0.4981290000000  0.5714610000000 1.0
C      1  0.4932550000000  0.4980060000000  0.4563400000000 1.0
C      1  0.5362730000000  0.6010150000000  0.4972990000000 1.0
C      1  0.4667420000000  0.4969410000000  0.4988590000000 1.0
C      1  0.4910430000000  0.5467420000000  0.5693870000000 1.0
C      1  0.4202180000000  0.5065680000000  0.4825370000000 1.0
C      1  0.4661260000000  0.4078750000000  0.4791910000000 1.0
C      1  0.4487130000000  0.4685200000000  0.4324130000000 1.0
C      1  0.5864480000000  0.4726510000000  0.5288660000000 1.0
C      1  0.4508100000000  0.5426820000000  0.4893990000000 1.0
C      1  0.5579590000000  0.4779470000000  0.5353300000000 1.0
C      1  0.4704360000000  0.5827120000000  0.4704710000000 1.0
C      1  0.4138170000000  0.4965660000000  0.5410630000000 1.0
C      1  0.4708710000000  0.5647140000000  0.4954580000000 1.0
C      1  0.4385960000000  0.5687500000000  0.5314550000000 1.0
C      1  0.4761730000000  0.5229650000000  0.5420600000000 1.0
C      1  0.4957410000000  0.4615890000000  0.4317750000000 1.0
C      1  0.5324440000000  0.4335940000000  0.4671070000000 1.0
C      1  0.5967710000000  0.4956910000000  0.4731280000000 1.0
C      1  0.3973220000000  0.4343890000000  0.5024850000000 1.0
C      1  0.4305600000000  0.5585870000000  0.4497820000000 1.0
C      1  0.4595820000000  0.5674260000000  0.4458440000000 1.0
C      1  0.4715370000000  0.5214990000000  0.6034630000000 1.0
C      1  0.5573850000000  0.5100430000000  0.4884060000000 1.0
C      1  0.5285130000000  0.4984110000000  0.5447790000000 1.0
C      1  0.4732470000000  0.4698800000000  0.4164810000000 1.0
C      1  0.5263520000000  0.5368000000000  0.4517050000000 1.0
C      1  0.4271060000000  0.4406600000000  0.5391990000000 1.0
C      1  0.5856820000000  0.4818910000000  0.4483550000000 1.0
C      1  0.4619660000000  0.5812330000000  0.5192430000000 1.0
C      1  0.5133440000000  0.4105410000000  0.4619500000000 1.0
C      1  0.5152670000000  0.4804590000000  0.5238690000000 1.0
C      1  0.4880640000000  0.4031420000000  0.4987690000000 1.0
C      1  0.5440860000000  0.5801380000000  0.4523940000000 1.0
C      1  0.5086890000000  0.6076460000000  0.4908660000000 1.0
C      1  0.5388010000000  0.4653140000000  0.5177650000000 1.0
C      1  0.4642970000000  0.5786400000000  0.4188590000000 1.0
C      1  0.5510460000000  0.4382330000000  0.5738170000000 1.0
C      1  0.5496400000000  0.5067710000000  0.4067490000000 1.0
C      1  0.4998210000000  0.4311560000000  0.5081130000000 1.0
C      1  0.5032940000000  0.4539930000000  0.4858010000000 1.0
C      1  0.4289540000000  0.4873480000000  0.4263370000000 1.0
C      1  0.5517090000000  0.5510350000000  0.4404750000000 1.0
C      1  0.4796440000000  0.4956040000000  0.5586480000000 1.0
C      1  0.4122340000000  0.4820290000000  0.4710340000000 1.0
C      1  0.5435340000000  0.5315890000000  0.5033170000000 1.0
C      1  0.5698760000000  0.5398650000000  0.5462020000000 1.0
C      1  0.4614290000000  0.4420170000000  0.5774120000000 1.0
C      1  0.4162900000000  0.4313290000000  0.4818810000000 1.0
C      1  0.5125600000000  0.5017460000000  0.4794410000000 1.0
C      1  0.5573750000000  0.4923400000000  0.5772850000000 1.0
C      1  0.4152610000000  0.5663970000000  0.5141540000000 1.0
C      1  0.5510080000000  0.5425010000000  0.5894120000000 1.0
C      1  0.5451370000000  0.4630690000000  0.4887190000000 1.0
C      1  0.5244560000000  0.5096370000000  0.4371400000000 1.0
END
