TITL C-950535-5962-410 1.49255495604471e-07 125000 -194.388768992171 0 0 33 (C1) n - 1
REM
REM in /home/bkarasulu/work/CARBON/AIRSS/Generating-Clusters/EDIP-Nigel-Params/with-SteepDescent/Only-C1/SD-CG/HFTN-CG
REM
REM
REM
REM
REM
REM ./C.cell (11c1c37f851c82e70ff6c80c92926a4b)
REM
REM compiler GCC version 9.2.1 20190827 (Red Hat 9.2.1-1)
REM options -cpp -mtune=generic -march=x86-64 -g -O0 -fpre-include=/usr/include/finclude/math-vector-fortran.h
REM seed -1636176998 -124495702 -857743551 1485022320 -1320062445 -386158330 -1948067284 -1445212823 735771983 1858909356 1340244892 -473866137 466884825 255780660 -306694460 -1275968850 272386400 -1250279452 299860583 926499688 -1733370662 1561908682 -674905197 -1515113874 410109670 -1257936588 1880930757 -2030025710 747889336 -1093778016 -1394094546 -805378405 -784909735
REM
CELL 1.54180   50.00000   50.00000   50.00000   90.00000   90.00000   90.00000
LATT -1
SFAC C  
C      1  0.4950060000000  0.5055070000000  0.4899750000000 1.0
C      1  0.5065010000000  0.4821640000000  0.4610950000000 1.0
C      1  0.4595700000000  0.4968080000000  0.4581770000000 1.0
C      1  0.5209360000000  0.5150860000000  0.4751900000000 1.0
C      1  0.5055360000000  0.4842150000000  0.5536320000000 1.0
C      1  0.5408970000000  0.4671320000000  0.4899200000000 1.0
C      1  0.4675890000000  0.5151160000000  0.4797990000000 1.0
C      1  0.4580240000000  0.4624360000000  0.4753150000000 1.0
C      1  0.5161900000000  0.5651700000000  0.5146620000000 1.0
C      1  0.4946010000000  0.4861470000000  0.5141150000000 1.0
C      1  0.5109130000000  0.4345920000000  0.4757910000000 1.0
C      1  0.5237020000000  0.4586300000000  0.4679220000000 1.0
C      1  0.5183380000000  0.4650950000000  0.5119750000000 1.0
C      1  0.5244870000000  0.5607620000000  0.4895970000000 1.0
C      1  0.4741270000000  0.5463840000000  0.5279550000000 1.0
C      1  0.5587450000000  0.4879560000000  0.4835490000000 1.0
C      1  0.4499190000000  0.5111370000000  0.5036760000000 1.0
C      1  0.5167890000000  0.5440350000000  0.4688770000000 1.0
C      1  0.5032380000000  0.4398540000000  0.5025030000000 1.0
C      1  0.5458880000000  0.5111680000000  0.4914060000000 1.0
C      1  0.4781400000000  0.4749480000000  0.4546700000000 1.0
C      1  0.5453440000000  0.5133420000000  0.5192620000000 1.0
C      1  0.4919540000000  0.5087930000000  0.5484640000000 1.0
C      1  0.4913860000000  0.5492840000000  0.4595060000000 1.0
C      1  0.4997870000000  0.5553560000000  0.5346830000000 1.0
C      1  0.4618840000000  0.5210620000000  0.5282180000000 1.0
C      1  0.4678500000000  0.5422240000000  0.4701190000000 1.0
C      1  0.5279680000000  0.4731890000000  0.5400450000000 1.0
C      1  0.4459900000000  0.4822730000000  0.5040690000000 1.0
C      1  0.5468710000000  0.4937360000000  0.5379120000000 1.0
C      1  0.5076020000000  0.5322790000000  0.5481640000000 1.0
C      1  0.4694050000000  0.4697690000000  0.5160380000000 1.0
C      1  0.4748250000000  0.4443530000000  0.5037220000000 1.0
END
