TITL C-950532-2784-161 5.50479660436339e-08 125000 -461.352226586681 0 0 75 (C1) n - 1
REM
REM in /home/bkarasulu/work/CARBON/AIRSS/Generating-Clusters/EDIP-Nigel-Params/with-SteepDescent/Only-C1/SD-CG/HFTN-CG
REM
REM
REM
REM
REM
REM ./C.cell (11c1c37f851c82e70ff6c80c92926a4b)
REM
REM compiler GCC version 9.2.1 20190827 (Red Hat 9.2.1-1)
REM options -cpp -mtune=generic -march=x86-64 -g -O0 -fpre-include=/usr/include/finclude/math-vector-fortran.h
REM seed 1614232838 -449608082 -908990648 683342770 1053683042 -1742942055 -1128072710 5910505 -1719080494 -583624389 -1422753880 1965907704 -346230083 1806787428 2054746340 169636646 -1621801748 -1162308915 -704517542 1503656825 -218605969 269043308 -792967609 -579132298 -404635763 518396489 -1761272551 -1424194846 227425346 1789884324 -1316428666 1487955377 488343972
REM
CELL 1.54180   50.00000   50.00000   50.00000   90.00000   90.00000   90.00000
LATT -1
SFAC C  
C      1  0.4926540000000  0.5405920000000  0.4581960000000 1.0
C      1  0.4549570000000  0.5720560000000  0.5032380000000 1.0
C      1  0.5548010000000  0.5320600000000  0.5089500000000 1.0
C      1  0.4769390000000  0.5126170000000  0.4236020000000 1.0
C      1  0.5504830000000  0.5447110000000  0.4793640000000 1.0
C      1  0.4600060000000  0.5251750000000  0.5650420000000 1.0
C      1  0.5207930000000  0.4935700000000  0.4730180000000 1.0
C      1  0.4731000000000  0.4427990000000  0.4633940000000 1.0
C      1  0.4400010000000  0.4873870000000  0.4412960000000 1.0
C      1  0.4454890000000  0.5518920000000  0.5202570000000 1.0
C      1  0.5186860000000  0.5807680000000  0.4679650000000 1.0
C      1  0.4597350000000  0.4490840000000  0.4897940000000 1.0
C      1  0.5608670000000  0.5133750000000  0.4401510000000 1.0
C      1  0.5056340000000  0.5480420000000  0.5639560000000 1.0
C      1  0.5266460000000  0.4824310000000  0.5107570000000 1.0
C      1  0.5123660000000  0.4290620000000  0.5116960000000 1.0
C      1  0.5632560000000  0.4956800000000  0.5462700000000 1.0
C      1  0.4427730000000  0.5366030000000  0.4530940000000 1.0
C      1  0.4757620000000  0.4888800000000  0.4731490000000 1.0
C      1  0.4820790000000  0.5755610000000  0.4968950000000 1.0
C      1  0.4375510000000  0.5035860000000  0.5118420000000 1.0
C      1  0.5014790000000  0.5003730000000  0.5578560000000 1.0
C      1  0.5324790000000  0.4625420000000  0.5604070000000 1.0
C      1  0.4880800000000  0.5600790000000  0.5438210000000 1.0
C      1  0.4658910000000  0.4846960000000  0.4295170000000 1.0
C      1  0.4606320000000  0.4398380000000  0.5382930000000 1.0
C      1  0.4682870000000  0.5354040000000  0.4414260000000 1.0
C      1  0.5577110000000  0.4678610000000  0.5482840000000 1.0
C      1  0.4955000000000  0.5131600000000  0.4778230000000 1.0
C      1  0.4831820000000  0.4564540000000  0.5473040000000 1.0
C      1  0.4644160000000  0.5428800000000  0.5409620000000 1.0
C      1  0.4835790000000  0.4699380000000  0.4504300000000 1.0
C      1  0.4891920000000  0.4206930000000  0.4703230000000 1.0
C      1  0.5699970000000  0.4920500000000  0.4570960000000 1.0
C      1  0.5218750000000  0.5036290000000  0.5330880000000 1.0
C      1  0.5490440000000  0.4377830000000  0.4583350000000 1.0
C      1  0.5295880000000  0.5712720000000  0.5147260000000 1.0
C      1  0.5676800000000  0.5056620000000  0.5185530000000 1.0
C      1  0.5444990000000  0.5100730000000  0.5649480000000 1.0
C      1  0.5501390000000  0.5019850000000  0.4773150000000 1.0
C      1  0.5387220000000  0.4197530000000  0.5038890000000 1.0
C      1  0.5374820000000  0.5705090000000  0.4860820000000 1.0
C      1  0.5446320000000  0.5354760000000  0.4497360000000 1.0
C      1  0.5471620000000  0.5527120000000  0.5304940000000 1.0
C      1  0.5162900000000  0.5293240000000  0.5194400000000 1.0
C      1  0.4328040000000  0.5319030000000  0.5040480000000 1.0
C      1  0.5056960000000  0.4607210000000  0.5095710000000 1.0
C      1  0.4299740000000  0.5381940000000  0.4768790000000 1.0
C      1  0.4888460000000  0.4161400000000  0.4984450000000 1.0
C      1  0.5682430000000  0.4593460000000  0.4917800000000 1.0
C      1  0.5143510000000  0.4750650000000  0.4473880000000 1.0
C      1  0.4371270000000  0.4548390000000  0.5437420000000 1.0
C      1  0.4902450000000  0.5188090000000  0.5064660000000 1.0
C      1  0.5067460000000  0.5143950000000  0.4214170000000 1.0
C      1  0.4898800000000  0.5246790000000  0.5727050000000 1.0
C      1  0.4198820000000  0.4976410000000  0.5337060000000 1.0
C      1  0.4308640000000  0.4809020000000  0.5527400000000 1.0
C      1  0.5108530000000  0.4469600000000  0.5457920000000 1.0
C      1  0.5557630000000  0.4851740000000  0.5011990000000 1.0
C      1  0.5761940000000  0.4643630000000  0.4637630000000 1.0
C      1  0.4772650000000  0.4722290000000  0.4994660000000 1.0
C      1  0.5284950000000  0.4503220000000  0.4454720000000 1.0
C      1  0.4467160000000  0.4951260000000  0.4679050000000 1.0
C      1  0.5332040000000  0.5389960000000  0.5548360000000 1.0
C      1  0.4548540000000  0.4938430000000  0.5644930000000 1.0
C      1  0.4294950000000  0.4878600000000  0.4889330000000 1.0
C      1  0.5233590000000  0.4872950000000  0.5740430000000 1.0
C      1  0.4704480000000  0.4965600000000  0.5181880000000 1.0
C      1  0.5161120000000  0.5362820000000  0.4393870000000 1.0
C      1  0.5195680000000  0.4896930000000  0.4231090000000 1.0
C      1  0.5004360000000  0.5701950000000  0.5190250000000 1.0
C      1  0.4626530000000  0.4270690000000  0.5096210000000 1.0
C      1  0.4775830000000  0.4856110000000  0.5471760000000 1.0
C      1  0.5472390000000  0.4400200000000  0.4868060000000 1.0
C      1  0.4929850000000  0.5696920000000  0.4698230000000 1.0
END
