TITL C-951348-1603-607 -2.52805677159266e-06 125000 -1167.96814187066 0 0 188 (C1) n - 1
REM
REM in /home/bkarasulu/work/CARBON/AIRSS/Generating-Clusters/EDIP-Nigel-Params/with-SteepDescent/Only-C1/SD-CG/HFTN-CG
REM
REM
REM
REM
REM
REM ./C.cell (11c1c37f851c82e70ff6c80c92926a4b)
REM
REM compiler GCC version 9.2.1 20190827 (Red Hat 9.2.1-1)
REM options -cpp -mtune=generic -march=x86-64 -g -O0 -fpre-include=/usr/include/finclude/math-vector-fortran.h
REM seed -1971112447 1976054574 1925970671 1048232029 1217728347 1118399795 664421559 -932267816 -1315018841 -1463806065 -1703647867 568267299 1213684165 381613881 -1884557424 -1402226310 -769026191 1533117199 -70367128 349900438 -81645774 -450631346 261779056 679992613 1370107205 961939934 -1322534645 1809743130 -1041240242 -1911403176 1470945524 -29413209 -122662022
REM
CELL 1.54180   50.00000   50.00000   50.00000   90.00000   90.00000   90.00000
LATT -1
SFAC C  
C      1  0.5411750000000  0.4879190000000  0.3925990000000 1.0
C      1  0.5383840000000  0.5617510000000  0.5896520000000 1.0
C      1  0.5764590000000  0.5756950000000  0.4649670000000 1.0
C      1  0.4027060000000  0.5087160000000  0.4458850000000 1.0
C      1  0.4490570000000  0.4346220000000  0.5859350000000 1.0
C      1  0.4867990000000  0.5042180000000  0.4570450000000 1.0
C      1  0.4401270000000  0.5671120000000  0.5577760000000 1.0
C      1  0.4296330000000  0.4456920000000  0.5463130000000 1.0
C      1  0.5913230000000  0.4716370000000  0.5658720000000 1.0
C      1  0.4319360000000  0.5416780000000  0.5971880000000 1.0
C      1  0.3992880000000  0.4988790000000  0.4195960000000 1.0
C      1  0.5535560000000  0.5186310000000  0.4253730000000 1.0
C      1  0.5711570000000  0.4984370000000  0.5314320000000 1.0
C      1  0.5104550000000  0.4898140000000  0.6055650000000 1.0
C      1  0.5412280000000  0.4274710000000  0.4391790000000 1.0
C      1  0.4713780000000  0.5207700000000  0.4768150000000 1.0
C      1  0.4228650000000  0.4896280000000  0.4063420000000 1.0
C      1  0.5345200000000  0.5426430000000  0.4936700000000 1.0
C      1  0.4725360000000  0.5245650000000  0.5576390000000 1.0
C      1  0.5539430000000  0.4168580000000  0.4900930000000 1.0
C      1  0.4867770000000  0.4455950000000  0.5417720000000 1.0
C      1  0.5759280000000  0.5460520000000  0.4617200000000 1.0
C      1  0.5554710000000  0.5036860000000  0.4718640000000 1.0
C      1  0.5845540000000  0.5270990000000  0.5747990000000 1.0
C      1  0.5286410000000  0.4740460000000  0.5408870000000 1.0
C      1  0.5821180000000  0.4551940000000  0.4457720000000 1.0
C      1  0.4472290000000  0.5089450000000  0.5520760000000 1.0
C      1  0.5778260000000  0.4216750000000  0.4754310000000 1.0
C      1  0.5107140000000  0.3936570000000  0.4962450000000 1.0
C      1  0.4949780000000  0.4340080000000  0.4655430000000 1.0
C      1  0.5699440000000  0.5015530000000  0.4449700000000 1.0
C      1  0.5793040000000  0.5745390000000  0.5138730000000 1.0
C      1  0.5444310000000  0.5002140000000  0.5495160000000 1.0
C      1  0.5115830000000  0.5491110000000  0.5502960000000 1.0
C      1  0.4370480000000  0.4173100000000  0.5407910000000 1.0
C      1  0.5854770000000  0.4460810000000  0.5516900000000 1.0
C      1  0.4219130000000  0.4313260000000  0.4656020000000 1.0
C      1  0.4939200000000  0.5055060000000  0.5478730000000 1.0
C      1  0.5590360000000  0.4168120000000  0.5174760000000 1.0
C      1  0.5024430000000  0.4776540000000  0.5055650000000 1.0
C      1  0.4606730000000  0.4380270000000  0.5029540000000 1.0
C      1  0.4552090000000  0.5249080000000  0.5923410000000 1.0
C      1  0.4306360000000  0.4781500000000  0.5821160000000 1.0
C      1  0.4273000000000  0.5661750000000  0.4634340000000 1.0
C      1  0.5149110000000  0.3974660000000  0.5246310000000 1.0
C      1  0.4325330000000  0.4649170000000  0.4195180000000 1.0
C      1  0.5269080000000  0.4081550000000  0.5812900000000 1.0
C      1  0.4883490000000  0.4308760000000  0.4950470000000 1.0
C      1  0.4983470000000  0.5749670000000  0.4074340000000 1.0
C      1  0.5251910000000  0.4053710000000  0.4503190000000 1.0
C      1  0.5199750000000  0.6202310000000  0.4451280000000 1.0
C      1  0.6087120000000  0.4878620000000  0.4746510000000 1.0
C      1  0.4087050000000  0.4580160000000  0.4626970000000 1.0
C      1  0.4900840000000  0.4716410000000  0.3738310000000 1.0
C      1  0.6001680000000  0.5066800000000  0.4536260000000 1.0
C      1  0.5235190000000  0.5755770000000  0.5389800000000 1.0
C      1  0.4223180000000  0.5457920000000  0.5710340000000 1.0
C      1  0.4870050000000  0.5482650000000  0.4711200000000 1.0
C      1  0.3833310000000  0.4982380000000  0.5193800000000 1.0
C      1  0.4180430000000  0.4197150000000  0.4933000000000 1.0
C      1  0.4906810000000  0.5793130000000  0.5751630000000 1.0
C      1  0.4059930000000  0.5217900000000  0.5616190000000 1.0
C      1  0.5934030000000  0.4549790000000  0.5206870000000 1.0
C      1  0.4791140000000  0.5516330000000  0.4439590000000 1.0
C      1  0.5271630000000  0.4918560000000  0.5060790000000 1.0
C      1  0.5284340000000  0.4702470000000  0.4591990000000 1.0
C      1  0.5184570000000  0.5452730000000  0.4662570000000 1.0
C      1  0.3940400000000  0.4926150000000  0.4700400000000 1.0
C      1  0.5209310000000  0.4635290000000  0.5976150000000 1.0
C      1  0.5011280000000  0.4514030000000  0.4204670000000 1.0
C      1  0.4045990000000  0.4523350000000  0.5304130000000 1.0
C      1  0.5379450000000  0.6098070000000  0.5136000000000 1.0
C      1  0.5300800000000  0.4425950000000  0.4159020000000 1.0
C      1  0.5207530000000  0.5207740000000  0.5405430000000 1.0
C      1  0.5485440000000  0.5858690000000  0.4642710000000 1.0
C      1  0.5451010000000  0.5856130000000  0.5554150000000 1.0
C      1  0.5394560000000  0.5187080000000  0.5827480000000 1.0
C      1  0.6107680000000  0.4994440000000  0.5020850000000 1.0
C      1  0.4711240000000  0.3803010000000  0.5268710000000 1.0
C      1  0.5079800000000  0.5287060000000  0.3878840000000 1.0
C      1  0.5683000000000  0.4807580000000  0.5812020000000 1.0
C      1  0.4330570000000  0.5794250000000  0.5083080000000 1.0
C      1  0.4917690000000  0.3931730000000  0.5407070000000 1.0
C      1  0.4662730000000  0.4766820000000  0.6082770000000 1.0
C      1  0.4439200000000  0.5081560000000  0.4077260000000 1.0
C      1  0.4291740000000  0.5500490000000  0.5092780000000 1.0
C      1  0.5062010000000  0.5855470000000  0.4359290000000 1.0
C      1  0.5475990000000  0.4660430000000  0.4114880000000 1.0
C      1  0.4708590000000  0.5153820000000  0.4080150000000 1.0
C      1  0.5636750000000  0.5443320000000  0.4197080000000 1.0
C      1  0.4110490000000  0.4975490000000  0.5753920000000 1.0
C      1  0.4562420000000  0.4825660000000  0.5654560000000 1.0
C      1  0.4984580000000  0.4433210000000  0.5956120000000 1.0
C      1  0.4667710000000  0.4573900000000  0.3835810000000 1.0
C      1  0.4706590000000  0.5679170000000  0.4011430000000 1.0
C      1  0.4230190000000  0.5416330000000  0.4799530000000 1.0
C      1  0.5895430000000  0.4646310000000  0.4732360000000 1.0
C      1  0.6051500000000  0.5356860000000  0.5144400000000 1.0
C      1  0.4699060000000  0.4304030000000  0.4291240000000 1.0
C      1  0.5135090000000  0.4964450000000  0.3856210000000 1.0
C      1  0.3796390000000  0.5096190000000  0.4913130000000 1.0
C      1  0.4034310000000  0.5179610000000  0.5318360000000 1.0
C      1  0.5117090000000  0.5527930000000  0.5816450000000 1.0
C      1  0.5049960000000  0.4487990000000  0.5132970000000 1.0
C      1  0.5011520000000  0.4177770000000  0.5823530000000 1.0
C      1  0.5445200000000  0.4519430000000  0.5252640000000 1.0
C      1  0.4313280000000  0.5048070000000  0.4499810000000 1.0
C      1  0.4437250000000  0.4149610000000  0.5100250000000 1.0
C      1  0.5592840000000  0.5682430000000  0.5716280000000 1.0
C      1  0.5051560000000  0.4634680000000  0.5565910000000 1.0
C      1  0.4944780000000  0.6084550000000  0.4552930000000 1.0
C      1  0.4678320000000  0.5471560000000  0.5148780000000 1.0
C      1  0.5704590000000  0.4288630000000  0.4471900000000 1.0
C      1  0.4749280000000  0.5685080000000  0.4918280000000 1.0
C      1  0.4929390000000  0.4776630000000  0.4043240000000 1.0
C      1  0.5971580000000  0.4410010000000  0.4902940000000 1.0
C      1  0.5408950000000  0.5609130000000  0.4204590000000 1.0
C      1  0.4557080000000  0.4141710000000  0.5646760000000 1.0
C      1  0.4493840000000  0.4646720000000  0.4936830000000 1.0
C      1  0.5185180000000  0.5541150000000  0.4017830000000 1.0
C      1  0.4546260000000  0.4636140000000  0.4630050000000 1.0
C      1  0.5946250000000  0.5752370000000  0.4892790000000 1.0
C      1  0.4250490000000  0.4497050000000  0.5763710000000 1.0
C      1  0.5392370000000  0.4090930000000  0.5350980000000 1.0
C      1  0.5245760000000  0.6183790000000  0.4896540000000 1.0
C      1  0.4603910000000  0.3902270000000  0.5031300000000 1.0
C      1  0.5492430000000  0.4591580000000  0.5864980000000 1.0
C      1  0.4835780000000  0.3947030000000  0.4835890000000 1.0
C      1  0.5980340000000  0.4922130000000  0.5461000000000 1.0
C      1  0.5606630000000  0.4728100000000  0.4377720000000 1.0
C      1  0.4784880000000  0.5515030000000  0.5444310000000 1.0
C      1  0.5295330000000  0.5691650000000  0.4476530000000 1.0
C      1  0.4783970000000  0.6056910000000  0.5029640000000 1.0
C      1  0.4304880000000  0.4738490000000  0.4485670000000 1.0
C      1  0.5908630000000  0.5559480000000  0.5334970000000 1.0
C      1  0.5567740000000  0.5099130000000  0.3987920000000 1.0
C      1  0.4009540000000  0.5436870000000  0.5183420000000 1.0
C      1  0.5256100000000  0.5015610000000  0.4633600000000 1.0
C      1  0.4992900000000  0.6046580000000  0.4838980000000 1.0
C      1  0.6115730000000  0.5502580000000  0.4882180000000 1.0
C      1  0.5134650000000  0.5152200000000  0.5931080000000 1.0
C      1  0.4410070000000  0.5185690000000  0.4732340000000 1.0
C      1  0.3905750000000  0.5370960000000  0.4910900000000 1.0
C      1  0.4792970000000  0.5332980000000  0.3875000000000 1.0
C      1  0.4520530000000  0.4336610000000  0.4557730000000 1.0
C      1  0.4575170000000  0.5021580000000  0.6150240000000 1.0
C      1  0.4503360000000  0.5799190000000  0.4187730000000 1.0
C      1  0.4745810000000  0.5251240000000  0.6149530000000 1.0
C      1  0.4975690000000  0.5913090000000  0.5478720000000 1.0
C      1  0.4948370000000  0.4086780000000  0.4495730000000 1.0
C      1  0.5766170000000  0.5486840000000  0.5584630000000 1.0
C      1  0.5591820000000  0.4402430000000  0.5653270000000 1.0
C      1  0.5679060000000  0.4713760000000  0.5162340000000 1.0
C      1  0.5412160000000  0.6148580000000  0.4649060000000 1.0
C      1  0.5221480000000  0.5207510000000  0.5107090000000 1.0
C      1  0.4844310000000  0.4167610000000  0.5573740000000 1.0
C      1  0.4649310000000  0.5778440000000  0.4453630000000 1.0
C      1  0.5638370000000  0.4758820000000  0.4864420000000 1.0
C      1  0.4477400000000  0.5825270000000  0.4802800000000 1.0
C      1  0.5618820000000  0.5302310000000  0.4852940000000 1.0
C      1  0.6036910000000  0.5359960000000  0.4609930000000 1.0
C      1  0.4710600000000  0.4526650000000  0.5951190000000 1.0
C      1  0.4313220000000  0.5085400000000  0.5232190000000 1.0
C      1  0.4912840000000  0.4847330000000  0.5723180000000 1.0
C      1  0.4878270000000  0.5237480000000  0.4321140000000 1.0
C      1  0.4752200000000  0.5928560000000  0.5285270000000 1.0
C      1  0.4578440000000  0.4520930000000  0.4106260000000 1.0
C      1  0.4297730000000  0.5656090000000  0.4342410000000 1.0
C      1  0.4577670000000  0.4804370000000  0.5200110000000 1.0
C      1  0.5328870000000  0.4004260000000  0.4786620000000 1.0
C      1  0.5635210000000  0.5981010000000  0.5174790000000 1.0
C      1  0.5357650000000  0.5712700000000  0.5101200000000 1.0
C      1  0.3979880000000  0.4342580000000  0.5084440000000 1.0
C      1  0.5367360000000  0.4575180000000  0.4874740000000 1.0
C      1  0.5014230000000  0.4584980000000  0.4499260000000 1.0
C      1  0.4792340000000  0.4766060000000  0.4533930000000 1.0
C      1  0.3974620000000  0.4731990000000  0.5088350000000 1.0
C      1  0.4221850000000  0.4862860000000  0.4961470000000 1.0
C      1  0.5231710000000  0.5193410000000  0.4377910000000 1.0
C      1  0.4833350000000  0.4952790000000  0.5197290000000 1.0
C      1  0.4481910000000  0.5824050000000  0.5332090000000 1.0
C      1  0.5457490000000  0.4147990000000  0.5622980000000 1.0
C      1  0.4781860000000  0.5205300000000  0.5049590000000 1.0
C      1  0.5660440000000  0.5092930000000  0.5866520000000 1.0
C      1  0.4629660000000  0.5708710000000  0.5749050000000 1.0
C      1  0.6124400000000  0.4791350000000  0.5235970000000 1.0
C      1  0.5787780000000  0.5205250000000  0.5099320000000 1.0
C      1  0.4571890000000  0.4618250000000  0.5428900000000 1.0
END
