TITL C-951343-2256-724 -3.30363198391886e-06 125000 -587.836421694271 0 0 95 (C1) n - 1
REM
REM in /home/bkarasulu/work/CARBON/AIRSS/Generating-Clusters/EDIP-Nigel-Params/with-SteepDescent/Only-C1/SD-CG/HFTN-CG
REM
REM
REM
REM
REM
REM ./C.cell (11c1c37f851c82e70ff6c80c92926a4b)
REM
REM compiler GCC version 9.2.1 20190827 (Red Hat 9.2.1-1)
REM options -cpp -mtune=generic -march=x86-64 -g -O0 -fpre-include=/usr/include/finclude/math-vector-fortran.h
REM seed -872849991 -1729539785 1397486479 1108944959 1976863941 1093007232 -307906572 1544132678 -1892574592 1638586305 -972040422 2048683124 529378156 -980634938 787467757 -155079580 326181601 -1284546302 -469348065 -1424110287 1928874842 776224592 551695861 707503770 -440172265 471986078 -2089323958 -1149353265 145927936 1712654083 -423207757 1293780461 194622909
REM
CELL 1.54180   50.00000   50.00000   50.00000   90.00000   90.00000   90.00000
LATT -1
SFAC C  
C      1  0.4784070000000  0.5202740000000  0.5355470000000 1.0
C      1  0.5171020000000  0.5522560000000  0.4311390000000 1.0
C      1  0.4350060000000  0.5050500000000  0.5023330000000 1.0
C      1  0.4960510000000  0.5142180000000  0.4080560000000 1.0
C      1  0.4308790000000  0.5339820000000  0.5123130000000 1.0
C      1  0.4363530000000  0.5316040000000  0.5434480000000 1.0
C      1  0.5206940000000  0.5084040000000  0.5407720000000 1.0
C      1  0.5346760000000  0.5129520000000  0.5683680000000 1.0
C      1  0.5693840000000  0.4658200000000  0.5016390000000 1.0
C      1  0.5293970000000  0.5795350000000  0.4909040000000 1.0
C      1  0.4985640000000  0.5177070000000  0.4571760000000 1.0
C      1  0.4790260000000  0.4988510000000  0.5156410000000 1.0
C      1  0.4969040000000  0.4088230000000  0.4801740000000 1.0
C      1  0.5182710000000  0.5848360000000  0.4657360000000 1.0
C      1  0.4570590000000  0.4934170000000  0.4423820000000 1.0
C      1  0.4544190000000  0.4937500000000  0.5702380000000 1.0
C      1  0.5590370000000  0.5021870000000  0.4698630000000 1.0
C      1  0.4709000000000  0.4418020000000  0.5541980000000 1.0
C      1  0.4542140000000  0.5463300000000  0.4428150000000 1.0
C      1  0.4350940000000  0.5348660000000  0.4615390000000 1.0
C      1  0.4593710000000  0.5674750000000  0.5187540000000 1.0
C      1  0.4766730000000  0.5143530000000  0.5649760000000 1.0
C      1  0.5446120000000  0.4215580000000  0.5100500000000 1.0
C      1  0.5228470000000  0.4962540000000  0.5888460000000 1.0
C      1  0.5546080000000  0.5241390000000  0.4502820000000 1.0
C      1  0.5402380000000  0.5045640000000  0.5176280000000 1.0
C      1  0.4981150000000  0.4718120000000  0.4671760000000 1.0
C      1  0.4631140000000  0.4775060000000  0.5256210000000 1.0
C      1  0.4778700000000  0.5832580000000  0.5019020000000 1.0
C      1  0.4998670000000  0.5622140000000  0.5452190000000 1.0
C      1  0.4888000000000  0.4461830000000  0.5075340000000 1.0
C      1  0.4706540000000  0.4721800000000  0.5526140000000 1.0
C      1  0.4353210000000  0.4868880000000  0.5269820000000 1.0
C      1  0.5218810000000  0.4748400000000  0.4876250000000 1.0
C      1  0.4749370000000  0.5621650000000  0.4565800000000 1.0
C      1  0.5680820000000  0.5470760000000  0.5406210000000 1.0
C      1  0.5845530000000  0.5037540000000  0.4849210000000 1.0
C      1  0.4339440000000  0.5515420000000  0.4872090000000 1.0
C      1  0.5378440000000  0.4538090000000  0.5300920000000 1.0
C      1  0.5056740000000  0.5548840000000  0.5743350000000 1.0
C      1  0.4802210000000  0.4501120000000  0.4784280000000 1.0
C      1  0.4543050000000  0.4639290000000  0.4356560000000 1.0
C      1  0.4782500000000  0.4530960000000  0.4228520000000 1.0
C      1  0.4369170000000  0.4458750000000  0.5099070000000 1.0
C      1  0.4875110000000  0.4271410000000  0.4336470000000 1.0
C      1  0.4465050000000  0.4469770000000  0.4590020000000 1.0
C      1  0.5333880000000  0.5031410000000  0.4889850000000 1.0
C      1  0.5024330000000  0.5694980000000  0.4484910000000 1.0
C      1  0.5329080000000  0.5428620000000  0.5745320000000 1.0
C      1  0.4950510000000  0.4158200000000  0.5098070000000 1.0
C      1  0.4640910000000  0.4338080000000  0.5250360000000 1.0
C      1  0.5056730000000  0.5712450000000  0.5077350000000 1.0
C      1  0.4320620000000  0.5045010000000  0.4563960000000 1.0
C      1  0.4791890000000  0.4970080000000  0.4645020000000 1.0
C      1  0.5110730000000  0.4725460000000  0.5797060000000 1.0
C      1  0.5008870000000  0.4801620000000  0.5527750000000 1.0
C      1  0.5927660000000  0.4770480000000  0.4898980000000 1.0
C      1  0.5614400000000  0.4769810000000  0.5495060000000 1.0
C      1  0.4702380000000  0.5675340000000  0.5452880000000 1.0
C      1  0.4323170000000  0.5032360000000  0.5523820000000 1.0
C      1  0.5136360000000  0.4645130000000  0.5143430000000 1.0
C      1  0.5493590000000  0.5583440000000  0.5577520000000 1.0
C      1  0.5211910000000  0.4131130000000  0.5254550000000 1.0
C      1  0.4652180000000  0.5089660000000  0.4923380000000 1.0
C      1  0.4566560000000  0.5478520000000  0.5624720000000 1.0
C      1  0.5371430000000  0.4794850000000  0.4350450000000 1.0
C      1  0.5625840000000  0.5026860000000  0.5641450000000 1.0
C      1  0.4198910000000  0.4620870000000  0.5261290000000 1.0
C      1  0.5781170000000  0.5233480000000  0.5524150000000 1.0
C      1  0.4710040000000  0.5398900000000  0.4944830000000 1.0
C      1  0.5639410000000  0.4874160000000  0.5222480000000 1.0
C      1  0.5438690000000  0.4296940000000  0.4823180000000 1.0
C      1  0.4250900000000  0.4878520000000  0.4803220000000 1.0
C      1  0.5114480000000  0.5229850000000  0.4304920000000 1.0
C      1  0.5626950000000  0.5422290000000  0.5118320000000 1.0
C      1  0.5166270000000  0.5268960000000  0.4787070000000 1.0
C      1  0.5572120000000  0.4746110000000  0.4558350000000 1.0
C      1  0.5017030000000  0.4432060000000  0.5649780000000 1.0
C      1  0.5007800000000  0.5415600000000  0.5016990000000 1.0
C      1  0.5482660000000  0.4593030000000  0.4807040000000 1.0
C      1  0.5508370000000  0.5586190000000  0.4886660000000 1.0
C      1  0.4819160000000  0.5383870000000  0.5833820000000 1.0
C      1  0.5157110000000  0.4328780000000  0.4405450000000 1.0
C      1  0.4764990000000  0.4226360000000  0.4616740000000 1.0
C      1  0.5209000000000  0.4202320000000  0.4668750000000 1.0
C      1  0.4573120000000  0.5312900000000  0.4196300000000 1.0
C      1  0.5031730000000  0.5337930000000  0.5315070000000 1.0
C      1  0.5379410000000  0.5093790000000  0.4302410000000 1.0
C      1  0.5364420000000  0.5453050000000  0.4635480000000 1.0
C      1  0.4382020000000  0.4608910000000  0.4834550000000 1.0
C      1  0.5808500000000  0.5193550000000  0.5084840000000 1.0
C      1  0.5103090000000  0.4638800000000  0.4398870000000 1.0
C      1  0.5248220000000  0.4323730000000  0.5483630000000 1.0
C      1  0.4693840000000  0.5124450000000  0.4045180000000 1.0
C      1  0.4616040000000  0.5768640000000  0.4777380000000 1.0
END
