TITL C-950521-2237-721 0.0129550138955504 125000 -95.3565717338077 0 0 18 (C1) n - 1
REM
REM in /home/bkarasulu/work/CARBON/AIRSS/Generating-Clusters/EDIP-Nigel-Params/with-SteepDescent/Only-C1/SD-CG/HFTN-CG
REM
REM
REM
REM
REM
REM ./C.cell (11c1c37f851c82e70ff6c80c92926a4b)
REM
REM compiler GCC version 9.2.1 20190827 (Red Hat 9.2.1-1)
REM options -cpp -mtune=generic -march=x86-64 -g -O0 -fpre-include=/usr/include/finclude/math-vector-fortran.h
REM seed 800855161 -1781288939 1349636515 1567170969 -643852764 474748056 -283227973 2092708957 -987469176 119839799 -1613295116 1874679909 -2089778250 553749254 837141209 519690880 -1757322051 -1087413717 948822223 -1225187850 1853101720 512640087 -521106421 339084423 -817343951 -1734197532 1869155155 -606956497 1522552662 1036020174 1645559556 933611144 394319398
REM
CELL 1.54180   50.00000   50.00000   50.00000   90.00000   90.00000   90.00000
LATT -1
SFAC C  
C      1  0.4827490000000  0.4612870000000  0.5109510000000 1.0
C      1  0.4431690000000  0.4839070000000  0.4832520000000 1.0
C      1  0.5374120000000  0.5322550000000  0.5107820000000 1.0
C      1  0.5331910000000  0.5206680000000  0.5386020000000 1.0
C      1  0.5608070000000  0.5276780000000  0.4971810000000 1.0
C      1  0.4669630000000  0.5296100000000  0.4784890000000 1.0
C      1  0.5836200000000  0.5275130000000  0.4838550000000 1.0
C      1  0.4193010000000  0.4729990000000  0.4754850000000 1.0
C      1  0.5045880000000  0.5102870000000  0.5299380000000 1.0
C      1  0.4491810000000  0.5099470000000  0.4770010000000 1.0
C      1  0.5298470000000  0.4681340000000  0.5199040000000 1.0
C      1  0.4613130000000  0.4689000000000  0.4973120000000 1.0
C      1  0.5107330000000  0.5204120000000  0.5014540000000 1.0
C      1  0.5186980000000  0.4852090000000  0.5411330000000 1.0
C      1  0.4912460000000  0.5346280000000  0.4880380000000 1.0
C      1  0.3969530000000  0.4628320000000  0.4682240000000 1.0
C      1  0.5045780000000  0.4581010000000  0.5273880000000 1.0
C      1  0.6056510000000  0.5256320000000  0.4710110000000 1.0
END
