TITL C-950526-5686-556 1.62628102578041e-05 125000 -158.357230310216 0 0 27 (C1) n - 1
REM
REM in /home/bkarasulu/work/CARBON/AIRSS/Generating-Clusters/EDIP-Nigel-Params/with-SteepDescent/Only-C1/SD-CG/HFTN-CG
REM
REM
REM
REM
REM
REM ./C.cell (11c1c37f851c82e70ff6c80c92926a4b)
REM
REM compiler GCC version 9.2.1 20190827 (Red Hat 9.2.1-1)
REM options -cpp -mtune=generic -march=x86-64 -g -O0 -fpre-include=/usr/include/finclude/math-vector-fortran.h
REM seed 523226901 -691024547 -376966674 1011604151 -1440128535 -1880453058 1531743235 -339883349 246596397 1893225946 501501688 -1143787508 582854453 658525717 -255959523 921667796 -2090883917 -1048732141 -2121623656 -711396536 -229954297 -1786720991 -787733549 -1384616173 -1604426839 1258725733 1872591815 -737954135 -1671585459 699196818 791524224 1008114802 -1192401327
REM
CELL 1.54180   50.00000   50.00000   50.00000   90.00000   90.00000   90.00000
LATT -1
SFAC C  
C      1  0.5019480000000  0.4838630000000  0.4631060000000 1.0
C      1  0.5416730000000  0.4980920000000  0.4766370000000 1.0
C      1  0.4547660000000  0.5219310000000  0.5151730000000 1.0
C      1  0.5196410000000  0.4611490000000  0.5346570000000 1.0
C      1  0.4735670000000  0.5470960000000  0.4485920000000 1.0
C      1  0.4684200000000  0.4998660000000  0.5318560000000 1.0
C      1  0.5136720000000  0.5488960000000  0.4740400000000 1.0
C      1  0.5152840000000  0.4589880000000  0.4749450000000 1.0
C      1  0.4965100000000  0.4432320000000  0.4930060000000 1.0
C      1  0.4982600000000  0.5314670000000  0.5146900000000 1.0
C      1  0.4573020000000  0.5470660000000  0.5276710000000 1.0
C      1  0.5401160000000  0.4706090000000  0.4876610000000 1.0
C      1  0.5446690000000  0.4709470000000  0.5177780000000 1.0
C      1  0.5226850000000  0.5394980000000  0.4992580000000 1.0
C      1  0.4634190000000  0.4731000000000  0.5214430000000 1.0
C      1  0.4976160000000  0.5064500000000  0.5304170000000 1.0
C      1  0.5215090000000  0.4919600000000  0.5411330000000 1.0
C      1  0.4840020000000  0.5528680000000  0.5285420000000 1.0
C      1  0.4766950000000  0.5221950000000  0.4912960000000 1.0
C      1  0.4799210000000  0.4934260000000  0.4806640000000 1.0
C      1  0.5221170000000  0.5030060000000  0.4563530000000 1.0
C      1  0.4956570000000  0.4530650000000  0.5206380000000 1.0
C      1  0.4629680000000  0.4719920000000  0.4921670000000 1.0
C      1  0.5475100000000  0.5020140000000  0.5252730000000 1.0
C      1  0.4701240000000  0.4460530000000  0.4820570000000 1.0
C      1  0.5438310000000  0.5177760000000  0.4993610000000 1.0
C      1  0.4861200000000  0.5433940000000  0.4715860000000 1.0
END
