TITL C-951346-9544-507 -1.17741092719201e-06 125000 -348.88037953796 0 0 57 (C1) n - 1
REM
REM in /home/bkarasulu/work/CARBON/AIRSS/Generating-Clusters/EDIP-Nigel-Params/with-SteepDescent/Only-C1/SD-CG/HFTN-CG
REM
REM
REM
REM
REM
REM ./C.cell (11c1c37f851c82e70ff6c80c92926a4b)
REM
REM compiler GCC version 9.2.1 20190827 (Red Hat 9.2.1-1)
REM options -cpp -mtune=generic -march=x86-64 -g -O0 -fpre-include=/usr/include/finclude/math-vector-fortran.h
REM seed 1168927721 -1068646077 867053378 1949750943 762828043 -1898974626 1345034278 -1575213859 591919149 -142597390 -698025224 1086853235 1943442838 909742409 -434704413 -619415230 1156007798 -579463815 -1037870849 1820840749 1893640725 -1707416198 1015214080 -1545062105 1450797678 -1181657569 983344315 1644103822 -1036210102 1852909712 688148027 -1515748541 1992944837
REM
CELL 1.54180   50.00000   50.00000   50.00000   90.00000   90.00000   90.00000
LATT -1
SFAC C  
C      1  0.5204830000000  0.5625000000000  0.5505200000000 1.0
C      1  0.4483760000000  0.5287370000000  0.4947500000000 1.0
C      1  0.4986150000000  0.5456160000000  0.5561430000000 1.0
C      1  0.5133630000000  0.5057700000000  0.4333760000000 1.0
C      1  0.5203890000000  0.4696620000000  0.4665390000000 1.0
C      1  0.5147450000000  0.5659650000000  0.5005700000000 1.0
C      1  0.4737440000000  0.4918360000000  0.5410950000000 1.0
C      1  0.4680120000000  0.4849890000000  0.4275720000000 1.0
C      1  0.5512320000000  0.4664760000000  0.5175430000000 1.0
C      1  0.5038790000000  0.5204140000000  0.5109300000000 1.0
C      1  0.5314390000000  0.5371810000000  0.4646190000000 1.0
C      1  0.4557270000000  0.5378100000000  0.5381300000000 1.0
C      1  0.4802650000000  0.4806310000000  0.4931430000000 1.0
C      1  0.4675940000000  0.5424770000000  0.4799330000000 1.0
C      1  0.5267710000000  0.4627450000000  0.5303160000000 1.0
C      1  0.4888110000000  0.5573190000000  0.4916710000000 1.0
C      1  0.5477110000000  0.4682700000000  0.4719490000000 1.0
C      1  0.4877930000000  0.5054410000000  0.4197390000000 1.0
C      1  0.4952180000000  0.4914930000000  0.5187600000000 1.0
C      1  0.5172540000000  0.5348990000000  0.4367320000000 1.0
C      1  0.5105290000000  0.4415430000000  0.5230320000000 1.0
C      1  0.5282950000000  0.5543100000000  0.5245840000000 1.0
C      1  0.4569830000000  0.4335460000000  0.4709960000000 1.0
C      1  0.4806900000000  0.4438200000000  0.4565230000000 1.0
C      1  0.5097050000000  0.4972070000000  0.4619710000000 1.0
C      1  0.4415040000000  0.5054770000000  0.5088860000000 1.0
C      1  0.4345570000000  0.4494250000000  0.4640560000000 1.0
C      1  0.4805490000000  0.5011390000000  0.4713210000000 1.0
C      1  0.5438600000000  0.4935250000000  0.5643970000000 1.0
C      1  0.5077600000000  0.5189070000000  0.5645580000000 1.0
C      1  0.4965580000000  0.4344510000000  0.5001810000000 1.0
C      1  0.4647590000000  0.4636600000000  0.5425680000000 1.0
C      1  0.4559310000000  0.4958360000000  0.4522880000000 1.0
C      1  0.4816830000000  0.4491380000000  0.5600150000000 1.0
C      1  0.4987930000000  0.4700070000000  0.5707600000000 1.0
C      1  0.5666620000000  0.5279720000000  0.4756420000000 1.0
C      1  0.4961270000000  0.4561150000000  0.4790480000000 1.0
C      1  0.5609040000000  0.4782590000000  0.4942320000000 1.0
C      1  0.5620600000000  0.5053280000000  0.5468800000000 1.0
C      1  0.4880590000000  0.5415650000000  0.4336290000000 1.0
C      1  0.4521380000000  0.4546750000000  0.5165600000000 1.0
C      1  0.4827740000000  0.5416420000000  0.5318580000000 1.0
C      1  0.4501370000000  0.4788470000000  0.4976560000000 1.0
C      1  0.4655270000000  0.4317170000000  0.5010160000000 1.0
C      1  0.4385600000000  0.4764350000000  0.4699870000000 1.0
C      1  0.5254190000000  0.4725410000000  0.5571220000000 1.0
C      1  0.5224700000000  0.5125190000000  0.5379970000000 1.0
C      1  0.5567210000000  0.5480220000000  0.5191730000000 1.0
C      1  0.4768000000000  0.4590530000000  0.4332210000000 1.0
C      1  0.5198400000000  0.5167770000000  0.4829150000000 1.0
C      1  0.4866210000000  0.4979450000000  0.5682020000000 1.0
C      1  0.4671420000000  0.5327100000000  0.4523270000000 1.0
C      1  0.5629280000000  0.5192230000000  0.5221920000000 1.0
C      1  0.5619600000000  0.5544060000000  0.4899570000000 1.0
C      1  0.5346740000000  0.5645080000000  0.4787240000000 1.0
C      1  0.4511750000000  0.5104270000000  0.5352260000000 1.0
C      1  0.5677230000000  0.5070900000000  0.4962710000000 1.0
END
