TITL C-951337-3020-614 -5.26994947354424e-07 125000 -670.775520439993 0 0 108 (C1) n - 1
REM
REM in /home/bkarasulu/work/CARBON/AIRSS/Generating-Clusters/EDIP-Nigel-Params/with-SteepDescent/Only-C1/SD-CG/HFTN-CG
REM
REM
REM
REM
REM
REM ./C.cell (11c1c37f851c82e70ff6c80c92926a4b)
REM
REM compiler GCC version 9.2.1 20190827 (Red Hat 9.2.1-1)
REM options -cpp -mtune=generic -march=x86-64 -g -O0 -fpre-include=/usr/include/finclude/math-vector-fortran.h
REM seed 400336478 -1585803200 1284472635 1925959155 117637326 1014944103 1652179624 -303199768 -495106023 -281705983 -1786769490 -1274810620 -1721189804 385471646 -913964726 -662637528 1115846445 -1585469223 1601341587 1652785966 -1891319393 307883568 -201979920 -1204055355 1990857217 1253876982 446719378 1653482308 -49718440 -397316838 -1433045099 391324348 836671078
REM
CELL 1.54180   50.00000   50.00000   50.00000   90.00000   90.00000   90.00000
LATT -1
SFAC C  
C      1  0.4826040000000  0.4699160000000  0.5832820000000 1.0
C      1  0.5699030000000  0.5289040000000  0.4824150000000 1.0
C      1  0.4691940000000  0.4577170000000  0.5011630000000 1.0
C      1  0.5269160000000  0.5102480000000  0.4716100000000 1.0
C      1  0.4752790000000  0.5036240000000  0.4987150000000 1.0
C      1  0.4176370000000  0.4519010000000  0.5305130000000 1.0
C      1  0.4851790000000  0.5801630000000  0.5218970000000 1.0
C      1  0.5371810000000  0.5406570000000  0.5778000000000 1.0
C      1  0.5450390000000  0.4299660000000  0.4736500000000 1.0
C      1  0.5043000000000  0.4526820000000  0.5867600000000 1.0
C      1  0.5706240000000  0.4446900000000  0.4744300000000 1.0
C      1  0.4508450000000  0.5048070000000  0.5729100000000 1.0
C      1  0.5678050000000  0.5095340000000  0.5572280000000 1.0
C      1  0.5177080000000  0.5589470000000  0.5643060000000 1.0
C      1  0.4366810000000  0.5472400000000  0.5624190000000 1.0
C      1  0.5304310000000  0.5001080000000  0.5005690000000 1.0
C      1  0.4987200000000  0.5154340000000  0.5678570000000 1.0
C      1  0.5422590000000  0.4088470000000  0.4918200000000 1.0
C      1  0.5842270000000  0.4409490000000  0.5009670000000 1.0
C      1  0.4997270000000  0.5797620000000  0.4443510000000 1.0
C      1  0.4440290000000  0.5702080000000  0.5480460000000 1.0
C      1  0.4352790000000  0.5664140000000  0.5202760000000 1.0
C      1  0.5344290000000  0.5228050000000  0.4131440000000 1.0
C      1  0.4646460000000  0.4692040000000  0.5305600000000 1.0
C      1  0.5257030000000  0.5808710000000  0.4949310000000 1.0
C      1  0.5287080000000  0.5631790000000  0.5377890000000 1.0
C      1  0.5298820000000  0.4947430000000  0.4103710000000 1.0
C      1  0.5551930000000  0.5500990000000  0.5332770000000 1.0
C      1  0.5262130000000  0.4078870000000  0.5133790000000 1.0
C      1  0.4754840000000  0.5049410000000  0.5283920000000 1.0
C      1  0.5158130000000  0.4343210000000  0.5686650000000 1.0
C      1  0.4863950000000  0.4583110000000  0.4300110000000 1.0
C      1  0.5510320000000  0.5342050000000  0.4328640000000 1.0
C      1  0.4587360000000  0.5022850000000  0.4137170000000 1.0
C      1  0.4410530000000  0.4545910000000  0.4888830000000 1.0
C      1  0.4468110000000  0.4448570000000  0.4600640000000 1.0
C      1  0.5609410000000  0.4886840000000  0.4493230000000 1.0
C      1  0.5112920000000  0.4770560000000  0.5352810000000 1.0
C      1  0.4332000000000  0.5199580000000  0.5571480000000 1.0
C      1  0.5886060000000  0.4996220000000  0.5392810000000 1.0
C      1  0.5031970000000  0.4883500000000  0.4022030000000 1.0
C      1  0.4597450000000  0.5515830000000  0.4325180000000 1.0
C      1  0.5917620000000  0.5137930000000  0.4933800000000 1.0
C      1  0.4771970000000  0.4981310000000  0.5798730000000 1.0
C      1  0.5052360000000  0.4253050000000  0.5184440000000 1.0
C      1  0.4855490000000  0.5747830000000  0.4783030000000 1.0
C      1  0.5074000000000  0.5352840000000  0.4373120000000 1.0
C      1  0.4829470000000  0.5078550000000  0.3987430000000 1.0
C      1  0.4477010000000  0.4385800000000  0.5635170000000 1.0
C      1  0.4939530000000  0.4309480000000  0.5454230000000 1.0
C      1  0.4490500000000  0.5238210000000  0.4321070000000 1.0
C      1  0.5452830000000  0.4944320000000  0.5684050000000 1.0
C      1  0.5383540000000  0.4736800000000  0.5480080000000 1.0
C      1  0.5616790000000  0.5382270000000  0.5597630000000 1.0
C      1  0.5130550000000  0.4763470000000  0.5050140000000 1.0
C      1  0.5891070000000  0.4855800000000  0.4902810000000 1.0
C      1  0.4633580000000  0.4218160000000  0.5468690000000 1.0
C      1  0.4883920000000  0.4797550000000  0.4879160000000 1.0
C      1  0.5145570000000  0.5387660000000  0.4677450000000 1.0
C      1  0.4234950000000  0.4874370000000  0.4572220000000 1.0
C      1  0.5452480000000  0.5616220000000  0.4318280000000 1.0
C      1  0.4882760000000  0.5521710000000  0.5642390000000 1.0
C      1  0.4734230000000  0.5756630000000  0.5496420000000 1.0
C      1  0.5541880000000  0.5164940000000  0.4580650000000 1.0
C      1  0.4286400000000  0.4361490000000  0.5099320000000 1.0
C      1  0.5254510000000  0.5133260000000  0.5810210000000 1.0
C      1  0.5407460000000  0.4761140000000  0.4307440000000 1.0
C      1  0.4953030000000  0.4298180000000  0.4696670000000 1.0
C      1  0.5153760000000  0.5828710000000  0.5205980000000 1.0
C      1  0.4646560000000  0.5283290000000  0.4858420000000 1.0
C      1  0.4264510000000  0.5290560000000  0.4783970000000 1.0
C      1  0.5583640000000  0.4838080000000  0.5221800000000 1.0
C      1  0.4465180000000  0.5704740000000  0.4483770000000 1.0
C      1  0.4885330000000  0.4611340000000  0.5465490000000 1.0
C      1  0.4488340000000  0.4161350000000  0.5204220000000 1.0
C      1  0.4326550000000  0.5154400000000  0.5270030000000 1.0
C      1  0.5295500000000  0.5775640000000  0.4488040000000 1.0
C      1  0.4952270000000  0.5073850000000  0.4348750000000 1.0
C      1  0.5221850000000  0.5233860000000  0.5206540000000 1.0
C      1  0.4392990000000  0.4672090000000  0.4424470000000 1.0
C      1  0.4888050000000  0.5570820000000  0.4291280000000 1.0
C      1  0.4751950000000  0.4394960000000  0.4505790000000 1.0
C      1  0.4656580000000  0.4072270000000  0.4996750000000 1.0
C      1  0.4479860000000  0.5393230000000  0.5156530000000 1.0
C      1  0.4622550000000  0.5852350000000  0.4912150000000 1.0
C      1  0.4737890000000  0.5366530000000  0.5312400000000 1.0
C      1  0.5328280000000  0.5634410000000  0.4742130000000 1.0
C      1  0.5621850000000  0.5248360000000  0.5159510000000 1.0
C      1  0.5635480000000  0.4487840000000  0.5213190000000 1.0
C      1  0.5206850000000  0.4425910000000  0.4638970000000 1.0
C      1  0.5155690000000  0.4646200000000  0.4441710000000 1.0
C      1  0.4241150000000  0.4815310000000  0.4861330000000 1.0
C      1  0.5057360000000  0.4899850000000  0.4586750000000 1.0
C      1  0.5706870000000  0.4735400000000  0.4716920000000 1.0
C      1  0.6020330000000  0.4654440000000  0.5077310000000 1.0
C      1  0.5410870000000  0.4457180000000  0.5588850000000 1.0
C      1  0.5041490000000  0.5053710000000  0.5394780000000 1.0
C      1  0.4978950000000  0.5441340000000  0.5132930000000 1.0
C      1  0.5977440000000  0.4717090000000  0.5375650000000 1.0
C      1  0.5772000000000  0.4520080000000  0.5469560000000 1.0
C      1  0.4844740000000  0.4293060000000  0.4975190000000 1.0
C      1  0.4400340000000  0.4593470000000  0.5458770000000 1.0
C      1  0.4630840000000  0.4773620000000  0.4293360000000 1.0
C      1  0.4272430000000  0.5165470000000  0.4507990000000 1.0
C      1  0.4391690000000  0.5778060000000  0.4744850000000 1.0
C      1  0.4211230000000  0.5579640000000  0.4856970000000 1.0
C      1  0.4899710000000  0.5458630000000  0.4844110000000 1.0
C      1  0.4201100000000  0.5081180000000  0.5000270000000 1.0
END
