TITL C-950532-2784-209 3.16219072857708e-06 125000 -686.905586579111 0 0 110 (C1) n - 1
REM
REM in /home/bkarasulu/work/CARBON/AIRSS/Generating-Clusters/EDIP-Nigel-Params/with-SteepDescent/Only-C1/SD-CG/HFTN-CG
REM
REM
REM
REM
REM
REM ./C.cell (11c1c37f851c82e70ff6c80c92926a4b)
REM
REM compiler GCC version 9.2.1 20190827 (Red Hat 9.2.1-1)
REM options -cpp -mtune=generic -march=x86-64 -g -O0 -fpre-include=/usr/include/finclude/math-vector-fortran.h
REM seed 960940268 1205139766 -1877182553 -418702530 842302323 -588421827 1281920548 1994077235 57380787 1572901778 1832050420 586991591 1900037952 -463862367 618909667 1997005233 633385900 -1577504427 994759926 -2076645898 -822190480 2098898558 986496531 -1550063133 -453528873 1616124932 -540480043 638863691 1087934132 1686392174 -579061947 1190220393 1844795184
REM
CELL 1.54180   50.00000   50.00000   50.00000   90.00000   90.00000   90.00000
LATT -1
SFAC C  
C      1  0.5631010000000  0.4601860000000  0.4529960000000 1.0
C      1  0.5190640000000  0.5829270000000  0.5000650000000 1.0
C      1  0.4675110000000  0.4717560000000  0.4113490000000 1.0
C      1  0.4647540000000  0.5008120000000  0.4566680000000 1.0
C      1  0.4067970000000  0.5300890000000  0.4886510000000 1.0
C      1  0.5386170000000  0.5621130000000  0.5602400000000 1.0
C      1  0.4442050000000  0.5139330000000  0.4211600000000 1.0
C      1  0.4271520000000  0.4533730000000  0.5505110000000 1.0
C      1  0.5699090000000  0.5226510000000  0.4447730000000 1.0
C      1  0.5668560000000  0.5474600000000  0.4581120000000 1.0
C      1  0.4630160000000  0.4131410000000  0.4830470000000 1.0
C      1  0.5068110000000  0.4900830000000  0.3880710000000 1.0
C      1  0.5554780000000  0.4358770000000  0.4965730000000 1.0
C      1  0.4620990000000  0.4703430000000  0.5470230000000 1.0
C      1  0.4981270000000  0.4778440000000  0.4748450000000 1.0
C      1  0.4279290000000  0.5100370000000  0.4488530000000 1.0
C      1  0.5874760000000  0.4728920000000  0.4965320000000 1.0
C      1  0.5795640000000  0.4987810000000  0.5082920000000 1.0
C      1  0.4944830000000  0.5309120000000  0.4606820000000 1.0
C      1  0.4954640000000  0.5182720000000  0.5117360000000 1.0
C      1  0.5459750000000  0.4589270000000  0.5841300000000 1.0
C      1  0.5795700000000  0.5135180000000  0.5553370000000 1.0
C      1  0.4310800000000  0.4477080000000  0.4997750000000 1.0
C      1  0.5186020000000  0.4990410000000  0.5900030000000 1.0
C      1  0.5476300000000  0.4535710000000  0.5563660000000 1.0
C      1  0.4445320000000  0.4646940000000  0.4796570000000 1.0
C      1  0.4100070000000  0.5005900000000  0.4935550000000 1.0
C      1  0.4646310000000  0.4647980000000  0.5893980000000 1.0
C      1  0.5240760000000  0.5820760000000  0.4706120000000 1.0
C      1  0.4628710000000  0.4231360000000  0.4549550000000 1.0
C      1  0.5095160000000  0.5118190000000  0.4057110000000 1.0
C      1  0.5752110000000  0.4516490000000  0.5131000000000 1.0
C      1  0.4739960000000  0.4710740000000  0.4928960000000 1.0
C      1  0.4917080000000  0.5812490000000  0.5089470000000 1.0
C      1  0.4826870000000  0.5274700000000  0.4869320000000 1.0
C      1  0.5651450000000  0.5435020000000  0.5908300000000 1.0
C      1  0.4935960000000  0.4682520000000  0.4489210000000 1.0
C      1  0.5235410000000  0.5119440000000  0.5148370000000 1.0
C      1  0.5351910000000  0.5125750000000  0.5685240000000 1.0
C      1  0.4205840000000  0.5362860000000  0.4629350000000 1.0
C      1  0.5240550000000  0.4684320000000  0.5450000000000 1.0
C      1  0.5302480000000  0.5504830000000  0.4256650000000 1.0
C      1  0.5629050000000  0.5177790000000  0.5790360000000 1.0
C      1  0.5128300000000  0.4306780000000  0.4356510000000 1.0
C      1  0.5358220000000  0.4153730000000  0.5054800000000 1.0
C      1  0.5838060000000  0.4706600000000  0.4686700000000 1.0
C      1  0.5157540000000  0.4106810000000  0.4832380000000 1.0
C      1  0.5143680000000  0.4610710000000  0.4292940000000 1.0
C      1  0.4444250000000  0.5517420000000  0.4691760000000 1.0
C      1  0.4693100000000  0.5277010000000  0.4291990000000 1.0
C      1  0.5514410000000  0.5670180000000  0.5863370000000 1.0
C      1  0.4247490000000  0.4945290000000  0.5187910000000 1.0
C      1  0.5747710000000  0.5425160000000  0.4846290000000 1.0
C      1  0.4760530000000  0.5854080000000  0.4848150000000 1.0
C      1  0.5669180000000  0.4937030000000  0.5359530000000 1.0
C      1  0.5218530000000  0.5380710000000  0.5634740000000 1.0
C      1  0.5353510000000  0.5113960000000  0.4871110000000 1.0
C      1  0.4409700000000  0.4214820000000  0.4988570000000 1.0
C      1  0.4913840000000  0.4150960000000  0.5246200000000 1.0
C      1  0.4914440000000  0.5767250000000  0.5388020000000 1.0
C      1  0.4503820000000  0.4926020000000  0.4036400000000 1.0
C      1  0.5400150000000  0.4789100000000  0.4457090000000 1.0
C      1  0.5271080000000  0.4259320000000  0.4606250000000 1.0
C      1  0.4133530000000  0.5476740000000  0.5101070000000 1.0
C      1  0.4892070000000  0.4154190000000  0.4955180000000 1.0
C      1  0.5229660000000  0.5329440000000  0.4693210000000 1.0
C      1  0.4917540000000  0.5116120000000  0.5864260000000 1.0
C      1  0.4154940000000  0.5094830000000  0.5421120000000 1.0
C      1  0.5627820000000  0.5792820000000  0.5224060000000 1.0
C      1  0.5122200000000  0.4543390000000  0.5224480000000 1.0
C      1  0.5654070000000  0.5157040000000  0.4886770000000 1.0
C      1  0.5019050000000  0.4655390000000  0.5660050000000 1.0
C      1  0.4852180000000  0.4407500000000  0.5676350000000 1.0
C      1  0.4554660000000  0.5188260000000  0.4826940000000 1.0
C      1  0.4873360000000  0.5644080000000  0.4437090000000 1.0
C      1  0.4258080000000  0.4642220000000  0.5235640000000 1.0
C      1  0.5612230000000  0.5582190000000  0.5407970000000 1.0
C      1  0.5812460000000  0.5392140000000  0.5444840000000 1.0
C      1  0.4864750000000  0.4207120000000  0.4389050000000 1.0
C      1  0.4294080000000  0.5579220000000  0.5294600000000 1.0
C      1  0.4495560000000  0.5768350000000  0.4802820000000 1.0
C      1  0.4253470000000  0.4882710000000  0.4714240000000 1.0
C      1  0.5207040000000  0.5831750000000  0.5469670000000 1.0
C      1  0.4738570000000  0.4285340000000  0.5434570000000 1.0
C      1  0.5375830000000  0.5549270000000  0.4554240000000 1.0
C      1  0.4738170000000  0.5079190000000  0.5273680000000 1.0
C      1  0.4466210000000  0.5471120000000  0.5488460000000 1.0
C      1  0.5363910000000  0.5896500000000  0.5221510000000 1.0
C      1  0.4969300000000  0.4694810000000  0.4044680000000 1.0
C      1  0.5198160000000  0.4694820000000  0.5894600000000 1.0
C      1  0.4495580000000  0.4497200000000  0.4536110000000 1.0
C      1  0.4618510000000  0.5016550000000  0.5553130000000 1.0
C      1  0.4665170000000  0.4709120000000  0.4406620000000 1.0
C      1  0.5534400000000  0.4364430000000  0.4671900000000 1.0
C      1  0.5018070000000  0.5568890000000  0.4196950000000 1.0
C      1  0.5711280000000  0.4635100000000  0.5412260000000 1.0
C      1  0.4378030000000  0.5196990000000  0.5560600000000 1.0
C      1  0.5357710000000  0.4975100000000  0.5396020000000 1.0
C      1  0.5345830000000  0.5223710000000  0.4154330000000 1.0
C      1  0.5518200000000  0.5051630000000  0.4319610000000 1.0
C      1  0.4937070000000  0.5372430000000  0.5701010000000 1.0
C      1  0.5270220000000  0.4857880000000  0.4731540000000 1.0
C      1  0.4953600000000  0.5845640000000  0.4622180000000 1.0
C      1  0.4814560000000  0.4582890000000  0.5208980000000 1.0
C      1  0.4513460000000  0.5051950000000  0.5093750000000 1.0
C      1  0.4892090000000  0.5325590000000  0.4079460000000 1.0
C      1  0.4677550000000  0.4941020000000  0.5842660000000 1.0
C      1  0.4429380000000  0.4513350000000  0.5747500000000 1.0
C      1  0.4758030000000  0.5545600000000  0.5534490000000 1.0
C      1  0.5187140000000  0.4254910000000  0.5276020000000 1.0
END
