TITL C-951344-124-392 -4.40941471782809e-06 125000 -302.176854905061 0 0 50 (C1) n - 1
REM
REM in /home/bkarasulu/work/CARBON/AIRSS/Generating-Clusters/EDIP-Nigel-Params/with-SteepDescent/Only-C1/SD-CG/HFTN-CG
REM
REM
REM
REM
REM
REM ./C.cell (11c1c37f851c82e70ff6c80c92926a4b)
REM
REM compiler GCC version 9.2.1 20190827 (Red Hat 9.2.1-1)
REM options -cpp -mtune=generic -march=x86-64 -g -O0 -fpre-include=/usr/include/finclude/math-vector-fortran.h
REM seed 491223450 791026787 -112377573 -426378559 -1884724134 264616317 -821477847 1360801190 1335189232 -520810754 -400759105 -1613672166 -859246515 -868152663 1224368763 -88441301 1090094865 1780411358 -488684741 -905580253 688148699 -1361637195 -1856767667 1102098147 -908746085 -860689738 1037043004 1893099884 -1978132003 508583326 -1022613584 132559034 -761241453
REM
CELL 1.54180   50.00000   50.00000   50.00000   90.00000   90.00000   90.00000
LATT -1
SFAC C  
C      1  0.4670950000000  0.4622090000000  0.5608550000000 1.0
C      1  0.4879370000000  0.4352980000000  0.5270890000000 1.0
C      1  0.4967660000000  0.4627610000000  0.5031950000000 1.0
C      1  0.4990500000000  0.4974480000000  0.5256880000000 1.0
C      1  0.4811460000000  0.4873700000000  0.5586780000000 1.0
C      1  0.5130640000000  0.4297650000000  0.4825370000000 1.0
C      1  0.5183150000000  0.4856950000000  0.5029660000000 1.0
C      1  0.5176840000000  0.4414190000000  0.5283830000000 1.0
C      1  0.4900150000000  0.4808100000000  0.4328190000000 1.0
C      1  0.4698500000000  0.4464720000000  0.4759730000000 1.0
C      1  0.5244220000000  0.5528220000000  0.4998200000000 1.0
C      1  0.5265060000000  0.4678450000000  0.5417560000000 1.0
C      1  0.5486980000000  0.4575810000000  0.4926110000000 1.0
C      1  0.4665990000000  0.4539820000000  0.5340610000000 1.0
C      1  0.4881710000000  0.5444030000000  0.4487220000000 1.0
C      1  0.4573750000000  0.4695660000000  0.4859370000000 1.0
C      1  0.5280640000000  0.5533590000000  0.4706220000000 1.0
C      1  0.4452790000000  0.4990750000000  0.5236930000000 1.0
C      1  0.4363990000000  0.5178290000000  0.5037730000000 1.0
C      1  0.4731410000000  0.5339400000000  0.5388530000000 1.0
C      1  0.4647730000000  0.4872920000000  0.4426840000000 1.0
C      1  0.5484790000000  0.5051380000000  0.4773530000000 1.0
C      1  0.4803900000000  0.5274620000000  0.5014410000000 1.0
C      1  0.5322270000000  0.5256760000000  0.4604880000000 1.0
C      1  0.5058640000000  0.5682240000000  0.5403380000000 1.0
C      1  0.4618560000000  0.5090350000000  0.5459940000000 1.0
C      1  0.4983840000000  0.5423640000000  0.5486250000000 1.0
C      1  0.5353590000000  0.5317920000000  0.5174350000000 1.0
C      1  0.4584300000000  0.4927410000000  0.4692370000000 1.0
C      1  0.5537330000000  0.4884060000000  0.5231930000000 1.0
C      1  0.5036390000000  0.5189260000000  0.4500010000000 1.0
C      1  0.5066600000000  0.4642820000000  0.4496120000000 1.0
C      1  0.4565920000000  0.4738330000000  0.5144560000000 1.0
C      1  0.5071320000000  0.5139430000000  0.4886110000000 1.0
C      1  0.5118440000000  0.4826270000000  0.5645660000000 1.0
C      1  0.5038220000000  0.5704220000000  0.5120460000000 1.0
C      1  0.4622670000000  0.5450020000000  0.4641800000000 1.0
C      1  0.5533880000000  0.5118930000000  0.5057240000000 1.0
C      1  0.5066290000000  0.5651490000000  0.4559500000000 1.0
C      1  0.4779040000000  0.5590090000000  0.5029330000000 1.0
C      1  0.5344930000000  0.4672620000000  0.4481470000000 1.0
C      1  0.5300690000000  0.5066110000000  0.5623110000000 1.0
C      1  0.5475870000000  0.4761650000000  0.4713650000000 1.0
C      1  0.5318650000000  0.4368640000000  0.5020240000000 1.0
C      1  0.5167520000000  0.5208750000000  0.5392580000000 1.0
C      1  0.4642960000000  0.5688900000000  0.4798140000000 1.0
C      1  0.5540180000000  0.4945410000000  0.5514710000000 1.0
C      1  0.5038440000000  0.5038050000000  0.4249140000000 1.0
C      1  0.4953760000000  0.4424070000000  0.4648600000000 1.0
C      1  0.4567500000000  0.5197150000000  0.4829370000000 1.0
END
