TITL C-951342-2639-543 -1.31635175950146e-06 125000 -1260.12079935292 0 0 199 (C1) n - 1
REM
REM in /home/bkarasulu/work/CARBON/AIRSS/Generating-Clusters/EDIP-Nigel-Params/with-SteepDescent/Only-C1/SD-CG/HFTN-CG
REM
REM
REM
REM
REM
REM ./C.cell (11c1c37f851c82e70ff6c80c92926a4b)
REM
REM compiler GCC version 9.2.1 20190827 (Red Hat 9.2.1-1)
REM options -cpp -mtune=generic -march=x86-64 -g -O0 -fpre-include=/usr/include/finclude/math-vector-fortran.h
REM seed -909268398 -187525645 2120683623 -2136571500 -1716858741 1554209287 -42458115 -1128612855 -1592855319 1914794126 700790419 405671453 1701015372 1635757047 974194690 -1856194541 1835263962 -393347016 1774328206 -1492365596 881463214 1975278624 -1525807312 -1779985827 -910867113 18433764 -1936653785 447141583 53207254 351944308 1505635302 1127717035 -1784821971
REM
CELL 1.54180   50.00000   50.00000   50.00000   90.00000   90.00000   90.00000
LATT -1
SFAC C  
C      1  0.4342320000000  0.5371750000000  0.5873280000000 1.0
C      1  0.5910950000000  0.5060360000000  0.4082930000000 1.0
C      1  0.4023120000000  0.4452910000000  0.4940730000000 1.0
C      1  0.4396400000000  0.4910930000000  0.5957990000000 1.0
C      1  0.4369840000000  0.4060920000000  0.4943080000000 1.0
C      1  0.4971070000000  0.3918310000000  0.5393520000000 1.0
C      1  0.5103860000000  0.4335190000000  0.5941710000000 1.0
C      1  0.5944300000000  0.4623170000000  0.4298820000000 1.0
C      1  0.4008540000000  0.5292030000000  0.4747330000000 1.0
C      1  0.4586750000000  0.4779940000000  0.5457790000000 1.0
C      1  0.3780190000000  0.4863520000000  0.4602890000000 1.0
C      1  0.4710350000000  0.4796100000000  0.4529940000000 1.0
C      1  0.5031360000000  0.5761580000000  0.4087300000000 1.0
C      1  0.4612540000000  0.4437730000000  0.4815520000000 1.0
C      1  0.5192410000000  0.5003000000000  0.4868780000000 1.0
C      1  0.4334770000000  0.5876640000000  0.5358350000000 1.0
C      1  0.4080480000000  0.4477120000000  0.4650100000000 1.0
C      1  0.4721270000000  0.5420350000000  0.4516030000000 1.0
C      1  0.5085560000000  0.4996370000000  0.4333980000000 1.0
C      1  0.5452530000000  0.4576560000000  0.4911360000000 1.0
C      1  0.5077010000000  0.4841160000000  0.5611300000000 1.0
C      1  0.5742060000000  0.4426090000000  0.4686800000000 1.0
C      1  0.3988060000000  0.4713110000000  0.5396680000000 1.0
C      1  0.4779770000000  0.5548360000000  0.6034540000000 1.0
C      1  0.5284310000000  0.5433050000000  0.4545070000000 1.0
C      1  0.4392920000000  0.4397370000000  0.4244550000000 1.0
C      1  0.5546920000000  0.5005540000000  0.5263740000000 1.0
C      1  0.4978520000000  0.6049910000000  0.5064230000000 1.0
C      1  0.4895280000000  0.5035730000000  0.5765680000000 1.0
C      1  0.5429250000000  0.4162050000000  0.5231460000000 1.0
C      1  0.4237330000000  0.5879500000000  0.5081500000000 1.0
C      1  0.3791060000000  0.5241830000000  0.5195100000000 1.0
C      1  0.5457240000000  0.5858070000000  0.5809870000000 1.0
C      1  0.4245670000000  0.5658570000000  0.5507360000000 1.0
C      1  0.5559300000000  0.5449940000000  0.5091670000000 1.0
C      1  0.4960520000000  0.4155590000000  0.4357540000000 1.0
C      1  0.5522120000000  0.4376420000000  0.5685940000000 1.0
C      1  0.5376730000000  0.4822900000000  0.5631850000000 1.0
C      1  0.4450040000000  0.4716250000000  0.4676660000000 1.0
C      1  0.4170290000000  0.4249280000000  0.5384220000000 1.0
C      1  0.6239460000000  0.4930200000000  0.4584930000000 1.0
C      1  0.5506030000000  0.5791350000000  0.4703690000000 1.0
C      1  0.4591760000000  0.4298580000000  0.5562270000000 1.0
C      1  0.4482880000000  0.4624520000000  0.5899440000000 1.0
C      1  0.4614320000000  0.5951150000000  0.5392380000000 1.0
C      1  0.4422500000000  0.4111790000000  0.5440230000000 1.0
C      1  0.4664220000000  0.4564210000000  0.5646640000000 1.0
C      1  0.5288760000000  0.5736020000000  0.4901510000000 1.0
C      1  0.4522190000000  0.3979090000000  0.5188570000000 1.0
C      1  0.4886870000000  0.4326540000000  0.4138830000000 1.0
C      1  0.5102470000000  0.5836330000000  0.4360400000000 1.0
C      1  0.4172910000000  0.5063350000000  0.5432500000000 1.0
C      1  0.5991250000000  0.4637800000000  0.5462130000000 1.0
C      1  0.5303990000000  0.5339570000000  0.4056950000000 1.0
C      1  0.5290420000000  0.6000460000000  0.5626590000000 1.0
C      1  0.4739640000000  0.5602030000000  0.4267380000000 1.0
C      1  0.5829170000000  0.4801470000000  0.4902870000000 1.0
C      1  0.5262390000000  0.5060880000000  0.5148410000000 1.0
C      1  0.5948890000000  0.5653280000000  0.4925570000000 1.0
C      1  0.5224640000000  0.4064200000000  0.4271860000000 1.0
C      1  0.5379920000000  0.4744320000000  0.6064440000000 1.0
C      1  0.4879710000000  0.5483460000000  0.5550890000000 1.0
C      1  0.4571160000000  0.4414710000000  0.5110730000000 1.0
C      1  0.5556020000000  0.5115710000000  0.4392930000000 1.0
C      1  0.5341410000000  0.4804200000000  0.4716210000000 1.0
C      1  0.6085020000000  0.5190870000000  0.5487560000000 1.0
C      1  0.4607690000000  0.4883230000000  0.3807440000000 1.0
C      1  0.4171420000000  0.5725650000000  0.4601010000000 1.0
C      1  0.4889260000000  0.5874580000000  0.4603300000000 1.0
C      1  0.4294720000000  0.5187060000000  0.4700500000000 1.0
C      1  0.4138650000000  0.5386200000000  0.4285770000000 1.0
C      1  0.5353440000000  0.5042740000000  0.6126490000000 1.0
C      1  0.5073580000000  0.5579740000000  0.5318680000000 1.0
C      1  0.5252490000000  0.4663520000000  0.3953450000000 1.0
C      1  0.5646570000000  0.5737120000000  0.5636910000000 1.0
C      1  0.4511780000000  0.4805100000000  0.4068840000000 1.0
C      1  0.5916520000000  0.5060410000000  0.5690980000000 1.0
C      1  0.5785450000000  0.5765680000000  0.5133730000000 1.0
C      1  0.4268680000000  0.5244160000000  0.5181120000000 1.0
C      1  0.3655370000000  0.5071420000000  0.4992940000000 1.0
C      1  0.4541290000000  0.5357170000000  0.6090860000000 1.0
C      1  0.4123010000000  0.4488690000000  0.5550350000000 1.0
C      1  0.4205630000000  0.4275940000000  0.5087170000000 1.0
C      1  0.5134010000000  0.4393410000000  0.3989060000000 1.0
C      1  0.5043830000000  0.5304150000000  0.5739430000000 1.0
C      1  0.5557810000000  0.5485960000000  0.4032000000000 1.0
C      1  0.5611080000000  0.5797640000000  0.5358740000000 1.0
C      1  0.4492650000000  0.5749090000000  0.4213460000000 1.0
C      1  0.5178200000000  0.4740680000000  0.4467290000000 1.0
C      1  0.4642930000000  0.4535190000000  0.6125280000000 1.0
C      1  0.5051050000000  0.5483750000000  0.3980660000000 1.0
C      1  0.4445760000000  0.5460640000000  0.4665400000000 1.0
C      1  0.4343680000000  0.5103470000000  0.5731480000000 1.0
C      1  0.4858740000000  0.4980930000000  0.6072360000000 1.0
C      1  0.6166340000000  0.5068600000000  0.5242920000000 1.0
C      1  0.5027350000000  0.3991070000000  0.4808380000000 1.0
C      1  0.4582530000000  0.5065080000000  0.6134440000000 1.0
C      1  0.4234720000000  0.4489440000000  0.5815470000000 1.0
C      1  0.6205140000000  0.4661560000000  0.4710050000000 1.0
C      1  0.5682750000000  0.4515590000000  0.4211220000000 1.0
C      1  0.6280430000000  0.5244030000000  0.5020210000000 1.0
C      1  0.6179880000000  0.5512800000000  0.5019940000000 1.0
C      1  0.5370850000000  0.5699220000000  0.4446470000000 1.0
C      1  0.3769590000000  0.5109770000000  0.4728390000000 1.0
C      1  0.4058220000000  0.4761090000000  0.4249600000000 1.0
C      1  0.4837240000000  0.5032830000000  0.3867000000000 1.0
C      1  0.4928150000000  0.5088960000000  0.4777980000000 1.0
C      1  0.4810170000000  0.4034730000000  0.4586450000000 1.0
C      1  0.4894710000000  0.4467770000000  0.4764940000000 1.0
C      1  0.5074440000000  0.4897890000000  0.3962330000000 1.0
C      1  0.5253450000000  0.3976090000000  0.5652720000000 1.0
C      1  0.4462390000000  0.5035680000000  0.4257370000000 1.0
C      1  0.5638490000000  0.4712920000000  0.5121290000000 1.0
C      1  0.5023430000000  0.4270780000000  0.4942170000000 1.0
C      1  0.5047050000000  0.5410200000000  0.6025090000000 1.0
C      1  0.4027900000000  0.5495150000000  0.4519810000000 1.0
C      1  0.4833060000000  0.5074150000000  0.4497450000000 1.0
C      1  0.5864310000000  0.4769940000000  0.5699500000000 1.0
C      1  0.4835990000000  0.5154910000000  0.5223630000000 1.0
C      1  0.5311960000000  0.4176320000000  0.4023180000000 1.0
C      1  0.5294160000000  0.5219810000000  0.4337460000000 1.0
C      1  0.5339610000000  0.4022610000000  0.4749840000000 1.0
C      1  0.6151250000000  0.5162320000000  0.4752570000000 1.0
C      1  0.4590020000000  0.5960180000000  0.4639890000000 1.0
C      1  0.4975550000000  0.4549420000000  0.5643890000000 1.0
C      1  0.5496850000000  0.5061990000000  0.5555450000000 1.0
C      1  0.4555300000000  0.5590800000000  0.4957440000000 1.0
C      1  0.4731150000000  0.5186010000000  0.4963000000000 1.0
C      1  0.5546230000000  0.4066150000000  0.4970410000000 1.0
C      1  0.6066390000000  0.4886560000000  0.4263060000000 1.0
C      1  0.5794510000000  0.4490000000000  0.5290830000000 1.0
C      1  0.4924310000000  0.4577650000000  0.4492010000000 1.0
C      1  0.4863340000000  0.5587970000000  0.4734500000000 1.0
C      1  0.5378790000000  0.5964840000000  0.5348660000000 1.0
C      1  0.4698360000000  0.6032860000000  0.5130980000000 1.0
C      1  0.5796240000000  0.4207400000000  0.4878630000000 1.0
C      1  0.4806270000000  0.5311840000000  0.3950330000000 1.0
C      1  0.5606370000000  0.5679220000000  0.4249490000000 1.0
C      1  0.5628500000000  0.5300810000000  0.4787980000000 1.0
C      1  0.4617960000000  0.5054580000000  0.5597590000000 1.0
C      1  0.5717600000000  0.4905970000000  0.3940310000000 1.0
C      1  0.3880790000000  0.4635330000000  0.5128240000000 1.0
C      1  0.5277050000000  0.4242400000000  0.5744600000000 1.0
C      1  0.4673680000000  0.4517310000000  0.4199590000000 1.0
C      1  0.3947030000000  0.4676430000000  0.4492000000000 1.0
C      1  0.4050190000000  0.5669240000000  0.5054710000000 1.0
C      1  0.5585650000000  0.4946220000000  0.4624550000000 1.0
C      1  0.5078080000000  0.5155850000000  0.6187880000000 1.0
C      1  0.4256250000000  0.4624050000000  0.4094270000000 1.0
C      1  0.4022360000000  0.5380160000000  0.5046690000000 1.0
C      1  0.5571840000000  0.4657730000000  0.5793060000000 1.0
C      1  0.4514660000000  0.4175710000000  0.4694010000000 1.0
C      1  0.5766780000000  0.5269350000000  0.5840080000000 1.0
C      1  0.4424060000000  0.4824560000000  0.4961530000000 1.0
C      1  0.5125770000000  0.4590780000000  0.6056650000000 1.0
C      1  0.5966370000000  0.5440340000000  0.5443060000000 1.0
C      1  0.4416680000000  0.5600210000000  0.5723260000000 1.0
C      1  0.4877200000000  0.4695660000000  0.6146700000000 1.0
C      1  0.5502110000000  0.5237810000000  0.5962320000000 1.0
C      1  0.6083370000000  0.4643280000000  0.4985740000000 1.0
C      1  0.4757070000000  0.5945300000000  0.5651530000000 1.0
C      1  0.6173020000000  0.4776840000000  0.5250670000000 1.0
C      1  0.4531390000000  0.5435830000000  0.3989390000000 1.0
C      1  0.5028560000000  0.4910420000000  0.5301700000000 1.0
C      1  0.5317700000000  0.5284100000000  0.5625020000000 1.0
C      1  0.5017740000000  0.6039050000000  0.5662690000000 1.0
C      1  0.4709800000000  0.5664770000000  0.5751060000000 1.0
C      1  0.4303190000000  0.4328530000000  0.4518930000000 1.0
C      1  0.5246190000000  0.5373610000000  0.5146540000000 1.0
C      1  0.5834950000000  0.5552510000000  0.4406720000000 1.0
C      1  0.3878680000000  0.5078180000000  0.5426780000000 1.0
C      1  0.5032590000000  0.4512430000000  0.5319950000000 1.0
C      1  0.5762850000000  0.5271660000000  0.4247340000000 1.0
C      1  0.6005970000000  0.4508340000000  0.4554730000000 1.0
C      1  0.4298490000000  0.4944630000000  0.4493630000000 1.0
C      1  0.5963520000000  0.4352980000000  0.5078380000000 1.0
C      1  0.5140590000000  0.5477290000000  0.4806710000000 1.0
C      1  0.5826820000000  0.5515200000000  0.5682160000000 1.0
C      1  0.4557270000000  0.4695990000000  0.5181230000000 1.0
C      1  0.5620430000000  0.4296750000000  0.5424580000000 1.0
C      1  0.4431800000000  0.5109110000000  0.4957330000000 1.0
C      1  0.5267010000000  0.4389810000000  0.5096560000000 1.0
C      1  0.5259150000000  0.3945880000000  0.5366790000000 1.0
C      1  0.5756580000000  0.5230590000000  0.5196130000000 1.0
C      1  0.4511160000000  0.5898250000000  0.4934230000000 1.0
C      1  0.5747170000000  0.5579750000000  0.4699350000000 1.0
C      1  0.5012410000000  0.6059940000000  0.4787160000000 1.0
C      1  0.3668400000000  0.4796750000000  0.5047910000000 1.0
C      1  0.5875150000000  0.5108720000000  0.4911230000000 1.0
C      1  0.5169230000000  0.5844750000000  0.5174870000000 1.0
C      1  0.5587340000000  0.4347980000000  0.4444890000000 1.0
C      1  0.4799240000000  0.3901650000000  0.5174040000000 1.0
C      1  0.4680370000000  0.5299570000000  0.5414340000000 1.0
C      1  0.4389620000000  0.5850230000000  0.4461530000000 1.0
C      1  0.4337440000000  0.5263560000000  0.4129840000000 1.0
C      1  0.4457850000000  0.5463580000000  0.5257170000000 1.0
C      1  0.5420170000000  0.4108780000000  0.4479190000000 1.0
C      1  0.4838350000000  0.4286110000000  0.5198350000000 1.0
C      1  0.5549270000000  0.4688040000000  0.4010210000000 1.0
END
