TITL C-951341-1326-149 -2.61807034184802e-06 125000 -652.59508190236 0 0 105 (C1) n - 1
REM
REM in /home/bkarasulu/work/CARBON/AIRSS/Generating-Clusters/EDIP-Nigel-Params/with-SteepDescent/Only-C1/SD-CG/HFTN-CG
REM
REM
REM
REM
REM
REM ./C.cell (11c1c37f851c82e70ff6c80c92926a4b)
REM
REM compiler GCC version 9.2.1 20190827 (Red Hat 9.2.1-1)
REM options -cpp -mtune=generic -march=x86-64 -g -O0 -fpre-include=/usr/include/finclude/math-vector-fortran.h
REM seed 974892634 -57042203 1575961662 -1606784452 783405978 1080872142 1825072524 -809969601 1833689428 -899167180 108759807 -1116398405 -1770556871 -1764466550 21441028 -1444360128 -980149294 1258102271 -1160108097 -1799149407 1768922458 999618030 -268831219 -446938122 -1958042689 -1783329379 -649505994 -2134017152 854685071 554338798 -1525948493 -584875935 -1440481581
REM
CELL 1.54180   50.00000   50.00000   50.00000   90.00000   90.00000   90.00000
LATT -1
SFAC C  
C      1  0.5327360000000  0.4946500000000  0.4750620000000 1.0
C      1  0.4663210000000  0.5729510000000  0.5101350000000 1.0
C      1  0.5713480000000  0.4964460000000  0.5751730000000 1.0
C      1  0.5263900000000  0.5183540000000  0.5900790000000 1.0
C      1  0.4721040000000  0.5304710000000  0.4282710000000 1.0
C      1  0.5256910000000  0.4697750000000  0.5040010000000 1.0
C      1  0.4813380000000  0.4198190000000  0.5306800000000 1.0
C      1  0.4115680000000  0.4978320000000  0.4583720000000 1.0
C      1  0.4236850000000  0.5504700000000  0.5095500000000 1.0
C      1  0.5996430000000  0.5098680000000  0.5128690000000 1.0
C      1  0.5068120000000  0.5635080000000  0.5318640000000 1.0
C      1  0.4393650000000  0.5142600000000  0.5772030000000 1.0
C      1  0.5513470000000  0.4376560000000  0.5325030000000 1.0
C      1  0.3971490000000  0.5162690000000  0.5185640000000 1.0
C      1  0.5035570000000  0.4623100000000  0.4136940000000 1.0
C      1  0.4258900000000  0.4912120000000  0.5664470000000 1.0
C      1  0.5482200000000  0.5644770000000  0.5172770000000 1.0
C      1  0.5647910000000  0.4612990000000  0.5421520000000 1.0
C      1  0.4773760000000  0.5010980000000  0.4288540000000 1.0
C      1  0.4849880000000  0.4552560000000  0.5681550000000 1.0
C      1  0.5080270000000  0.5011870000000  0.5450800000000 1.0
C      1  0.4383490000000  0.4393980000000  0.4512030000000 1.0
C      1  0.4053030000000  0.5329630000000  0.4946140000000 1.0
C      1  0.5043470000000  0.5408970000000  0.4644150000000 1.0
C      1  0.4977470000000  0.4218490000000  0.4849250000000 1.0
C      1  0.4183940000000  0.4699630000000  0.5194820000000 1.0
C      1  0.5122300000000  0.4558810000000  0.5542400000000 1.0
C      1  0.5474100000000  0.5558520000000  0.4567820000000 1.0
C      1  0.4470390000000  0.5322100000000  0.4445760000000 1.0
C      1  0.5760050000000  0.5274810000000  0.5234250000000 1.0
C      1  0.4687080000000  0.5112760000000  0.5845530000000 1.0
C      1  0.5105710000000  0.4131300000000  0.5296010000000 1.0
C      1  0.5741350000000  0.5404830000000  0.5516900000000 1.0
C      1  0.5243680000000  0.5523920000000  0.5528850000000 1.0
C      1  0.5308830000000  0.5242980000000  0.4830960000000 1.0
C      1  0.5589560000000  0.5375980000000  0.4775200000000 1.0
C      1  0.5026320000000  0.5249170000000  0.5260520000000 1.0
C      1  0.4007410000000  0.4897520000000  0.5082450000000 1.0
C      1  0.4628500000000  0.4526060000000  0.4987200000000 1.0
C      1  0.5080750000000  0.4869350000000  0.4575190000000 1.0
C      1  0.5212420000000  0.4168930000000  0.5018530000000 1.0
C      1  0.4608010000000  0.4561100000000  0.4444010000000 1.0
C      1  0.5777440000000  0.5170620000000  0.4662860000000 1.0
C      1  0.5382470000000  0.5102890000000  0.5538750000000 1.0
C      1  0.4225120000000  0.5099300000000  0.4833200000000 1.0
C      1  0.5057310000000  0.4739720000000  0.5281100000000 1.0
C      1  0.4366750000000  0.5396530000000  0.5601360000000 1.0
C      1  0.5404360000000  0.4405130000000  0.5044800000000 1.0
C      1  0.5519660000000  0.5601840000000  0.5468410000000 1.0
C      1  0.5402150000000  0.5393380000000  0.4320710000000 1.0
C      1  0.5151390000000  0.4916990000000  0.5876440000000 1.0
C      1  0.5053540000000  0.4892380000000  0.4269830000000 1.0
C      1  0.5055580000000  0.4313310000000  0.4479600000000 1.0
C      1  0.5297770000000  0.5307100000000  0.5127420000000 1.0
C      1  0.4268800000000  0.5289920000000  0.5328740000000 1.0
C      1  0.4463850000000  0.5587990000000  0.4945360000000 1.0
C      1  0.4665040000000  0.4977250000000  0.5092660000000 1.0
C      1  0.4468390000000  0.5633770000000  0.4656740000000 1.0
C      1  0.4850750000000  0.5763350000000  0.4381160000000 1.0
C      1  0.4763400000000  0.4716980000000  0.5179830000000 1.0
C      1  0.5498530000000  0.5119100000000  0.5250670000000 1.0
C      1  0.4529540000000  0.4835170000000  0.4316600000000 1.0
C      1  0.4049600000000  0.4706780000000  0.4608570000000 1.0
C      1  0.4820610000000  0.5362880000000  0.5764970000000 1.0
C      1  0.4811610000000  0.5341550000000  0.4830850000000 1.0
C      1  0.5117550000000  0.5383480000000  0.5754510000000 1.0
C      1  0.4724900000000  0.5770430000000  0.4633720000000 1.0
C      1  0.5653340000000  0.4718800000000  0.4422830000000 1.0
C      1  0.5678210000000  0.5239760000000  0.5746370000000 1.0
C      1  0.5512790000000  0.4751210000000  0.4167760000000 1.0
C      1  0.4329590000000  0.4548590000000  0.4977240000000 1.0
C      1  0.4646010000000  0.5517120000000  0.5586090000000 1.0
C      1  0.4849990000000  0.4432920000000  0.4291320000000 1.0
C      1  0.4779350000000  0.5604200000000  0.5336650000000 1.0
C      1  0.5574540000000  0.4976470000000  0.4548460000000 1.0
C      1  0.5297610000000  0.4714900000000  0.5726000000000 1.0
C      1  0.5469720000000  0.5107130000000  0.4306310000000 1.0
C      1  0.4875100000000  0.4883820000000  0.5749380000000 1.0
C      1  0.5170840000000  0.5475290000000  0.4182010000000 1.0
C      1  0.4861300000000  0.5815830000000  0.4902580000000 1.0
C      1  0.5020370000000  0.4509960000000  0.4720670000000 1.0
C      1  0.4773160000000  0.4936620000000  0.4667680000000 1.0
C      1  0.5321780000000  0.4525720000000  0.4140500000000 1.0
C      1  0.5340430000000  0.4357330000000  0.4387300000000 1.0
C      1  0.4319330000000  0.5046330000000  0.4381470000000 1.0
C      1  0.4475730000000  0.5067030000000  0.5292170000000 1.0
C      1  0.4734970000000  0.4629350000000  0.4713030000000 1.0
C      1  0.5579500000000  0.4732690000000  0.5669660000000 1.0
C      1  0.5628440000000  0.4475430000000  0.4845850000000 1.0
C      1  0.4214110000000  0.4504640000000  0.4707430000000 1.0
C      1  0.4734310000000  0.4250550000000  0.5026610000000 1.0
C      1  0.5217580000000  0.5656070000000  0.4694490000000 1.0
C      1  0.4942700000000  0.5487660000000  0.4359560000000 1.0
C      1  0.5970080000000  0.4802140000000  0.5093970000000 1.0
C      1  0.5268060000000  0.4301820000000  0.5476330000000 1.0
C      1  0.5517910000000  0.4831820000000  0.5133560000000 1.0
C      1  0.4889640000000  0.5150680000000  0.5029300000000 1.0
C      1  0.4360530000000  0.4824110000000  0.5413930000000 1.0
C      1  0.5691370000000  0.5491470000000  0.5032090000000 1.0
C      1  0.5730840000000  0.4748080000000  0.4940880000000 1.0
C      1  0.4717670000000  0.4365100000000  0.5517970000000 1.0
C      1  0.5997120000000  0.5086630000000  0.4830870000000 1.0
C      1  0.5174390000000  0.5771910000000  0.4972410000000 1.0
C      1  0.5523760000000  0.4506300000000  0.4570410000000 1.0
C      1  0.4540400000000  0.5206150000000  0.4732190000000 1.0
END
