TITL C-950534-5965-535 2.15123183290836e-07 125000 -269.376826574332 0 0 44 (C1) n - 1
REM
REM in /home/bkarasulu/work/CARBON/AIRSS/Generating-Clusters/EDIP-Nigel-Params/with-SteepDescent/Only-C1/SD-CG/HFTN-CG
REM
REM
REM
REM
REM
REM ./C.cell (11c1c37f851c82e70ff6c80c92926a4b)
REM
REM compiler GCC version 9.2.1 20190827 (Red Hat 9.2.1-1)
REM options -cpp -mtune=generic -march=x86-64 -g -O0 -fpre-include=/usr/include/finclude/math-vector-fortran.h
REM seed -1397142251 54085988 -1243606399 -756577738 961254439 823319962 -212725582 -596664088 2069675132 -496740979 2131289070 -1682080372 -1941099081 -1789184603 -1909019875 69807239 -930327602 -1605923445 -2070361587 -1091023620 -1122886756 -1143907558 -331843642 903015866 -465978271 1526097338 -978427929 1369912923 88507197 -1863184434 -1466074755 -2040236369 1129691102
REM
CELL 1.54180   50.00000   50.00000   50.00000   90.00000   90.00000   90.00000
LATT -1
SFAC C  
C      1  0.4754070000000  0.5157330000000  0.4731820000000 1.0
C      1  0.4932830000000  0.4470950000000  0.5141220000000 1.0
C      1  0.5099680000000  0.5168840000000  0.4385530000000 1.0
C      1  0.5399650000000  0.5578850000000  0.4921020000000 1.0
C      1  0.4531590000000  0.4784260000000  0.4621760000000 1.0
C      1  0.5221010000000  0.4720560000000  0.5443190000000 1.0
C      1  0.5117930000000  0.4712490000000  0.4545940000000 1.0
C      1  0.5341120000000  0.5528080000000  0.5189080000000 1.0
C      1  0.4964030000000  0.4492650000000  0.4664770000000 1.0
C      1  0.5424020000000  0.4768750000000  0.5232860000000 1.0
C      1  0.5530500000000  0.4752370000000  0.4760990000000 1.0
C      1  0.5398310000000  0.4688530000000  0.4519150000000 1.0
C      1  0.4825180000000  0.5046590000000  0.5612890000000 1.0
C      1  0.5291560000000  0.5214740000000  0.5545970000000 1.0
C      1  0.4891170000000  0.5518790000000  0.4678380000000 1.0
C      1  0.5568460000000  0.5235070000000  0.4658180000000 1.0
C      1  0.4728460000000  0.4660270000000  0.5038910000000 1.0
C      1  0.4824180000000  0.4999120000000  0.5008990000000 1.0
C      1  0.4619630000000  0.5134700000000  0.5193790000000 1.0
C      1  0.5114510000000  0.5367090000000  0.4583870000000 1.0
C      1  0.5108690000000  0.5433670000000  0.5591920000000 1.0
C      1  0.4827270000000  0.5350980000000  0.5580680000000 1.0
C      1  0.5377160000000  0.5434670000000  0.4684280000000 1.0
C      1  0.5395840000000  0.5047400000000  0.5117240000000 1.0
C      1  0.5095200000000  0.5116320000000  0.5085230000000 1.0
C      1  0.5539900000000  0.5030500000000  0.4848090000000 1.0
C      1  0.5054590000000  0.4502110000000  0.5390070000000 1.0
C      1  0.4490830000000  0.4707860000000  0.5447530000000 1.0
C      1  0.4586970000000  0.4970360000000  0.5447580000000 1.0
C      1  0.5460180000000  0.4591070000000  0.4994740000000 1.0
C      1  0.4975960000000  0.4916170000000  0.4393540000000 1.0
C      1  0.5363960000000  0.4328390000000  0.4953180000000 1.0
C      1  0.4704830000000  0.4985640000000  0.4490960000000 1.0
C      1  0.5085110000000  0.4368810000000  0.4914660000000 1.0
C      1  0.5471850000000  0.5277100000000  0.5308630000000 1.0
C      1  0.4427630000000  0.5391060000000  0.4842870000000 1.0
C      1  0.4488100000000  0.4622290000000  0.5192300000000 1.0
C      1  0.4380130000000  0.4929400000000  0.4817330000000 1.0
C      1  0.4395040000000  0.5154090000000  0.4989680000000 1.0
C      1  0.4686260000000  0.4568670000000  0.4758080000000 1.0
C      1  0.5054100000000  0.5389200000000  0.5215190000000 1.0
C      1  0.4740530000000  0.5396450000000  0.5289320000000 1.0
C      1  0.4607840000000  0.5502300000000  0.4661120000000 1.0
C      1  0.5104140000000  0.4985470000000  0.5507450000000 1.0
END
