TITL C-950526-5686-521 2.79681950433814e-06 125000 -432.452711231856 0 0 71 (C1) n - 1
REM
REM in /home/bkarasulu/work/CARBON/AIRSS/Generating-Clusters/EDIP-Nigel-Params/with-SteepDescent/Only-C1/SD-CG/HFTN-CG
REM
REM
REM
REM
REM
REM ./C.cell (11c1c37f851c82e70ff6c80c92926a4b)
REM
REM compiler GCC version 9.2.1 20190827 (Red Hat 9.2.1-1)
REM options -cpp -mtune=generic -march=x86-64 -g -O0 -fpre-include=/usr/include/finclude/math-vector-fortran.h
REM seed 867374588 917245153 1615754910 126565899 -203244124 -2131836253 -1081919860 1409469974 -1920604460 -441044112 901685285 893949463 1504007192 -1607290606 375893613 1500672849 -1853230796 -1912557603 1254648467 1548387603 -1787325422 1583402428 236297682 -741660075 -353133924 431006956 -1381791356 -2119032473 129932596 423094371 1037653428 1613687368 164658509
REM
CELL 1.54180   50.00000   50.00000   50.00000   90.00000   90.00000   90.00000
LATT -1
SFAC C  
C      1  0.5554110000000  0.4988140000000  0.4701470000000 1.0
C      1  0.5118480000000  0.5366570000000  0.4869230000000 1.0
C      1  0.5416090000000  0.4461730000000  0.5025410000000 1.0
C      1  0.5541090000000  0.5222040000000  0.4515390000000 1.0
C      1  0.5394550000000  0.4587320000000  0.4601830000000 1.0
C      1  0.5587860000000  0.4738760000000  0.5397510000000 1.0
C      1  0.4478780000000  0.5462310000000  0.4862270000000 1.0
C      1  0.4861270000000  0.5714210000000  0.4937060000000 1.0
C      1  0.5332370000000  0.4665030000000  0.5557580000000 1.0
C      1  0.4529590000000  0.4843150000000  0.5325590000000 1.0
C      1  0.4682410000000  0.5027760000000  0.5625900000000 1.0
C      1  0.4678590000000  0.5002070000000  0.4771930000000 1.0
C      1  0.5388730000000  0.5488120000000  0.5394760000000 1.0
C      1  0.4842030000000  0.5359120000000  0.4473960000000 1.0
C      1  0.5296780000000  0.5819340000000  0.5048810000000 1.0
C      1  0.5110460000000  0.5868210000000  0.5285760000000 1.0
C      1  0.4656850000000  0.5304380000000  0.5544140000000 1.0
C      1  0.5125640000000  0.5617170000000  0.5458180000000 1.0
C      1  0.5651190000000  0.5028880000000  0.5386030000000 1.0
C      1  0.4654670000000  0.5218980000000  0.4974910000000 1.0
C      1  0.5110260000000  0.4166400000000  0.5268610000000 1.0
C      1  0.4795720000000  0.4728640000000  0.5262970000000 1.0
C      1  0.4914750000000  0.5312130000000  0.5095590000000 1.0
C      1  0.5128420000000  0.5750300000000  0.4800000000000 1.0
C      1  0.4334320000000  0.4683580000000  0.5122480000000 1.0
C      1  0.5682950000000  0.4630450000000  0.4652870000000 1.0
C      1  0.4846300000000  0.5644860000000  0.4546860000000 1.0
C      1  0.4380310000000  0.4455980000000  0.4681760000000 1.0
C      1  0.4662040000000  0.5693450000000  0.5331440000000 1.0
C      1  0.4893760000000  0.4867300000000  0.5747570000000 1.0
C      1  0.4940610000000  0.4657090000000  0.4523470000000 1.0
C      1  0.4989920000000  0.4751920000000  0.5037330000000 1.0
C      1  0.4960810000000  0.4371880000000  0.4620090000000 1.0
C      1  0.4888260000000  0.4135310000000  0.5055720000000 1.0
C      1  0.5176390000000  0.4900280000000  0.5665620000000 1.0
C      1  0.4466460000000  0.4482360000000  0.4944650000000 1.0
C      1  0.4365340000000  0.5278240000000  0.4632820000000 1.0
C      1  0.5757650000000  0.5073470000000  0.5123870000000 1.0
C      1  0.5310390000000  0.5137970000000  0.5719120000000 1.0
C      1  0.5424090000000  0.5380550000000  0.4914440000000 1.0
C      1  0.5525570000000  0.5104270000000  0.4966270000000 1.0
C      1  0.5141470000000  0.4110120000000  0.4842690000000 1.0
C      1  0.4240900000000  0.4960600000000  0.5011380000000 1.0
C      1  0.4606250000000  0.4964490000000  0.4340690000000 1.0
C      1  0.5267690000000  0.4938860000000  0.4266150000000 1.0
C      1  0.5274500000000  0.5172290000000  0.4413120000000 1.0
C      1  0.5243430000000  0.4331620000000  0.4639400000000 1.0
C      1  0.5548970000000  0.5464600000000  0.4662700000000 1.0
C      1  0.5433830000000  0.5209280000000  0.5479880000000 1.0
C      1  0.4852610000000  0.4527350000000  0.5466810000000 1.0
C      1  0.4458800000000  0.5107540000000  0.5178820000000 1.0
C      1  0.5212070000000  0.4700500000000  0.4393270000000 1.0
C      1  0.5660390000000  0.4582720000000  0.5141570000000 1.0
C      1  0.4421560000000  0.5574580000000  0.5203280000000 1.0
C      1  0.4653200000000  0.4295260000000  0.5046140000000 1.0
C      1  0.5471210000000  0.5586680000000  0.5126870000000 1.0
C      1  0.4815240000000  0.4596020000000  0.5736660000000 1.0
C      1  0.4941620000000  0.4873240000000  0.4753740000000 1.0
C      1  0.4865520000000  0.5462860000000  0.5365050000000 1.0
C      1  0.4407640000000  0.5332000000000  0.5372300000000 1.0
C      1  0.5223300000000  0.4623030000000  0.5183340000000 1.0
C      1  0.5119210000000  0.4435470000000  0.5408890000000 1.0
C      1  0.4573650000000  0.5237530000000  0.4412700000000 1.0
C      1  0.5346750000000  0.4174290000000  0.5075870000000 1.0
C      1  0.5778900000000  0.4744940000000  0.4919280000000 1.0
C      1  0.4301240000000  0.5004620000000  0.4729500000000 1.0
C      1  0.4629280000000  0.5697000000000  0.4747540000000 1.0
C      1  0.5051650000000  0.5191120000000  0.4622810000000 1.0
C      1  0.4689260000000  0.4698420000000  0.4362660000000 1.0
C      1  0.4827020000000  0.5885770000000  0.5179630000000 1.0
C      1  0.4487040000000  0.4527480000000  0.4445990000000 1.0
END
