TITL C-951345-2650-80 -2.19852597795586e-06 125000 -848.708022557631 0 0 136 (C1) n - 1
REM
REM in /home/bkarasulu/work/CARBON/AIRSS/Generating-Clusters/EDIP-Nigel-Params/with-SteepDescent/Only-C1/SD-CG/HFTN-CG
REM
REM
REM
REM
REM
REM ./C.cell (11c1c37f851c82e70ff6c80c92926a4b)
REM
REM compiler GCC version 9.2.1 20190827 (Red Hat 9.2.1-1)
REM options -cpp -mtune=generic -march=x86-64 -g -O0 -fpre-include=/usr/include/finclude/math-vector-fortran.h
REM seed 2130359493 -322249969 1218880158 -822792381 -646439097 -826331957 -170640398 -1179472351 1664266650 -1784592852 1497888856 -874614980 -1822625369 -842802092 -2114168184 418432563 -1645121259 -1600065276 347953293 1985731944 -280908156 -1339456476 -16579954 -1368410376 956929648 -1618962215 1360254554 -1773051621 -1240800696 2055798542 1265959019 1000637305 -27897811
REM
CELL 1.54180   50.00000   50.00000   50.00000   90.00000   90.00000   90.00000
LATT -1
SFAC C  
C      1  0.4546390000000  0.5161090000000  0.4595490000000 1.0
C      1  0.5750740000000  0.5687370000000  0.4933230000000 1.0
C      1  0.5263230000000  0.5002130000000  0.4507640000000 1.0
C      1  0.4621270000000  0.5550800000000  0.4933530000000 1.0
C      1  0.4475820000000  0.4553520000000  0.5689480000000 1.0
C      1  0.4865310000000  0.5305770000000  0.5561610000000 1.0
C      1  0.5332470000000  0.4449880000000  0.5771160000000 1.0
C      1  0.5052100000000  0.4967790000000  0.5949430000000 1.0
C      1  0.4689810000000  0.5299320000000  0.4809450000000 1.0
C      1  0.5012840000000  0.5221520000000  0.4457400000000 1.0
C      1  0.4862960000000  0.5058710000000  0.5374220000000 1.0
C      1  0.4742110000000  0.3972820000000  0.5213520000000 1.0
C      1  0.5182820000000  0.5404700000000  0.5271530000000 1.0
C      1  0.5590610000000  0.5342540000000  0.5640640000000 1.0
C      1  0.4344820000000  0.5057440000000  0.5059540000000 1.0
C      1  0.5301890000000  0.4970820000000  0.5798540000000 1.0
C      1  0.5514820000000  0.4900150000000  0.4999030000000 1.0
C      1  0.4794400000000  0.5764740000000  0.4788730000000 1.0
C      1  0.5028600000000  0.3975020000000  0.5262190000000 1.0
C      1  0.4096560000000  0.5276080000000  0.4580420000000 1.0
C      1  0.4627240000000  0.4386820000000  0.5069990000000 1.0
C      1  0.5077630000000  0.5355270000000  0.4043320000000 1.0
C      1  0.5257980000000  0.5882870000000  0.4658820000000 1.0
C      1  0.5820080000000  0.4976110000000  0.5003890000000 1.0
C      1  0.5470150000000  0.5387510000000  0.4256510000000 1.0
C      1  0.5061480000000  0.4354640000000  0.4316030000000 1.0
C      1  0.5505330000000  0.5621770000000  0.5675880000000 1.0
C      1  0.5760380000000  0.5333660000000  0.4640470000000 1.0
C      1  0.5633170000000  0.5210850000000  0.4404820000000 1.0
C      1  0.4186610000000  0.4576590000000  0.5074550000000 1.0
C      1  0.4803420000000  0.4813200000000  0.4263940000000 1.0
C      1  0.5223320000000  0.4610850000000  0.4150950000000 1.0
C      1  0.4363670000000  0.5168700000000  0.4164670000000 1.0
C      1  0.5919130000000  0.4858860000000  0.5264550000000 1.0
C      1  0.5496180000000  0.5477240000000  0.5227000000000 1.0
C      1  0.4492530000000  0.5018570000000  0.5799480000000 1.0
C      1  0.4351680000000  0.5317730000000  0.4425070000000 1.0
C      1  0.5729850000000  0.4899900000000  0.5715200000000 1.0
C      1  0.4113600000000  0.4971930000000  0.4654670000000 1.0
C      1  0.4222180000000  0.4406830000000  0.5317500000000 1.0
C      1  0.4416650000000  0.5781080000000  0.5236380000000 1.0
C      1  0.5575440000000  0.4142860000000  0.5129270000000 1.0
C      1  0.5419410000000  0.4146150000000  0.4648150000000 1.0
C      1  0.4478450000000  0.5591870000000  0.4433100000000 1.0
C      1  0.4959600000000  0.4807720000000  0.5498960000000 1.0
C      1  0.5251770000000  0.4682460000000  0.4531800000000 1.0
C      1  0.4737740000000  0.5576560000000  0.5449100000000 1.0
C      1  0.5424340000000  0.5657220000000  0.4595070000000 1.0
C      1  0.5075920000000  0.6011010000000  0.5102620000000 1.0
C      1  0.5522290000000  0.5731770000000  0.5405230000000 1.0
C      1  0.5909870000000  0.5490110000000  0.5065130000000 1.0
C      1  0.4213960000000  0.4595570000000  0.5552680000000 1.0
C      1  0.5404020000000  0.5413650000000  0.4893370000000 1.0
C      1  0.5369320000000  0.5091400000000  0.4803580000000 1.0
C      1  0.4147720000000  0.4879730000000  0.5461480000000 1.0
C      1  0.5034870000000  0.5651200000000  0.4447750000000 1.0
C      1  0.4928170000000  0.5602280000000  0.5165570000000 1.0
C      1  0.5534210000000  0.4603620000000  0.4922790000000 1.0
C      1  0.5026020000000  0.4570170000000  0.4701380000000 1.0
C      1  0.4611850000000  0.5986720000000  0.5200570000000 1.0
C      1  0.4134840000000  0.4862730000000  0.5162520000000 1.0
C      1  0.5069530000000  0.4311080000000  0.4859560000000 1.0
C      1  0.4382300000000  0.5073050000000  0.5521410000000 1.0
C      1  0.5107630000000  0.4229580000000  0.5410400000000 1.0
C      1  0.5482230000000  0.4765870000000  0.4171890000000 1.0
C      1  0.5703410000000  0.5617830000000  0.4657900000000 1.0
C      1  0.4396740000000  0.4967530000000  0.4768430000000 1.0
C      1  0.5660040000000  0.4923780000000  0.4335400000000 1.0
C      1  0.5926000000000  0.4772490000000  0.4803450000000 1.0
C      1  0.4851380000000  0.4584790000000  0.5128860000000 1.0
C      1  0.4745860000000  0.4140090000000  0.4964090000000 1.0
C      1  0.4736860000000  0.4052090000000  0.4531940000000 1.0
C      1  0.5405370000000  0.4716190000000  0.5654150000000 1.0
C      1  0.5179070000000  0.5076600000000  0.4133720000000 1.0
C      1  0.4793240000000  0.5425310000000  0.4087360000000 1.0
C      1  0.5601350000000  0.4299640000000  0.5359180000000 1.0
C      1  0.4512640000000  0.5476400000000  0.5747190000000 1.0
C      1  0.4344130000000  0.5512250000000  0.5272650000000 1.0
C      1  0.4409880000000  0.4506620000000  0.4872250000000 1.0
C      1  0.5754750000000  0.4747610000000  0.4551680000000 1.0
C      1  0.5058720000000  0.5051940000000  0.4902430000000 1.0
C      1  0.5230080000000  0.4720500000000  0.5394790000000 1.0
C      1  0.5097190000000  0.5530780000000  0.4857890000000 1.0
C      1  0.4765440000000  0.6064730000000  0.5446040000000 1.0
C      1  0.5557570000000  0.5871020000000  0.5054500000000 1.0
C      1  0.5855590000000  0.4570360000000  0.5277660000000 1.0
C      1  0.5150730000000  0.5359420000000  0.5654610000000 1.0
C      1  0.4610880000000  0.5213190000000  0.4025080000000 1.0
C      1  0.5618230000000  0.4309720000000  0.4549360000000 1.0
C      1  0.5308370000000  0.5961990000000  0.4932990000000 1.0
C      1  0.5107390000000  0.5117790000000  0.5192500000000 1.0
C      1  0.5555330000000  0.5115090000000  0.5829420000000 1.0
C      1  0.5819820000000  0.4527010000000  0.4988550000000 1.0
C      1  0.4498530000000  0.4252810000000  0.5318010000000 1.0
C      1  0.4618010000000  0.5257950000000  0.5918100000000 1.0
C      1  0.5227060000000  0.5627360000000  0.5766340000000 1.0
C      1  0.4416920000000  0.5677840000000  0.4716510000000 1.0
C      1  0.5860950000000  0.5022740000000  0.5489990000000 1.0
C      1  0.4762450000000  0.5569710000000  0.4341340000000 1.0
C      1  0.4909270000000  0.4290070000000  0.5628550000000 1.0
C      1  0.4155690000000  0.4763870000000  0.4440190000000 1.0
C      1  0.4921470000000  0.5234230000000  0.5942530000000 1.0
C      1  0.4805700000000  0.5824400000000  0.5613630000000 1.0
C      1  0.5871750000000  0.5260110000000  0.4902390000000 1.0
C      1  0.4999460000000  0.3990430000000  0.4634310000000 1.0
C      1  0.5223560000000  0.5529790000000  0.4226210000000 1.0
C      1  0.5086250000000  0.5856780000000  0.5669410000000 1.0
C      1  0.4960690000000  0.5285570000000  0.4753040000000 1.0
C      1  0.4177680000000  0.5479530000000  0.4802040000000 1.0
C      1  0.4631770000000  0.4349450000000  0.5561800000000 1.0
C      1  0.4571470000000  0.4035450000000  0.4754090000000 1.0
C      1  0.4244600000000  0.5345900000000  0.5057660000000 1.0
C      1  0.5142010000000  0.3939840000000  0.4990320000000 1.0
C      1  0.5341100000000  0.4941940000000  0.5242550000000 1.0
C      1  0.5766020000000  0.5284970000000  0.5425890000000 1.0
C      1  0.4865020000000  0.4749820000000  0.4874830000000 1.0
C      1  0.5034920000000  0.4464730000000  0.5830440000000 1.0
C      1  0.4353660000000  0.5375500000000  0.5528850000000 1.0
C      1  0.5530270000000  0.4574890000000  0.4629650000000 1.0
C      1  0.4321940000000  0.4873600000000  0.4214490000000 1.0
C      1  0.4614720000000  0.4757040000000  0.5844410000000 1.0
C      1  0.4570840000000  0.4736870000000  0.4779910000000 1.0
C      1  0.4507060000000  0.4441900000000  0.4319780000000 1.0
C      1  0.4816260000000  0.5985390000000  0.4981120000000 1.0
C      1  0.4912540000000  0.4747920000000  0.5794340000000 1.0
C      1  0.4749970000000  0.5087750000000  0.4362710000000 1.0
C      1  0.4764860000000  0.4303350000000  0.4387920000000 1.0
C      1  0.4555930000000  0.4690020000000  0.4166600000000 1.0
C      1  0.5379960000000  0.4249700000000  0.5547610000000 1.0
C      1  0.5030220000000  0.4823320000000  0.4084890000000 1.0
C      1  0.5119800000000  0.4466750000000  0.5208950000000 1.0
C      1  0.5410160000000  0.4043260000000  0.4924640000000 1.0
C      1  0.4293830000000  0.4506100000000  0.4525140000000 1.0
C      1  0.4573060000000  0.5025300000000  0.5281880000000 1.0
C      1  0.5052490000000  0.6103960000000  0.5375130000000 1.0
C      1  0.5190620000000  0.4131770000000  0.4473930000000 1.0
END
