TITL C-951343-2256-348 2.91356409185479e-06 125000 -642.511495609429 0 0 105 (C1) n - 1
REM
REM in /home/bkarasulu/work/CARBON/AIRSS/Generating-Clusters/EDIP-Nigel-Params/with-SteepDescent/Only-C1/SD-CG/HFTN-CG
REM
REM
REM
REM
REM
REM ./C.cell (11c1c37f851c82e70ff6c80c92926a4b)
REM
REM compiler GCC version 9.2.1 20190827 (Red Hat 9.2.1-1)
REM options -cpp -mtune=generic -march=x86-64 -g -O0 -fpre-include=/usr/include/finclude/math-vector-fortran.h
REM seed -1108272518 1399868483 1337330483 1732325322 1397433 -1164076866 -247894899 -1262317749 -250872513 2089509138 -1808184369 1005863992 -244562676 -2017228017 1722185491 -1127081186 -2123806766 72339738 -1282416518 -354530477 -238467356 -848995057 1447370978 -798767479 1408293331 1280435074 -1948528686 1356638953 1999834465 750912882 -1113590831 1736511995 -965642336
REM
CELL 1.54180   50.00000   50.00000   50.00000   90.00000   90.00000   90.00000
LATT -1
SFAC C  
C      1  0.5207240000000  0.5046230000000  0.5130150000000 1.0
C      1  0.5392770000000  0.4353960000000  0.4594040000000 1.0
C      1  0.4436540000000  0.4277620000000  0.4670610000000 1.0
C      1  0.4064800000000  0.5329450000000  0.5330130000000 1.0
C      1  0.4147560000000  0.4704830000000  0.5094040000000 1.0
C      1  0.5306820000000  0.4623530000000  0.5013630000000 1.0
C      1  0.4539890000000  0.5198220000000  0.5283250000000 1.0
C      1  0.4884810000000  0.4460950000000  0.4658720000000 1.0
C      1  0.4515970000000  0.4838280000000  0.5949910000000 1.0
C      1  0.5376950000000  0.4685240000000  0.4138290000000 1.0
C      1  0.4117650000000  0.4961780000000  0.4949080000000 1.0
C      1  0.4662960000000  0.4851630000000  0.4234840000000 1.0
C      1  0.5370910000000  0.5695110000000  0.4483620000000 1.0
C      1  0.5396740000000  0.5242090000000  0.5009660000000 1.0
C      1  0.5174210000000  0.5715460000000  0.4915880000000 1.0
C      1  0.5714800000000  0.4660160000000  0.5432000000000 1.0
C      1  0.5325950000000  0.5128820000000  0.4282210000000 1.0
C      1  0.5135630000000  0.5000030000000  0.5789340000000 1.0
C      1  0.5464520000000  0.5746560000000  0.5011220000000 1.0
C      1  0.5057700000000  0.5297420000000  0.4645600000000 1.0
C      1  0.4262140000000  0.4696940000000  0.4550670000000 1.0
C      1  0.4510150000000  0.4658820000000  0.4402140000000 1.0
C      1  0.4812360000000  0.4825680000000  0.5477070000000 1.0
C      1  0.5158080000000  0.5814290000000  0.4626300000000 1.0
C      1  0.5051420000000  0.4648640000000  0.5397210000000 1.0
C      1  0.4359210000000  0.4845290000000  0.5707150000000 1.0
C      1  0.4950140000000  0.4778990000000  0.4199350000000 1.0
C      1  0.5147880000000  0.5412060000000  0.4896200000000 1.0
C      1  0.5600780000000  0.5176570000000  0.5484140000000 1.0
C      1  0.5413460000000  0.4641400000000  0.4484100000000 1.0
C      1  0.5877740000000  0.5220210000000  0.5222210000000 1.0
C      1  0.5198480000000  0.4542820000000  0.5645950000000 1.0
C      1  0.5470470000000  0.5367650000000  0.5283360000000 1.0
C      1  0.5332290000000  0.4797310000000  0.5722120000000 1.0
C      1  0.5728550000000  0.4570810000000  0.4901010000000 1.0
C      1  0.5825110000000  0.5413320000000  0.5020780000000 1.0
C      1  0.5819050000000  0.4694740000000  0.5158790000000 1.0
C      1  0.4482080000000  0.5565970000000  0.5044920000000 1.0
C      1  0.4249710000000  0.5114320000000  0.5670460000000 1.0
C      1  0.4640920000000  0.4403130000000  0.4485300000000 1.0
C      1  0.4296590000000  0.5497820000000  0.4833990000000 1.0
C      1  0.5107440000000  0.4944820000000  0.4379990000000 1.0
C      1  0.4428850000000  0.5682310000000  0.5300050000000 1.0
C      1  0.4893470000000  0.5802820000000  0.4504620000000 1.0
C      1  0.5018560000000  0.5006380000000  0.4659830000000 1.0
C      1  0.4809770000000  0.5113270000000  0.5377800000000 1.0
C      1  0.4401410000000  0.5241600000000  0.4461120000000 1.0
C      1  0.4515820000000  0.4740780000000  0.5462820000000 1.0
C      1  0.4473260000000  0.4890820000000  0.5192040000000 1.0
C      1  0.4995360000000  0.4434600000000  0.5161930000000 1.0
C      1  0.5227480000000  0.5274390000000  0.5782500000000 1.0
C      1  0.5650990000000  0.5572810000000  0.4856280000000 1.0
C      1  0.5703950000000  0.4723230000000  0.4435200000000 1.0
C      1  0.5499510000000  0.4865720000000  0.5477000000000 1.0
C      1  0.4443280000000  0.4464960000000  0.5417430000000 1.0
C      1  0.4981830000000  0.5201830000000  0.5178080000000 1.0
C      1  0.4818620000000  0.5338800000000  0.4199940000000 1.0
C      1  0.4892020000000  0.4182960000000  0.5267400000000 1.0
C      1  0.5502520000000  0.4954440000000  0.4111310000000 1.0
C      1  0.5739880000000  0.4966990000000  0.4282080000000 1.0
C      1  0.4716230000000  0.5709210000000  0.5396410000000 1.0
C      1  0.5068760000000  0.4054900000000  0.4883470000000 1.0
C      1  0.4772130000000  0.5493760000000  0.5600740000000 1.0
C      1  0.4517480000000  0.4342640000000  0.4962010000000 1.0
C      1  0.4461330000000  0.5311360000000  0.5563260000000 1.0
C      1  0.4465930000000  0.5133120000000  0.4752310000000 1.0
C      1  0.5566110000000  0.5512310000000  0.4576400000000 1.0
C      1  0.4893290000000  0.4903530000000  0.5907490000000 1.0
C      1  0.4443030000000  0.5527590000000  0.4573810000000 1.0
C      1  0.5121880000000  0.4654030000000  0.4009680000000 1.0
C      1  0.5373110000000  0.5815100000000  0.5484880000000 1.0
C      1  0.4259190000000  0.5513980000000  0.5474980000000 1.0
C      1  0.5506520000000  0.5292390000000  0.5733860000000 1.0
C      1  0.4233550000000  0.4473030000000  0.4726980000000 1.0
C      1  0.5103170000000  0.4252750000000  0.4655510000000 1.0
C      1  0.4721450000000  0.4958490000000  0.4760170000000 1.0
C      1  0.4200850000000  0.4970200000000  0.4652690000000 1.0
C      1  0.4897100000000  0.5759570000000  0.5145400000000 1.0
C      1  0.5320670000000  0.4819240000000  0.4744240000000 1.0
C      1  0.4694940000000  0.4797060000000  0.4993200000000 1.0
C      1  0.4696430000000  0.5711440000000  0.4940710000000 1.0
C      1  0.4684330000000  0.5049850000000  0.6016580000000 1.0
C      1  0.5197630000000  0.5371870000000  0.4170060000000 1.0
C      1  0.4777240000000  0.4511580000000  0.4948200000000 1.0
C      1  0.5401000000000  0.4281160000000  0.5067440000000 1.0
C      1  0.5279130000000  0.4803110000000  0.5259730000000 1.0
C      1  0.5504550000000  0.5663620000000  0.5290460000000 1.0
C      1  0.5296220000000  0.4019970000000  0.5045730000000 1.0
C      1  0.4708390000000  0.5643430000000  0.4661430000000 1.0
C      1  0.4324320000000  0.4473140000000  0.5161770000000 1.0
C      1  0.4008990000000  0.5127160000000  0.5519300000000 1.0
C      1  0.5050560000000  0.5500890000000  0.5709130000000 1.0
C      1  0.5573970000000  0.4328590000000  0.4836420000000 1.0
C      1  0.5838960000000  0.4990700000000  0.4807060000000 1.0
C      1  0.4824590000000  0.4047760000000  0.5034150000000 1.0
C      1  0.5013110000000  0.5461810000000  0.4395740000000 1.0
C      1  0.5914020000000  0.4967170000000  0.5089860000000 1.0
C      1  0.5639300000000  0.4400840000000  0.5507480000000 1.0
C      1  0.5391890000000  0.4345830000000  0.5601450000000 1.0
C      1  0.5851360000000  0.4721990000000  0.4685620000000 1.0
C      1  0.5535140000000  0.5060380000000  0.4772440000000 1.0
C      1  0.4209690000000  0.5220730000000  0.5085100000000 1.0
C      1  0.5187800000000  0.5738260000000  0.5662710000000 1.0
C      1  0.4625980000000  0.5143250000000  0.4291560000000 1.0
C      1  0.5543670000000  0.5213530000000  0.4505480000000 1.0
END
