TITL C-951344-124-279 -3.06732257031431e-07 125000 -455.165911000736 0 0 75 (C1) n - 1
REM
REM in /home/bkarasulu/work/CARBON/AIRSS/Generating-Clusters/EDIP-Nigel-Params/with-SteepDescent/Only-C1/SD-CG/HFTN-CG
REM
REM
REM
REM
REM
REM ./C.cell (11c1c37f851c82e70ff6c80c92926a4b)
REM
REM compiler GCC version 9.2.1 20190827 (Red Hat 9.2.1-1)
REM options -cpp -mtune=generic -march=x86-64 -g -O0 -fpre-include=/usr/include/finclude/math-vector-fortran.h
REM seed 1431155816 -910747518 -967984556 1489995031 1872734569 1560680325 1087232773 1069478216 -1274933547 -1555131837 -1095724219 -1678704363 -551746677 -1466600784 1283045542 1349374662 -870577850 -925439379 -412166284 -776090957 1047169537 -1985051618 181116976 1003485225 747685487 -2083722913 -950957590 -1302882574 2141070104 -2136203303 -1336517318 1236428727 -1317712048
REM
CELL 1.54180   50.00000   50.00000   50.00000   90.00000   90.00000   90.00000
LATT -1
SFAC C  
C      1  0.5442240000000  0.4968520000000  0.4562850000000 1.0
C      1  0.4765630000000  0.5208270000000  0.4714780000000 1.0
C      1  0.4487710000000  0.4635020000000  0.5302960000000 1.0
C      1  0.4861740000000  0.5889050000000  0.4982520000000 1.0
C      1  0.5426930000000  0.5553710000000  0.5263480000000 1.0
C      1  0.4184840000000  0.5079230000000  0.4660530000000 1.0
C      1  0.4188450000000  0.4930750000000  0.4917020000000 1.0
C      1  0.5361750000000  0.4568710000000  0.5263460000000 1.0
C      1  0.5103980000000  0.4231770000000  0.4639130000000 1.0
C      1  0.5536250000000  0.5628260000000  0.5004760000000 1.0
C      1  0.5348530000000  0.5007650000000  0.4846950000000 1.0
C      1  0.5562380000000  0.4557950000000  0.4795610000000 1.0
C      1  0.5125510000000  0.5859020000000  0.5080980000000 1.0
C      1  0.5022850000000  0.4549530000000  0.5285750000000 1.0
C      1  0.5690490000000  0.5096410000000  0.4482240000000 1.0
C      1  0.4226910000000  0.5400040000000  0.5117410000000 1.0
C      1  0.5505500000000  0.4204700000000  0.4933920000000 1.0
C      1  0.5269490000000  0.5761700000000  0.4586480000000 1.0
C      1  0.5016800000000  0.5234340000000  0.4298700000000 1.0
C      1  0.4634950000000  0.5418180000000  0.5397770000000 1.0
C      1  0.4983040000000  0.4758170000000  0.4563450000000 1.0
C      1  0.5553480000000  0.4612440000000  0.5496130000000 1.0
C      1  0.4832370000000  0.5672000000000  0.4806530000000 1.0
C      1  0.4590140000000  0.4517880000000  0.5561000000000 1.0
C      1  0.5189710000000  0.4571720000000  0.4492650000000 1.0
C      1  0.5819910000000  0.5023010000000  0.4708760000000 1.0
C      1  0.5057590000000  0.5601180000000  0.5559660000000 1.0
C      1  0.4745670000000  0.4706910000000  0.4393620000000 1.0
C      1  0.5463160000000  0.4756320000000  0.5017890000000 1.0
C      1  0.5767650000000  0.5115210000000  0.4969790000000 1.0
C      1  0.5367970000000  0.5265340000000  0.5229020000000 1.0
C      1  0.5035120000000  0.5358090000000  0.5680900000000 1.0
C      1  0.4517250000000  0.5061890000000  0.5082900000000 1.0
C      1  0.5388150000000  0.4232580000000  0.4680820000000 1.0
C      1  0.4667930000000  0.4774140000000  0.5747070000000 1.0
C      1  0.5433880000000  0.4817920000000  0.5678770000000 1.0
C      1  0.4240000000000  0.4627010000000  0.4872920000000 1.0
C      1  0.5567290000000  0.5102250000000  0.5367370000000 1.0
C      1  0.4452090000000  0.4486070000000  0.5038560000000 1.0
C      1  0.5349680000000  0.4270720000000  0.5165860000000 1.0
C      1  0.4303080000000  0.4615390000000  0.4578480000000 1.0
C      1  0.4755980000000  0.5231670000000  0.4424400000000 1.0
C      1  0.4702340000000  0.5007130000000  0.5551480000000 1.0
C      1  0.4688380000000  0.4485950000000  0.4828530000000 1.0
C      1  0.4598670000000  0.4973040000000  0.4786220000000 1.0
C      1  0.5692600000000  0.4900980000000  0.5185170000000 1.0
C      1  0.4957310000000  0.4661340000000  0.5759800000000 1.0
C      1  0.5099610000000  0.5563380000000  0.4740460000000 1.0
C      1  0.5042030000000  0.5158670000000  0.5245170000000 1.0
C      1  0.5045600000000  0.4291230000000  0.5119760000000 1.0
C      1  0.5456930000000  0.4667950000000  0.4535640000000 1.0
C      1  0.4917350000000  0.4281880000000  0.4857210000000 1.0
C      1  0.5491420000000  0.5247730000000  0.4949650000000 1.0
C      1  0.4227730000000  0.5122430000000  0.5162800000000 1.0
C      1  0.4810300000000  0.5364650000000  0.5182580000000 1.0
C      1  0.4918810000000  0.4810470000000  0.5139110000000 1.0
C      1  0.4691050000000  0.5431000000000  0.4903190000000 1.0
C      1  0.5142650000000  0.4854470000000  0.5641230000000 1.0
C      1  0.4895000000000  0.4456970000000  0.5548550000000 1.0
C      1  0.4536540000000  0.5244820000000  0.5586340000000 1.0
C      1  0.4384530000000  0.5464050000000  0.4891550000000 1.0
C      1  0.4653730000000  0.4879050000000  0.5273860000000 1.0
C      1  0.5173420000000  0.5293280000000  0.4564940000000 1.0
C      1  0.4272770000000  0.5346960000000  0.4662040000000 1.0
C      1  0.4589770000000  0.4963270000000  0.4398360000000 1.0
C      1  0.4995310000000  0.5103710000000  0.5546020000000 1.0
C      1  0.5372850000000  0.5569720000000  0.4393860000000 1.0
C      1  0.5185090000000  0.5697290000000  0.5324570000000 1.0
C      1  0.5801410000000  0.4698770000000  0.5378220000000 1.0
C      1  0.4578120000000  0.4501510000000  0.4543380000000 1.0
C      1  0.5567510000000  0.5063850000000  0.5643640000000 1.0
C      1  0.5356630000000  0.5823310000000  0.4883570000000 1.0
C      1  0.5185800000000  0.5454630000000  0.4211640000000 1.0
C      1  0.4821490000000  0.4758360000000  0.4839140000000 1.0
C      1  0.4303180000000  0.4897400000000  0.4468470000000 1.0
END
