TITL C-950526-5686-238 -3.42358110885643e-07 125000 -425.833162824945 0 0 69 (C1) n - 1
REM
REM in /home/bkarasulu/work/CARBON/AIRSS/Generating-Clusters/EDIP-Nigel-Params/with-SteepDescent/Only-C1/SD-CG/HFTN-CG
REM
REM
REM
REM
REM
REM ./C.cell (11c1c37f851c82e70ff6c80c92926a4b)
REM
REM compiler GCC version 9.2.1 20190827 (Red Hat 9.2.1-1)
REM options -cpp -mtune=generic -march=x86-64 -g -O0 -fpre-include=/usr/include/finclude/math-vector-fortran.h
REM seed 1338100519 -1753655542 -1692543958 -2024166366 206290331 -659547398 -1213687283 270978998 -1237363963 361584939 -1213851244 -161674685 -2011724718 -1371962386 803719404 -529554850 -2030421577 2118609134 -28263745 1612920208 955619744 1172547705 852005486 -1964258987 -1039520564 -1561410373 1840236201 -1865691189 -1921841783 1564074428 -248727963 -253851737 1930478123
REM
CELL 1.54180   50.00000   50.00000   50.00000   90.00000   90.00000   90.00000
LATT -1
SFAC C  
C      1  0.5180570000000  0.5493310000000  0.4775250000000 1.0
C      1  0.4380200000000  0.4830710000000  0.5131870000000 1.0
C      1  0.4466700000000  0.4400000000000  0.4526620000000 1.0
C      1  0.4740260000000  0.5519650000000  0.5581750000000 1.0
C      1  0.4612080000000  0.4842190000000  0.4941710000000 1.0
C      1  0.5651340000000  0.4455680000000  0.4779380000000 1.0
C      1  0.4322190000000  0.4632160000000  0.4604070000000 1.0
C      1  0.4520820000000  0.5033390000000  0.5553260000000 1.0
C      1  0.5608200000000  0.4248110000000  0.4963490000000 1.0
C      1  0.4500270000000  0.5523960000000  0.5428970000000 1.0
C      1  0.4866950000000  0.5629510000000  0.5131600000000 1.0
C      1  0.4732530000000  0.5028170000000  0.5736850000000 1.0
C      1  0.4436790000000  0.5134180000000  0.4601780000000 1.0
C      1  0.5463190000000  0.5091130000000  0.5653020000000 1.0
C      1  0.5325330000000  0.5881340000000  0.5208870000000 1.0
C      1  0.4939630000000  0.5496150000000  0.5385560000000 1.0
C      1  0.4762240000000  0.4732020000000  0.4498330000000 1.0
C      1  0.5203050000000  0.4023660000000  0.4857430000000 1.0
C      1  0.5530510000000  0.4929520000000  0.5210560000000 1.0
C      1  0.4942290000000  0.4120260000000  0.4904220000000 1.0
C      1  0.5194070000000  0.4490770000000  0.5477630000000 1.0
C      1  0.5397120000000  0.5348680000000  0.4951100000000 1.0
C      1  0.5034600000000  0.5044050000000  0.5165190000000 1.0
C      1  0.5254360000000  0.4895230000000  0.4362300000000 1.0
C      1  0.5669240000000  0.5711370000000  0.4897840000000 1.0
C      1  0.4522460000000  0.4302660000000  0.5009760000000 1.0
C      1  0.5464360000000  0.5900160000000  0.4930300000000 1.0
C      1  0.4940420000000  0.4245450000000  0.5158610000000 1.0
C      1  0.4977250000000  0.4666370000000  0.5533500000000 1.0
C      1  0.5393380000000  0.4560570000000  0.4673610000000 1.0
C      1  0.4665950000000  0.5313240000000  0.4525590000000 1.0
C      1  0.5375700000000  0.5363730000000  0.5258570000000 1.0
C      1  0.5183380000000  0.5130730000000  0.5631330000000 1.0
C      1  0.4164380000000  0.4661990000000  0.5057200000000 1.0
C      1  0.4717280000000  0.4602040000000  0.5409410000000 1.0
C      1  0.4485480000000  0.4786020000000  0.5407630000000 1.0
C      1  0.5800720000000  0.4664120000000  0.4890740000000 1.0
C      1  0.4271780000000  0.4422280000000  0.4994880000000 1.0
C      1  0.5111720000000  0.5256300000000  0.5363070000000 1.0
C      1  0.4927510000000  0.5190060000000  0.4497630000000 1.0
C      1  0.5735500000000  0.5343300000000  0.4608320000000 1.0
C      1  0.5361040000000  0.4157970000000  0.5053300000000 1.0
C      1  0.5202150000000  0.5805660000000  0.4794230000000 1.0
C      1  0.4896070000000  0.5447990000000  0.4889100000000 1.0
C      1  0.5269580000000  0.4727620000000  0.4863960000000 1.0
C      1  0.4524190000000  0.5246800000000  0.5087770000000 1.0
C      1  0.4527850000000  0.4838080000000  0.4653820000000 1.0
C      1  0.5403680000000  0.5640600000000  0.5338550000000 1.0
C      1  0.5198600000000  0.4321600000000  0.5249000000000 1.0
C      1  0.5557140000000  0.5158000000000  0.5393870000000 1.0
C      1  0.4674120000000  0.4197330000000  0.4772700000000 1.0
C      1  0.4709040000000  0.4391110000000  0.5211230000000 1.0
C      1  0.5374660000000  0.5150770000000  0.4437470000000 1.0
C      1  0.5045200000000  0.5869180000000  0.5063820000000 1.0
C      1  0.5282680000000  0.4933070000000  0.5050540000000 1.0
C      1  0.5762790000000  0.4844470000000  0.5084420000000 1.0
C      1  0.4439450000000  0.5561530000000  0.4872980000000 1.0
C      1  0.5387790000000  0.4653100000000  0.4407390000000 1.0
C      1  0.4320480000000  0.5269200000000  0.4847840000000 1.0
C      1  0.4682620000000  0.5546080000000  0.4700420000000 1.0
C      1  0.5665870000000  0.5435910000000  0.4861300000000 1.0
C      1  0.5170020000000  0.5349970000000  0.4504660000000 1.0
C      1  0.4969810000000  0.4918730000000  0.4420920000000 1.0
C      1  0.4744030000000  0.4444950000000  0.4482700000000 1.0
C      1  0.4377820000000  0.5259440000000  0.5437310000000 1.0
C      1  0.4561600000000  0.5659160000000  0.5155980000000 1.0
C      1  0.4989380000000  0.4913180000000  0.5706030000000 1.0
C      1  0.5638950000000  0.5225560000000  0.4386590000000 1.0
C      1  0.4791570000000  0.5088720000000  0.4993290000000 1.0
END
