TITL C-951334-9093-336 -1.89905500561949e-06 125000 -253.011646310899 0 0 42 (C1) n - 1
REM
REM in /home/bkarasulu/work/CARBON/AIRSS/Generating-Clusters/EDIP-Nigel-Params/with-SteepDescent/Only-C1/SD-CG/HFTN-CG
REM
REM
REM
REM
REM
REM ./C.cell (11c1c37f851c82e70ff6c80c92926a4b)
REM
REM compiler GCC version 9.2.1 20190827 (Red Hat 9.2.1-1)
REM options -cpp -mtune=generic -march=x86-64 -g -O0 -fpre-include=/usr/include/finclude/math-vector-fortran.h
REM seed -1027308708 1459847733 1116840034 -1710042512 646575448 1488533138 -548015506 1931827539 79024291 438451889 1801146442 -1731386469 -1601597615 1032440690 536651918 133992810 -480043825 -84564518 2014180004 951836082 284052267 634964424 -668140986 1238244996 -1980840196 1202464717 -1316059405 577573013 175740004 -2058117839 1201068624 -742536600 95024072
REM
CELL 1.54180   50.00000   50.00000   50.00000   90.00000   90.00000   90.00000
LATT -1
SFAC C  
C      1  0.5617800000000  0.5305400000000  0.4884940000000 1.0
C      1  0.4945780000000  0.4822740000000  0.4390080000000 1.0
C      1  0.4716330000000  0.5384310000000  0.5368440000000 1.0
C      1  0.5453130000000  0.4823270000000  0.4892710000000 1.0
C      1  0.4587950000000  0.5529600000000  0.4821790000000 1.0
C      1  0.5044600000000  0.5222410000000  0.4657790000000 1.0
C      1  0.5076740000000  0.5097470000000  0.5527050000000 1.0
C      1  0.5309600000000  0.5135160000000  0.4526440000000 1.0
C      1  0.4985330000000  0.4849190000000  0.5652580000000 1.0
C      1  0.5046590000000  0.5622530000000  0.4850990000000 1.0
C      1  0.4893090000000  0.5305670000000  0.5566320000000 1.0
C      1  0.5230670000000  0.4883500000000  0.4403590000000 1.0
C      1  0.5532370000000  0.5073900000000  0.4726890000000 1.0
C      1  0.4814000000000  0.4472160000000  0.5055760000000 1.0
C      1  0.4723790000000  0.4753450000000  0.4983060000000 1.0
C      1  0.4894390000000  0.4552290000000  0.4464230000000 1.0
C      1  0.5179790000000  0.5065660000000  0.5220480000000 1.0
C      1  0.5178660000000  0.4794600000000  0.4765230000000 1.0
C      1  0.4548420000000  0.5042680000000  0.4684220000000 1.0
C      1  0.4665970000000  0.4897340000000  0.5235660000000 1.0
C      1  0.5062040000000  0.4520150000000  0.4691120000000 1.0
C      1  0.5302670000000  0.4504060000000  0.5543190000000 1.0
C      1  0.4664590000000  0.5181020000000  0.5168390000000 1.0
C      1  0.5421310000000  0.4875080000000  0.5186150000000 1.0
C      1  0.5283280000000  0.5492440000000  0.4948760000000 1.0
C      1  0.5110470000000  0.4329680000000  0.5434180000000 1.0
C      1  0.5599660000000  0.5283080000000  0.5171790000000 1.0
C      1  0.5441300000000  0.4650500000000  0.5351750000000 1.0
C      1  0.4792510000000  0.5633950000000  0.5008290000000 1.0
C      1  0.4738010000000  0.5649640000000  0.5286100000000 1.0
C      1  0.5314730000000  0.5337480000000  0.5192280000000 1.0
C      1  0.4824650000000  0.5043110000000  0.4548350000000 1.0
C      1  0.4488360000000  0.4773590000000  0.4790610000000 1.0
C      1  0.4966800000000  0.5510970000000  0.4592840000000 1.0
C      1  0.4445990000000  0.4584630000000  0.4607740000000 1.0
C      1  0.4990280000000  0.4977340000000  0.4949020000000 1.0
C      1  0.4532980000000  0.5250570000000  0.4910460000000 1.0
C      1  0.4886150000000  0.4471340000000  0.5336250000000 1.0
C      1  0.4829960000000  0.4741410000000  0.5428840000000 1.0
C      1  0.4686440000000  0.5549780000000  0.4554070000000 1.0
C      1  0.5189240000000  0.4671490000000  0.5738180000000 1.0
C      1  0.4983570000000  0.4335370000000  0.4883400000000 1.0
END
