TITL C-951345-2650-394 5.79405539030034e-08 125000 -413.214370015684 0 0 68 (C1) n - 1
REM
REM in /home/bkarasulu/work/CARBON/AIRSS/Generating-Clusters/EDIP-Nigel-Params/with-SteepDescent/Only-C1/SD-CG/HFTN-CG
REM
REM
REM
REM
REM
REM ./C.cell (11c1c37f851c82e70ff6c80c92926a4b)
REM
REM compiler GCC version 9.2.1 20190827 (Red Hat 9.2.1-1)
REM options -cpp -mtune=generic -march=x86-64 -g -O0 -fpre-include=/usr/include/finclude/math-vector-fortran.h
REM seed -50456276 -836783799 -1016022017 1392834126 315856922 1381354742 -1843996710 296059854 1411462588 -1081706319 -369699698 108896016 795634660 392607492 574062659 -410380229 -555024818 -1773696357 -787001010 401926433 -42833681 -350435130 588659087 -988622237 -1709008819 349532916 1317382361 -317632175 1400724867 -179342198 -1903669066 1640164151 -2096491430
REM
CELL 1.54180   50.00000   50.00000   50.00000   90.00000   90.00000   90.00000
LATT -1
SFAC C  
C      1  0.5088700000000  0.5395700000000  0.4480600000000 1.0
C      1  0.4905470000000  0.5914380000000  0.5214850000000 1.0
C      1  0.5559460000000  0.4967330000000  0.4783450000000 1.0
C      1  0.4716380000000  0.4795460000000  0.4582270000000 1.0
C      1  0.4606960000000  0.4594040000000  0.5334930000000 1.0
C      1  0.5211470000000  0.4738940000000  0.5093610000000 1.0
C      1  0.5048950000000  0.5570650000000  0.4716680000000 1.0
C      1  0.5148360000000  0.5551640000000  0.5142330000000 1.0
C      1  0.4616820000000  0.5532400000000  0.5300050000000 1.0
C      1  0.4642170000000  0.4495040000000  0.4509120000000 1.0
C      1  0.5615180000000  0.4875820000000  0.5268070000000 1.0
C      1  0.5363090000000  0.5286910000000  0.4437400000000 1.0
C      1  0.5361710000000  0.5855060000000  0.5391830000000 1.0
C      1  0.5342550000000  0.4563800000000  0.5532380000000 1.0
C      1  0.4151140000000  0.5204190000000  0.4862510000000 1.0
C      1  0.4440520000000  0.4546900000000  0.5103030000000 1.0
C      1  0.5563920000000  0.5458470000000  0.4537400000000 1.0
C      1  0.5097220000000  0.4351270000000  0.4467870000000 1.0
C      1  0.5430750000000  0.4828680000000  0.5495200000000 1.0
C      1  0.5043570000000  0.3950390000000  0.5051040000000 1.0
C      1  0.4565020000000  0.5092690000000  0.5334480000000 1.0
C      1  0.5002400000000  0.4345280000000  0.4759080000000 1.0
C      1  0.4870170000000  0.5329740000000  0.5678000000000 1.0
C      1  0.5394180000000  0.5303580000000  0.5380250000000 1.0
C      1  0.5044560000000  0.5264640000000  0.5216250000000 1.0
C      1  0.4645180000000  0.5362020000000  0.5844930000000 1.0
C      1  0.4698210000000  0.4300630000000  0.4729140000000 1.0
C      1  0.4734430000000  0.5713790000000  0.5102570000000 1.0
C      1  0.5366460000000  0.4303840000000  0.5101750000000 1.0
C      1  0.4729030000000  0.4376750000000  0.5452450000000 1.0
C      1  0.5270660000000  0.5071100000000  0.5537270000000 1.0
C      1  0.5024900000000  0.5078450000000  0.5703880000000 1.0
C      1  0.4837490000000  0.4873890000000  0.5654840000000 1.0
C      1  0.4574140000000  0.5417630000000  0.4744860000000 1.0
C      1  0.5504780000000  0.4761350000000  0.5005850000000 1.0
C      1  0.4880820000000  0.4502260000000  0.4318030000000 1.0
C      1  0.5025630000000  0.5037460000000  0.5015540000000 1.0
C      1  0.4618360000000  0.4843110000000  0.5481080000000 1.0
C      1  0.4308410000000  0.4752220000000  0.4969990000000 1.0
C      1  0.4876120000000  0.5214690000000  0.4395070000000 1.0
C      1  0.5535790000000  0.4436640000000  0.4658930000000 1.0
C      1  0.4909730000000  0.5040580000000  0.4174940000000 1.0
C      1  0.4523360000000  0.4334570000000  0.4945160000000 1.0
C      1  0.5391700000000  0.5005780000000  0.4543410000000 1.0
C      1  0.4352230000000  0.5279440000000  0.5432370000000 1.0
C      1  0.4792080000000  0.5303140000000  0.5386190000000 1.0
C      1  0.5351040000000  0.4502180000000  0.4456780000000 1.0
C      1  0.5099010000000  0.5764500000000  0.5347570000000 1.0
C      1  0.4613080000000  0.5241300000000  0.4518460000000 1.0
C      1  0.5518030000000  0.5688440000000  0.4949700000000 1.0
C      1  0.5217700000000  0.4498790000000  0.5288670000000 1.0
C      1  0.5512690000000  0.5652440000000  0.5251060000000 1.0
C      1  0.4864600000000  0.4838180000000  0.4839960000000 1.0
C      1  0.5040100000000  0.4618020000000  0.4877860000000 1.0
C      1  0.5559020000000  0.4473660000000  0.4934890000000 1.0
C      1  0.5169280000000  0.4151260000000  0.4928450000000 1.0
C      1  0.4938930000000  0.4239840000000  0.5509270000000 1.0
C      1  0.5257780000000  0.5741200000000  0.4820850000000 1.0
C      1  0.5615820000000  0.5170480000000  0.5222230000000 1.0
C      1  0.5586690000000  0.5210960000000  0.4936600000000 1.0
C      1  0.5640090000000  0.5463790000000  0.4806340000000 1.0
C      1  0.4304570000000  0.4976250000000  0.4803420000000 1.0
C      1  0.4426250000000  0.5370230000000  0.5685200000000 1.0
C      1  0.5279630000000  0.4782340000000  0.4391590000000 1.0
C      1  0.4317950000000  0.5417300000000  0.4854610000000 1.0
C      1  0.4994190000000  0.4796680000000  0.4306520000000 1.0
C      1  0.4781060000000  0.5596800000000  0.4832140000000 1.0
C      1  0.4482270000000  0.4983010000000  0.4566920000000 1.0
END
