TITL C-951334-9093-571 -7.61488789692724e-07 125000 -481.160329323825 0 0 78 (C1) n - 1
REM
REM in /home/bkarasulu/work/CARBON/AIRSS/Generating-Clusters/EDIP-Nigel-Params/with-SteepDescent/Only-C1/SD-CG/HFTN-CG
REM
REM
REM
REM
REM
REM ./C.cell (11c1c37f851c82e70ff6c80c92926a4b)
REM
REM compiler GCC version 9.2.1 20190827 (Red Hat 9.2.1-1)
REM options -cpp -mtune=generic -march=x86-64 -g -O0 -fpre-include=/usr/include/finclude/math-vector-fortran.h
REM seed 1683183032 1900755411 1330455545 -954709118 -1467840547 -1551860957 -1922074590 -1391441662 -807705692 1876264662 506294715 917500039 -357130617 2001361342 -751893998 -1602982267 -28426286 -1946891285 456397220 -1971387220 1845717028 2094073889 471985999 732422438 1492313071 334333975 4885432 1752341715 -333100768 1027782825 1252407750 -1322156600 -868971133
REM
CELL 1.54180   50.00000   50.00000   50.00000   90.00000   90.00000   90.00000
LATT -1
SFAC C  
C      1  0.5243150000000  0.4325130000000  0.4666530000000 1.0
C      1  0.5322790000000  0.4742120000000  0.5652420000000 1.0
C      1  0.4540950000000  0.4157650000000  0.4862060000000 1.0
C      1  0.5536200000000  0.4575540000000  0.4890950000000 1.0
C      1  0.4359390000000  0.5351790000000  0.5145790000000 1.0
C      1  0.4935240000000  0.4869660000000  0.4312990000000 1.0
C      1  0.4801350000000  0.5112870000000  0.5052990000000 1.0
C      1  0.4773800000000  0.5618020000000  0.5081100000000 1.0
C      1  0.4155840000000  0.4866030000000  0.4901840000000 1.0
C      1  0.4676610000000  0.4604990000000  0.5451960000000 1.0
C      1  0.5487000000000  0.4313160000000  0.5280960000000 1.0
C      1  0.5186620000000  0.5043370000000  0.4366900000000 1.0
C      1  0.5146970000000  0.4605310000000  0.5467360000000 1.0
C      1  0.4946310000000  0.4594620000000  0.4411790000000 1.0
C      1  0.4431710000000  0.4855230000000  0.4447720000000 1.0
C      1  0.5448740000000  0.4896850000000  0.4363900000000 1.0
C      1  0.4462820000000  0.4589200000000  0.4569650000000 1.0
C      1  0.5546890000000  0.5316680000000  0.4601360000000 1.0
C      1  0.5493920000000  0.5418720000000  0.4894500000000 1.0
C      1  0.4505420000000  0.5112050000000  0.4974520000000 1.0
C      1  0.5509640000000  0.4345100000000  0.4736850000000 1.0
C      1  0.4706640000000  0.4435100000000  0.4490010000000 1.0
C      1  0.5219720000000  0.5448840000000  0.5613670000000 1.0
C      1  0.5522070000000  0.5465810000000  0.5598640000000 1.0
C      1  0.4941170000000  0.4815900000000  0.5814710000000 1.0
C      1  0.5218310000000  0.4333600000000  0.5359980000000 1.0
C      1  0.4256850000000  0.5017140000000  0.4637680000000 1.0
C      1  0.4695060000000  0.5686570000000  0.4625680000000 1.0
C      1  0.5581890000000  0.5172150000000  0.5255140000000 1.0
C      1  0.5138200000000  0.5152870000000  0.4643880000000 1.0
C      1  0.4822470000000  0.5599390000000  0.5384700000000 1.0
C      1  0.4621540000000  0.4890960000000  0.5386640000000 1.0
C      1  0.5575520000000  0.5623960000000  0.5340110000000 1.0
C      1  0.4688480000000  0.5362970000000  0.5547620000000 1.0
C      1  0.4160810000000  0.5016610000000  0.5165150000000 1.0
C      1  0.5638360000000  0.4506810000000  0.5148590000000 1.0
C      1  0.5716430000000  0.4944710000000  0.5116020000000 1.0
C      1  0.4999840000000  0.4315800000000  0.4851180000000 1.0
C      1  0.5278210000000  0.5177460000000  0.5183650000000 1.0
C      1  0.5343950000000  0.5023890000000  0.5655580000000 1.0
C      1  0.5241440000000  0.5571940000000  0.4981830000000 1.0
C      1  0.5567290000000  0.4881640000000  0.4858520000000 1.0
C      1  0.5302160000000  0.5718700000000  0.5240900000000 1.0
C      1  0.5595260000000  0.5169940000000  0.5565220000000 1.0
C      1  0.5621060000000  0.5017320000000  0.4575270000000 1.0
C      1  0.5100660000000  0.5668720000000  0.5460680000000 1.0
C      1  0.5153620000000  0.5181440000000  0.5471310000000 1.0
C      1  0.4937330000000  0.5370440000000  0.4977910000000 1.0
C      1  0.5150830000000  0.5756560000000  0.4768130000000 1.0
C      1  0.5424700000000  0.4619840000000  0.4344530000000 1.0
C      1  0.4408160000000  0.5306830000000  0.5447820000000 1.0
C      1  0.4452290000000  0.5571520000000  0.4742110000000 1.0
C      1  0.4824990000000  0.5072290000000  0.5780080000000 1.0
C      1  0.4931230000000  0.5382380000000  0.4662910000000 1.0
C      1  0.4905670000000  0.4594000000000  0.5636300000000 1.0
C      1  0.4787520000000  0.4624720000000  0.4954730000000 1.0
C      1  0.4951160000000  0.4859960000000  0.5027450000000 1.0
C      1  0.4695250000000  0.4987500000000  0.4430740000000 1.0
C      1  0.5360640000000  0.5450730000000  0.4399990000000 1.0
C      1  0.4998010000000  0.4251270000000  0.5172160000000 1.0
C      1  0.4448170000000  0.5267620000000  0.4698780000000 1.0
C      1  0.5685640000000  0.5429650000000  0.5135460000000 1.0
C      1  0.5107840000000  0.4778990000000  0.5243290000000 1.0
C      1  0.4836920000000  0.5106610000000  0.5496750000000 1.0
C      1  0.5226180000000  0.5284850000000  0.4206970000000 1.0
C      1  0.4310940000000  0.4530960000000  0.5019460000000 1.0
C      1  0.4348200000000  0.5005770000000  0.5411490000000 1.0
C      1  0.4499410000000  0.4696960000000  0.4855150000000 1.0
C      1  0.5203420000000  0.4466630000000  0.4420240000000 1.0
C      1  0.5754000000000  0.4722560000000  0.5281190000000 1.0
C      1  0.4866970000000  0.5794060000000  0.4831680000000 1.0
C      1  0.4734490000000  0.4433040000000  0.5198060000000 1.0
C      1  0.4480070000000  0.4307120000000  0.5091540000000 1.0
C      1  0.5213520000000  0.5666320000000  0.4508830000000 1.0
C      1  0.5311660000000  0.5072640000000  0.4888080000000 1.0
C      1  0.4479750000000  0.5595810000000  0.5031740000000 1.0
C      1  0.4759230000000  0.4224410000000  0.4696840000000 1.0
C      1  0.4687440000000  0.5253670000000  0.4533100000000 1.0
END
