TITL C-950532-2784-556 2.23466060979044e-07 125000 -547.539346405244 0 0 89 (C1) n - 1
REM
REM in /home/bkarasulu/work/CARBON/AIRSS/Generating-Clusters/EDIP-Nigel-Params/with-SteepDescent/Only-C1/SD-CG/HFTN-CG
REM
REM
REM
REM
REM
REM ./C.cell (11c1c37f851c82e70ff6c80c92926a4b)
REM
REM compiler GCC version 9.2.1 20190827 (Red Hat 9.2.1-1)
REM options -cpp -mtune=generic -march=x86-64 -g -O0 -fpre-include=/usr/include/finclude/math-vector-fortran.h
REM seed 277309938 857899812 735769569 -1504100814 1445527427 -1456931097 -1952780576 947691096 1028044689 -1346742174 -1119948863 378076083 -1620709296 -126134945 -1744338010 -1523691056 -955222069 1629963019 -518126476 -1518535223 -456723462 -357098432 -1506834546 1738969816 -822961379 1178964382 -2035369617 210537655 1143552332 -250549285 -2021578622 -2058873110 1926737138
REM
CELL 1.54180   50.00000   50.00000   50.00000   90.00000   90.00000   90.00000
LATT -1
SFAC C  
C      1  0.5117530000000  0.5395090000000  0.4986570000000 1.0
C      1  0.4294990000000  0.4521890000000  0.4692510000000 1.0
C      1  0.5546890000000  0.4727520000000  0.5551680000000 1.0
C      1  0.5265630000000  0.5361810000000  0.4347290000000 1.0
C      1  0.5002320000000  0.5738540000000  0.4555320000000 1.0
C      1  0.5404980000000  0.5653050000000  0.4720770000000 1.0
C      1  0.4626200000000  0.4589750000000  0.5305980000000 1.0
C      1  0.5548640000000  0.5001910000000  0.4201530000000 1.0
C      1  0.4724350000000  0.4892060000000  0.5346670000000 1.0
C      1  0.4161580000000  0.4768840000000  0.4702460000000 1.0
C      1  0.4322200000000  0.5396770000000  0.5065180000000 1.0
C      1  0.5264170000000  0.5749670000000  0.5203490000000 1.0
C      1  0.5226300000000  0.5612820000000  0.5681100000000 1.0
C      1  0.4616920000000  0.4825600000000  0.4867990000000 1.0
C      1  0.5089300000000  0.4605530000000  0.5234550000000 1.0
C      1  0.4768340000000  0.5628150000000  0.4416400000000 1.0
C      1  0.4762080000000  0.4903320000000  0.4570640000000 1.0
C      1  0.4791940000000  0.5336660000000  0.4320700000000 1.0
C      1  0.4662900000000  0.5595090000000  0.4786350000000 1.0
C      1  0.4966560000000  0.4295840000000  0.4409420000000 1.0
C      1  0.4775510000000  0.4382490000000  0.5479320000000 1.0
C      1  0.4927520000000  0.5278440000000  0.5365630000000 1.0
C      1  0.4472580000000  0.5184870000000  0.5553250000000 1.0
C      1  0.4611810000000  0.4531500000000  0.5002450000000 1.0
C      1  0.4635920000000  0.4559960000000  0.5902020000000 1.0
C      1  0.4743710000000  0.5003300000000  0.5073070000000 1.0
C      1  0.4640650000000  0.5309500000000  0.4769960000000 1.0
C      1  0.4750480000000  0.4291980000000  0.4614610000000 1.0
C      1  0.5303990000000  0.5833480000000  0.4928260000000 1.0
C      1  0.5674700000000  0.4774110000000  0.4862710000000 1.0
C      1  0.5026230000000  0.4757480000000  0.5702170000000 1.0
C      1  0.5303450000000  0.4220430000000  0.4965030000000 1.0
C      1  0.5020080000000  0.4206110000000  0.5054290000000 1.0
C      1  0.5700940000000  0.4952420000000  0.5482370000000 1.0
C      1  0.4979090000000  0.5142400000000  0.5001250000000 1.0
C      1  0.5190630000000  0.5096860000000  0.5393270000000 1.0
C      1  0.4501530000000  0.5642280000000  0.5033040000000 1.0
C      1  0.4389470000000  0.5181780000000  0.5268380000000 1.0
C      1  0.5396630000000  0.5019960000000  0.5880330000000 1.0
C      1  0.5252770000000  0.5378590000000  0.5843950000000 1.0
C      1  0.5367480000000  0.5366290000000  0.4806140000000 1.0
C      1  0.4858250000000  0.4500350000000  0.5740860000000 1.0
C      1  0.5264880000000  0.5648710000000  0.4458390000000 1.0
C      1  0.5737600000000  0.5314190000000  0.4482260000000 1.0
C      1  0.4409140000000  0.4917720000000  0.5653830000000 1.0
C      1  0.4531410000000  0.4471800000000  0.4522580000000 1.0
C      1  0.5347950000000  0.4574310000000  0.5108770000000 1.0
C      1  0.4350590000000  0.4410190000000  0.4943410000000 1.0
C      1  0.4585530000000  0.4597720000000  0.4256510000000 1.0
C      1  0.4706710000000  0.5111690000000  0.4135090000000 1.0
C      1  0.4601900000000  0.4897920000000  0.4312510000000 1.0
C      1  0.5340230000000  0.4579610000000  0.4285660000000 1.0
C      1  0.5021800000000  0.4339110000000  0.5326500000000 1.0
C      1  0.5762090000000  0.4988090000000  0.4696100000000 1.0
C      1  0.5401420000000  0.4843180000000  0.4949650000000 1.0
C      1  0.5517720000000  0.4549000000000  0.5338460000000 1.0
C      1  0.5390990000000  0.5089350000000  0.5149920000000 1.0
C      1  0.5610350000000  0.5417260000000  0.5431050000000 1.0
C      1  0.5544330000000  0.5271410000000  0.4269270000000 1.0
C      1  0.5419370000000  0.4350740000000  0.4736890000000 1.0
C      1  0.4328330000000  0.4928650000000  0.4883210000000 1.0
C      1  0.4940760000000  0.5593970000000  0.5337870000000 1.0
C      1  0.5334310000000  0.4767960000000  0.5763330000000 1.0
C      1  0.4965330000000  0.5653980000000  0.4894600000000 1.0
C      1  0.4777330000000  0.5488700000000  0.5783980000000 1.0
C      1  0.4693680000000  0.5690420000000  0.5229960000000 1.0
C      1  0.5196710000000  0.5203950000000  0.4597090000000 1.0
C      1  0.5035770000000  0.5305750000000  0.4160930000000 1.0
C      1  0.4832770000000  0.4363740000000  0.4885790000000 1.0
C      1  0.4367100000000  0.4742680000000  0.5405640000000 1.0
C      1  0.5369940000000  0.5196700000000  0.5644620000000 1.0
C      1  0.4760370000000  0.5236930000000  0.5637170000000 1.0
C      1  0.4259220000000  0.4928060000000  0.5187880000000 1.0
C      1  0.4941960000000  0.5660410000000  0.5631080000000 1.0
C      1  0.5653260000000  0.4507830000000  0.4768800000000 1.0
C      1  0.4863900000000  0.4483350000000  0.4181340000000 1.0
C      1  0.4839880000000  0.5192050000000  0.4582300000000 1.0
C      1  0.5247490000000  0.4389550000000  0.4500400000000 1.0
C      1  0.4853050000000  0.4992920000000  0.5815100000000 1.0
C      1  0.5375190000000  0.5589670000000  0.5426760000000 1.0
C      1  0.5278410000000  0.4905010000000  0.4619710000000 1.0
C      1  0.5021160000000  0.4830940000000  0.5416260000000 1.0
C      1  0.4356050000000  0.5224570000000  0.4809850000000 1.0
C      1  0.5483240000000  0.4813300000000  0.4399550000000 1.0
C      1  0.5024100000000  0.4771720000000  0.4529610000000 1.0
C      1  0.4602640000000  0.4839450000000  0.5865940000000 1.0
C      1  0.5642970000000  0.5160220000000  0.5299120000000 1.0
C      1  0.5063280000000  0.4696850000000  0.4241080000000 1.0
C      1  0.5660560000000  0.5254180000000  0.4755220000000 1.0
END
