TITL C-951344-124-653 7.34264657575838e-07 125000 -116.759665754349 0 0 21 (C1) n - 1
REM
REM in /home/bkarasulu/work/CARBON/AIRSS/Generating-Clusters/EDIP-Nigel-Params/with-SteepDescent/Only-C1/SD-CG/HFTN-CG
REM
REM
REM
REM
REM
REM ./C.cell (11c1c37f851c82e70ff6c80c92926a4b)
REM
REM compiler GCC version 9.2.1 20190827 (Red Hat 9.2.1-1)
REM options -cpp -mtune=generic -march=x86-64 -g -O0 -fpre-include=/usr/include/finclude/math-vector-fortran.h
REM seed -2113147151 44268363 -1242055607 -244853383 321974124 -522304177 -651937082 1239852153 1463169538 1740944273 616018865 -580460750 -262270763 -1830884525 1460642929 -1378098971 -258501001 -193541182 1756029673 467067924 -93972623 -1059083787 -1741659905 962669860 -1523349787 908070905 -29996929 -122879656 -1662552400 -1808609300 -1154243788 -753129803 -2025774891
REM
CELL 1.54180   50.00000   50.00000   50.00000   90.00000   90.00000   90.00000
LATT -1
SFAC C  
C      1  0.5398360000000  0.4959340000000  0.4494440000000 1.0
C      1  0.4542570000000  0.4177270000000  0.5421750000000 1.0
C      1  0.5461560000000  0.4990250000000  0.5135190000000 1.0
C      1  0.4678090000000  0.4876280000000  0.5391020000000 1.0
C      1  0.5438640000000  0.5187290000000  0.4660770000000 1.0
C      1  0.5200970000000  0.4815010000000  0.4637850000000 1.0
C      1  0.5157560000000  0.5512350000000  0.4924050000000 1.0
C      1  0.4650570000000  0.5147820000000  0.5312270000000 1.0
C      1  0.5183690000000  0.4958200000000  0.5116200000000 1.0
C      1  0.4590020000000  0.4665740000000  0.5224110000000 1.0
C      1  0.4721700000000  0.4794000000000  0.4734020000000 1.0
C      1  0.4580670000000  0.4410350000000  0.5322840000000 1.0
C      1  0.5548280000000  0.5110720000000  0.4909080000000 1.0
C      1  0.5071180000000  0.5016200000000  0.4839660000000 1.0
C      1  0.4963400000000  0.5478560000000  0.5116640000000 1.0
C      1  0.4597490000000  0.4707270000000  0.4953170000000 1.0
C      1  0.4929010000000  0.4787840000000  0.4556280000000 1.0
C      1  0.5208940000000  0.5756450000000  0.4835410000000 1.0
C      1  0.5169670000000  0.5291360000000  0.4736500000000 1.0
C      1  0.5022550000000  0.5042230000000  0.5352980000000 1.0
C      1  0.4885090000000  0.5315470000000  0.5325780000000 1.0
END
