TITL C-950521-2237-605 1.44618365719672e-06 125000 -246.6496913674 0 0 41 (C1) n - 1
REM
REM in /home/bkarasulu/work/CARBON/AIRSS/Generating-Clusters/EDIP-Nigel-Params/with-SteepDescent/Only-C1/SD-CG/HFTN-CG
REM
REM
REM
REM
REM
REM ./C.cell (11c1c37f851c82e70ff6c80c92926a4b)
REM
REM compiler GCC version 9.2.1 20190827 (Red Hat 9.2.1-1)
REM options -cpp -mtune=generic -march=x86-64 -g -O0 -fpre-include=/usr/include/finclude/math-vector-fortran.h
REM seed -1306212120 -2116587469 551672517 -889825131 649375745 -1052747833 1044667320 -647559004 1245183733 -192548018 1926344484 -1562426424 163669873 1225572081 -1504519942 155575994 1889482536 1278750232 1172358945 -627605115 -74851314 358858753 2066712009 -1953707131 1956260597 -1147861791 1050693787 -1540744987 752841715 344926907 -218396860 1402494949 1871592954
REM
CELL 1.54180   50.00000   50.00000   50.00000   90.00000   90.00000   90.00000
LATT -1
SFAC C  
C      1  0.4670640000000  0.4451860000000  0.4636860000000 1.0
C      1  0.5034400000000  0.5431150000000  0.5326770000000 1.0
C      1  0.4844570000000  0.5499640000000  0.5108540000000 1.0
C      1  0.4981270000000  0.5298300000000  0.4412100000000 1.0
C      1  0.5125620000000  0.4472810000000  0.4845420000000 1.0
C      1  0.5184240000000  0.5021140000000  0.5135750000000 1.0
C      1  0.4610440000000  0.5078060000000  0.4544960000000 1.0
C      1  0.4502380000000  0.4856960000000  0.4694210000000 1.0
C      1  0.5521080000000  0.5138650000000  0.5586130000000 1.0
C      1  0.5396760000000  0.5537110000000  0.5006660000000 1.0
C      1  0.5593270000000  0.4702200000000  0.5374320000000 1.0
C      1  0.5322480000000  0.5522030000000  0.5298030000000 1.0
C      1  0.4947220000000  0.4605580000000  0.5059910000000 1.0
C      1  0.4453560000000  0.4614460000000  0.4555520000000 1.0
C      1  0.5748080000000  0.4804240000000  0.5167050000000 1.0
C      1  0.4942170000000  0.5501850000000  0.4831230000000 1.0
C      1  0.4653110000000  0.4948560000000  0.5429430000000 1.0
C      1  0.5678640000000  0.4916510000000  0.5527390000000 1.0
C      1  0.5389760000000  0.4572960000000  0.4826100000000 1.0
C      1  0.5039970000000  0.4831320000000  0.4499360000000 1.0
C      1  0.5256240000000  0.5269580000000  0.4552960000000 1.0
C      1  0.5282480000000  0.4971810000000  0.4589490000000 1.0
C      1  0.5429830000000  0.5160060000000  0.5086770000000 1.0
C      1  0.4652590000000  0.5218950000000  0.5563570000000 1.0
C      1  0.4950410000000  0.4564670000000  0.4618000000000 1.0
C      1  0.5633710000000  0.4975810000000  0.4959450000000 1.0
C      1  0.4677690000000  0.5034300000000  0.5143380000000 1.0
C      1  0.4944540000000  0.4905300000000  0.5062170000000 1.0
C      1  0.4600150000000  0.5340390000000  0.5141200000000 1.0
C      1  0.4622600000000  0.4288860000000  0.4862880000000 1.0
C      1  0.4459740000000  0.4742320000000  0.5445070000000 1.0
C      1  0.4446680000000  0.4650890000000  0.5171210000000 1.0
C      1  0.5487370000000  0.4824170000000  0.4746650000000 1.0
C      1  0.4461350000000  0.4890350000000  0.4988060000000 1.0
C      1  0.4675640000000  0.4466380000000  0.5081270000000 1.0
C      1  0.4787400000000  0.5412950000000  0.4604300000000 1.0
C      1  0.4484390000000  0.5382280000000  0.5399130000000 1.0
C      1  0.4850840000000  0.5030980000000  0.4386040000000 1.0
C      1  0.5217410000000  0.5424630000000  0.4809890000000 1.0
C      1  0.5528830000000  0.5295480000000  0.5353860000000 1.0
C      1  0.4910430000000  0.5344440000000  0.5568900000000 1.0
END
