TITL C-951336-9012-43 1.29645965722128e-06 125000 -782.205490505658 0 0 125 (C1) n - 1
REM
REM in /home/bkarasulu/work/CARBON/AIRSS/Generating-Clusters/EDIP-Nigel-Params/with-SteepDescent/Only-C1/SD-CG/HFTN-CG
REM
REM
REM
REM
REM
REM ./C.cell (11c1c37f851c82e70ff6c80c92926a4b)
REM
REM compiler GCC version 9.2.1 20190827 (Red Hat 9.2.1-1)
REM options -cpp -mtune=generic -march=x86-64 -g -O0 -fpre-include=/usr/include/finclude/math-vector-fortran.h
REM seed -1934919547 -1758627451 590668 -157325200 1607954541 -574090843 1170820589 248978524 1627143908 -1386472022 232014663 324128126 -209052017 1153683835 -141405922 -1379285364 -1162460718 -1238569137 -754805598 413425119 1615376861 1721117835 85685211 1255837875 -1514602658 -1459700668 -1213337531 1939114258 219119440 -984106946 -913477997 1633821135 -539105878
REM
CELL 1.54180   50.00000   50.00000   50.00000   90.00000   90.00000   90.00000
LATT -1
SFAC C  
C      1  0.4724060000000  0.4683470000000  0.5166780000000 1.0
C      1  0.5365450000000  0.5107780000000  0.5799320000000 1.0
C      1  0.4554110000000  0.5784100000000  0.5073570000000 1.0
C      1  0.4329960000000  0.5526740000000  0.4608920000000 1.0
C      1  0.5686620000000  0.4607610000000  0.4496350000000 1.0
C      1  0.4686930000000  0.4269870000000  0.4823310000000 1.0
C      1  0.5140840000000  0.5219750000000  0.5920790000000 1.0
C      1  0.5893290000000  0.4864220000000  0.5011080000000 1.0
C      1  0.5620610000000  0.5457730000000  0.5202160000000 1.0
C      1  0.4919150000000  0.5264670000000  0.4195840000000 1.0
C      1  0.4937470000000  0.5783010000000  0.4420420000000 1.0
C      1  0.5248270000000  0.5038940000000  0.4709330000000 1.0
C      1  0.4871660000000  0.4991560000000  0.4089620000000 1.0
C      1  0.3961820000000  0.5028480000000  0.5010260000000 1.0
C      1  0.5291740000000  0.4775470000000  0.4251100000000 1.0
C      1  0.4600010000000  0.4492730000000  0.4115290000000 1.0
C      1  0.5498250000000  0.5773100000000  0.4842210000000 1.0
C      1  0.4754120000000  0.4478960000000  0.5392940000000 1.0
C      1  0.5430570000000  0.4849180000000  0.4881240000000 1.0
C      1  0.4626830000000  0.4935190000000  0.5246330000000 1.0
C      1  0.4606710000000  0.4956360000000  0.4001410000000 1.0
C      1  0.4912890000000  0.4490960000000  0.4070080000000 1.0
C      1  0.5449200000000  0.5564860000000  0.4422820000000 1.0
C      1  0.5492950000000  0.5180810000000  0.5536150000000 1.0
C      1  0.5367890000000  0.4160460000000  0.5452970000000 1.0
C      1  0.4327730000000  0.5317960000000  0.5140230000000 1.0
C      1  0.4716660000000  0.4983010000000  0.5910750000000 1.0
C      1  0.4875630000000  0.5215250000000  0.5838860000000 1.0
C      1  0.4528580000000  0.5487670000000  0.4999680000000 1.0
C      1  0.5393710000000  0.5855080000000  0.5325840000000 1.0
C      1  0.4636910000000  0.4310250000000  0.4355750000000 1.0
C      1  0.4433740000000  0.4973830000000  0.5851840000000 1.0
C      1  0.4630360000000  0.4586620000000  0.5653850000000 1.0
C      1  0.4433930000000  0.4676080000000  0.4674870000000 1.0
C      1  0.5741460000000  0.5337270000000  0.4748070000000 1.0
C      1  0.5288430000000  0.5509700000000  0.4203500000000 1.0
C      1  0.5854260000000  0.4658300000000  0.5213500000000 1.0
C      1  0.4950280000000  0.4918020000000  0.4741220000000 1.0
C      1  0.4640350000000  0.5758920000000  0.5375920000000 1.0
C      1  0.4409610000000  0.5792080000000  0.4711360000000 1.0
C      1  0.4184510000000  0.4551370000000  0.4678190000000 1.0
C      1  0.5127590000000  0.5465380000000  0.5312140000000 1.0
C      1  0.5737980000000  0.5567370000000  0.5536830000000 1.0
C      1  0.4212690000000  0.4897990000000  0.5464930000000 1.0
C      1  0.5816360000000  0.5109860000000  0.4580330000000 1.0
C      1  0.5169850000000  0.4123880000000  0.4717850000000 1.0
C      1  0.4231270000000  0.5162270000000  0.5587580000000 1.0
C      1  0.5024200000000  0.5636120000000  0.4170630000000 1.0
C      1  0.5412100000000  0.4546960000000  0.4392460000000 1.0
C      1  0.4116500000000  0.5075530000000  0.4726990000000 1.0
C      1  0.5218550000000  0.5034760000000  0.5225660000000 1.0
C      1  0.5065580000000  0.4492910000000  0.5451920000000 1.0
C      1  0.4928480000000  0.4682760000000  0.4538540000000 1.0
C      1  0.4080500000000  0.4843240000000  0.5205330000000 1.0
C      1  0.4763820000000  0.5468540000000  0.5749390000000 1.0
C      1  0.5557120000000  0.4418970000000  0.5668040000000 1.0
C      1  0.5902720000000  0.4850690000000  0.4704610000000 1.0
C      1  0.5377210000000  0.4174340000000  0.4933680000000 1.0
C      1  0.5278070000000  0.4071150000000  0.5190340000000 1.0
C      1  0.5123160000000  0.4536490000000  0.4956770000000 1.0
C      1  0.4960050000000  0.4990260000000  0.5380150000000 1.0
C      1  0.5211820000000  0.5239050000000  0.4230190000000 1.0
C      1  0.5610660000000  0.4881690000000  0.5405310000000 1.0
C      1  0.5829610000000  0.5347080000000  0.5021280000000 1.0
C      1  0.5763970000000  0.5284530000000  0.5577710000000 1.0
C      1  0.5471490000000  0.5691320000000  0.5568000000000 1.0
C      1  0.5607040000000  0.4361410000000  0.4939380000000 1.0
C      1  0.4914630000000  0.4079510000000  0.4864920000000 1.0
C      1  0.4414270000000  0.4157630000000  0.5205110000000 1.0
C      1  0.5580880000000  0.4707230000000  0.5650670000000 1.0
C      1  0.5179090000000  0.4235170000000  0.4435810000000 1.0
C      1  0.4740090000000  0.5306440000000  0.4458820000000 1.0
C      1  0.5665280000000  0.4442710000000  0.5204500000000 1.0
C      1  0.5262920000000  0.5340220000000  0.4836590000000 1.0
C      1  0.4209500000000  0.4322100000000  0.4814880000000 1.0
C      1  0.5327440000000  0.5310730000000  0.5143260000000 1.0
C      1  0.5201370000000  0.4635000000000  0.5935550000000 1.0
C      1  0.4995510000000  0.4743590000000  0.4226340000000 1.0
C      1  0.5247910000000  0.5920990000000  0.4797080000000 1.0
C      1  0.5494080000000  0.5506790000000  0.4700230000000 1.0
C      1  0.4778590000000  0.5336780000000  0.4983840000000 1.0
C      1  0.5290790000000  0.4512960000000  0.5208580000000 1.0
C      1  0.4994590000000  0.4019610000000  0.5146020000000 1.0
C      1  0.5395650000000  0.4815450000000  0.5181350000000 1.0
C      1  0.4718600000000  0.5119180000000  0.4725670000000 1.0
C      1  0.5151940000000  0.4258570000000  0.5624170000000 1.0
C      1  0.4816780000000  0.3975980000000  0.5357700000000 1.0
C      1  0.4952340000000  0.4760840000000  0.5004280000000 1.0
C      1  0.4995440000000  0.5503650000000  0.4843890000000 1.0
C      1  0.4048940000000  0.5334490000000  0.5016910000000 1.0
C      1  0.4644580000000  0.4195420000000  0.5355370000000 1.0
C      1  0.5636360000000  0.5081570000000  0.4371260000000 1.0
C      1  0.5113260000000  0.5764600000000  0.5253280000000 1.0
C      1  0.4295760000000  0.5184100000000  0.4273200000000 1.0
C      1  0.4457010000000  0.5383630000000  0.4387000000000 1.0
C      1  0.5577270000000  0.5745460000000  0.5124520000000 1.0
C      1  0.4426050000000  0.4195710000000  0.4931670000000 1.0
C      1  0.4429820000000  0.4970760000000  0.4772040000000 1.0
C      1  0.5408650000000  0.4827620000000  0.5846810000000 1.0
C      1  0.5314370000000  0.4372040000000  0.5841500000000 1.0
C      1  0.4265570000000  0.4923660000000  0.4185440000000 1.0
C      1  0.4882450000000  0.5536270000000  0.4578260000000 1.0
C      1  0.5033630000000  0.5789340000000  0.4957990000000 1.0
C      1  0.4773130000000  0.5926760000000  0.4919330000000 1.0
C      1  0.4376290000000  0.4750490000000  0.5670820000000 1.0
C      1  0.5963720000000  0.5118770000000  0.5135750000000 1.0
C      1  0.5250110000000  0.5483070000000  0.5596430000000 1.0
C      1  0.4397600000000  0.5022560000000  0.5084110000000 1.0
C      1  0.4347530000000  0.5372250000000  0.5431980000000 1.0
C      1  0.4852440000000  0.5314400000000  0.5293440000000 1.0
C      1  0.4665920000000  0.5914440000000  0.4646870000000 1.0
C      1  0.5051590000000  0.4763960000000  0.5603140000000 1.0
C      1  0.4934720000000  0.4239450000000  0.4255600000000 1.0
C      1  0.4991940000000  0.5655570000000  0.5696900000000 1.0
C      1  0.4634590000000  0.5471620000000  0.5473380000000 1.0
C      1  0.4092070000000  0.5388560000000  0.4708660000000 1.0
C      1  0.5194350000000  0.4555560000000  0.4650740000000 1.0
C      1  0.5602860000000  0.4620900000000  0.4780180000000 1.0
C      1  0.4837440000000  0.4721670000000  0.5827780000000 1.0
C      1  0.4911020000000  0.5842620000000  0.5465120000000 1.0
C      1  0.4503680000000  0.4761460000000  0.4179950000000 1.0
C      1  0.4671340000000  0.4486090000000  0.4601790000000 1.0
C      1  0.5949410000000  0.5148200000000  0.5415630000000 1.0
C      1  0.5167340000000  0.5920700000000  0.4528330000000 1.0
C      1  0.5353550000000  0.5033140000000  0.4389740000000 1.0
END
