TITL C-951341-1326-19 8.66958336617771e-07 125000 -764.902901546561 0 0 122 (C1) n - 1
REM
REM in /home/bkarasulu/work/CARBON/AIRSS/Generating-Clusters/EDIP-Nigel-Params/with-SteepDescent/Only-C1/SD-CG/HFTN-CG
REM
REM
REM
REM
REM
REM ./C.cell (11c1c37f851c82e70ff6c80c92926a4b)
REM
REM compiler GCC version 9.2.1 20190827 (Red Hat 9.2.1-1)
REM options -cpp -mtune=generic -march=x86-64 -g -O0 -fpre-include=/usr/include/finclude/math-vector-fortran.h
REM seed 497966995 1229032359 -1733198095 -939019059 -2086935764 1842077089 -890901621 1368213634 428185712 1774928193 135816388 2062240086 -1110331261 -790365155 594170183 1620552186 2066726092 -645158818 -353368040 -1694261913 -1804186329 -1037311206 -565930971 1544242987 1212648262 -666497652 -617060752 -617714104 44076282 1252452511 -1193291602 1162633792 1406106547
REM
CELL 1.54180   50.00000   50.00000   50.00000   90.00000   90.00000   90.00000
LATT -1
SFAC C  
C      1  0.5262180000000  0.4808160000000  0.5820330000000 1.0
C      1  0.4807090000000  0.5451540000000  0.4413500000000 1.0
C      1  0.4820930000000  0.5802410000000  0.4949010000000 1.0
C      1  0.5254160000000  0.5324730000000  0.5823490000000 1.0
C      1  0.4183550000000  0.4873030000000  0.5635430000000 1.0
C      1  0.5509130000000  0.4168260000000  0.5322730000000 1.0
C      1  0.5056430000000  0.4271970000000  0.4625420000000 1.0
C      1  0.4523310000000  0.5855040000000  0.4798040000000 1.0
C      1  0.4645770000000  0.5431270000000  0.5168650000000 1.0
C      1  0.5713110000000  0.5006410000000  0.5637680000000 1.0
C      1  0.5923450000000  0.5017390000000  0.4913950000000 1.0
C      1  0.5491060000000  0.5671840000000  0.4490010000000 1.0
C      1  0.4795130000000  0.4631230000000  0.4891730000000 1.0
C      1  0.5416530000000  0.4988180000000  0.4132590000000 1.0
C      1  0.4632650000000  0.4998230000000  0.5407400000000 1.0
C      1  0.5905790000000  0.4724220000000  0.4969960000000 1.0
C      1  0.5572420000000  0.5436940000000  0.4346500000000 1.0
C      1  0.5193570000000  0.4488220000000  0.5496380000000 1.0
C      1  0.5324580000000  0.5285340000000  0.4780600000000 1.0
C      1  0.5261910000000  0.5232380000000  0.4459540000000 1.0
C      1  0.5027150000000  0.4935890000000  0.4536480000000 1.0
C      1  0.5597420000000  0.4968370000000  0.4340930000000 1.0
C      1  0.5227030000000  0.5771460000000  0.5502470000000 1.0
C      1  0.4653040000000  0.4843920000000  0.5838510000000 1.0
C      1  0.5413710000000  0.4851880000000  0.4982600000000 1.0
C      1  0.5632100000000  0.4379490000000  0.5016270000000 1.0
C      1  0.4748890000000  0.5298820000000  0.5432120000000 1.0
C      1  0.5413600000000  0.4537920000000  0.4616320000000 1.0
C      1  0.5192370000000  0.4153380000000  0.4921670000000 1.0
C      1  0.4726730000000  0.5052060000000  0.4655760000000 1.0
C      1  0.5115940000000  0.5063520000000  0.5834300000000 1.0
C      1  0.4241160000000  0.4658530000000  0.5243410000000 1.0
C      1  0.4687940000000  0.5138230000000  0.4122230000000 1.0
C      1  0.5797830000000  0.4341430000000  0.4774280000000 1.0
C      1  0.5337890000000  0.5843240000000  0.4966390000000 1.0
C      1  0.5214260000000  0.4213020000000  0.4388910000000 1.0
C      1  0.5082670000000  0.4579920000000  0.5742860000000 1.0
C      1  0.5358850000000  0.5823830000000  0.5252240000000 1.0
C      1  0.5477820000000  0.4107220000000  0.5026080000000 1.0
C      1  0.4975320000000  0.5143200000000  0.4165310000000 1.0
C      1  0.4564200000000  0.4358100000000  0.4590900000000 1.0
C      1  0.4414530000000  0.5713140000000  0.4548780000000 1.0
C      1  0.5823000000000  0.4933540000000  0.5373270000000 1.0
C      1  0.5751920000000  0.5201830000000  0.4750060000000 1.0
C      1  0.5996370000000  0.4536510000000  0.4779970000000 1.0
C      1  0.5493000000000  0.5638410000000  0.4788750000000 1.0
C      1  0.4374390000000  0.4487440000000  0.5424700000000 1.0
C      1  0.4625470000000  0.4415600000000  0.5528050000000 1.0
C      1  0.5048030000000  0.5254780000000  0.5439750000000 1.0
C      1  0.4812330000000  0.5693250000000  0.5725920000000 1.0
C      1  0.4303240000000  0.4662770000000  0.4951140000000 1.0
C      1  0.5093580000000  0.5916640000000  0.4567620000000 1.0
C      1  0.4795690000000  0.4638270000000  0.5665020000000 1.0
C      1  0.4730860000000  0.4026730000000  0.4903430000000 1.0
C      1  0.4283640000000  0.5452600000000  0.4607980000000 1.0
C      1  0.4970540000000  0.4083550000000  0.5331390000000 1.0
C      1  0.5207690000000  0.5006380000000  0.4834920000000 1.0
C      1  0.4992230000000  0.3975990000000  0.5052970000000 1.0
C      1  0.5568770000000  0.5267670000000  0.5615570000000 1.0
C      1  0.4408950000000  0.5250180000000  0.5084370000000 1.0
C      1  0.4570170000000  0.4873450000000  0.4102460000000 1.0
C      1  0.5226070000000  0.5743680000000  0.4394710000000 1.0
C      1  0.5148810000000  0.4916210000000  0.4114940000000 1.0
C      1  0.5863740000000  0.4664290000000  0.5262890000000 1.0
C      1  0.5077360000000  0.5931960000000  0.4844400000000 1.0
C      1  0.5581330000000  0.4777780000000  0.5778540000000 1.0
C      1  0.4877750000000  0.4789310000000  0.5404210000000 1.0
C      1  0.5102070000000  0.5474230000000  0.4326280000000 1.0
C      1  0.4104720000000  0.5651790000000  0.4971720000000 1.0
C      1  0.4995090000000  0.5034430000000  0.5031810000000 1.0
C      1  0.5069670000000  0.4650220000000  0.4205920000000 1.0
C      1  0.4653050000000  0.5471480000000  0.5673600000000 1.0
C      1  0.5701180000000  0.5208810000000  0.4461260000000 1.0
C      1  0.4849360000000  0.5029970000000  0.5917130000000 1.0
C      1  0.5153530000000  0.5442850000000  0.4988400000000 1.0
C      1  0.5539120000000  0.4768380000000  0.4517470000000 1.0
C      1  0.5347810000000  0.5575610000000  0.5697350000000 1.0
C      1  0.4769750000000  0.5346070000000  0.4684350000000 1.0
C      1  0.4491290000000  0.5696500000000  0.5256140000000 1.0
C      1  0.4746020000000  0.4925090000000  0.4930410000000 1.0
C      1  0.4578090000000  0.4231030000000  0.5060020000000 1.0
C      1  0.4255680000000  0.5278770000000  0.5343240000000 1.0
C      1  0.4534940000000  0.4464900000000  0.4870360000000 1.0
C      1  0.4767730000000  0.5850740000000  0.5258550000000 1.0
C      1  0.5168990000000  0.4432720000000  0.5025330000000 1.0
C      1  0.5739790000000  0.5381030000000  0.5173950000000 1.0
C      1  0.4068670000000  0.5133610000000  0.4930510000000 1.0
C      1  0.5712550000000  0.5452540000000  0.4888670000000 1.0
C      1  0.4454560000000  0.4961570000000  0.5656490000000 1.0
C      1  0.4020990000000  0.5119200000000  0.5246300000000 1.0
C      1  0.4381020000000  0.5542440000000  0.5705900000000 1.0
C      1  0.5230710000000  0.4201600000000  0.5449740000000 1.0
C      1  0.4338020000000  0.5800800000000  0.5023590000000 1.0
C      1  0.4098840000000  0.5417390000000  0.4820650000000 1.0
C      1  0.4440890000000  0.4778700000000  0.4351880000000 1.0
C      1  0.5425870000000  0.4658710000000  0.5442000000000 1.0
C      1  0.4793780000000  0.4580440000000  0.4177910000000 1.0
C      1  0.5408430000000  0.4565990000000  0.4918380000000 1.0
C      1  0.4316600000000  0.5244970000000  0.4414630000000 1.0
C      1  0.5088870000000  0.4993080000000  0.5305540000000 1.0
C      1  0.5679150000000  0.4487830000000  0.5434170000000 1.0
C      1  0.4934160000000  0.5757850000000  0.5484190000000 1.0
C      1  0.4061630000000  0.4849210000000  0.5378090000000 1.0
C      1  0.4642020000000  0.4582630000000  0.4426400000000 1.0
C      1  0.4776260000000  0.4148250000000  0.4626690000000 1.0
C      1  0.5241900000000  0.5427210000000  0.5280400000000 1.0
C      1  0.4765580000000  0.4308100000000  0.5281820000000 1.0
C      1  0.5611070000000  0.4327130000000  0.4560740000000 1.0
C      1  0.4419470000000  0.4995430000000  0.4550670000000 1.0
C      1  0.4857240000000  0.5491110000000  0.4936770000000 1.0
C      1  0.4513690000000  0.4973220000000  0.5120380000000 1.0
C      1  0.5238440000000  0.4427710000000  0.4223780000000 1.0
C      1  0.5908020000000  0.5138060000000  0.5183470000000 1.0
C      1  0.5727550000000  0.4522070000000  0.5723110000000 1.0
C      1  0.4916240000000  0.4542870000000  0.5155070000000 1.0
C      1  0.4241720000000  0.4915500000000  0.4792660000000 1.0
C      1  0.5500200000000  0.5261360000000  0.5321270000000 1.0
C      1  0.5025990000000  0.4600550000000  0.4641840000000 1.0
C      1  0.4603750000000  0.5661430000000  0.4324540000000 1.0
C      1  0.4495690000000  0.5357870000000  0.4205050000000 1.0
C      1  0.5390860000000  0.4921650000000  0.5268810000000 1.0
C      1  0.4283530000000  0.5555120000000  0.5445790000000 1.0
END
