TITL C-951339-9237-75 -3.65691536125024e-06 125000 -940.401785858954 0 0 150 (C1) n - 1
REM
REM in /home/bkarasulu/work/CARBON/AIRSS/Generating-Clusters/EDIP-Nigel-Params/with-SteepDescent/Only-C1/SD-CG/HFTN-CG
REM
REM
REM
REM
REM
REM ./C.cell (11c1c37f851c82e70ff6c80c92926a4b)
REM
REM compiler GCC version 9.2.1 20190827 (Red Hat 9.2.1-1)
REM options -cpp -mtune=generic -march=x86-64 -g -O0 -fpre-include=/usr/include/finclude/math-vector-fortran.h
REM seed 1821466413 -1496732257 -1629487645 -292729903 -1453429101 1979927660 -1760935732 480846132 -635489374 1818739393 1471219098 -971739716 -1296310814 1763076757 -621416805 1427155272 -65005318 974316189 192617645 -1589037142 -1008845759 1640080238 1920782696 -1261221293 -1202301363 -223014214 2033463580 -710003593 62657902 -2088211889 962267844 241244607 2056555967
REM
CELL 1.54180   50.00000   50.00000   50.00000   90.00000   90.00000   90.00000
LATT -1
SFAC C  
C      1  0.5404160000000  0.5127640000000  0.4771280000000 1.0
C      1  0.4323470000000  0.5725070000000  0.4631880000000 1.0
C      1  0.5134730000000  0.4646930000000  0.4828280000000 1.0
C      1  0.5068150000000  0.5266760000000  0.5993220000000 1.0
C      1  0.5583290000000  0.4906290000000  0.4883880000000 1.0
C      1  0.5150530000000  0.6102350000000  0.4952860000000 1.0
C      1  0.5153950000000  0.4710670000000  0.5339660000000 1.0
C      1  0.5606670000000  0.5466200000000  0.4346510000000 1.0
C      1  0.5442930000000  0.5734490000000  0.5737780000000 1.0
C      1  0.5726820000000  0.5032980000000  0.4483800000000 1.0
C      1  0.5538110000000  0.4382480000000  0.4772410000000 1.0
C      1  0.4197710000000  0.5514680000000  0.5053190000000 1.0
C      1  0.4530920000000  0.5872800000000  0.5248030000000 1.0
C      1  0.4613920000000  0.5765080000000  0.5860760000000 1.0
C      1  0.5600840000000  0.4826360000000  0.5802840000000 1.0
C      1  0.5334170000000  0.4055510000000  0.4292640000000 1.0
C      1  0.4985290000000  0.5607240000000  0.5181330000000 1.0
C      1  0.5434350000000  0.5153210000000  0.5270920000000 1.0
C      1  0.4851680000000  0.5235150000000  0.4540030000000 1.0
C      1  0.4660900000000  0.5562750000000  0.4291840000000 1.0
C      1  0.4817810000000  0.3967990000000  0.4628130000000 1.0
C      1  0.5289040000000  0.4251320000000  0.4691250000000 1.0
C      1  0.5712130000000  0.5709150000000  0.5616740000000 1.0
C      1  0.4574330000000  0.5289130000000  0.4665250000000 1.0
C      1  0.5890200000000  0.4639190000000  0.5263220000000 1.0
C      1  0.4365380000000  0.5135060000000  0.4100220000000 1.0
C      1  0.4411810000000  0.4489950000000  0.5669630000000 1.0
C      1  0.5745800000000  0.5761380000000  0.5316030000000 1.0
C      1  0.5902060000000  0.4700750000000  0.4784890000000 1.0
C      1  0.5427580000000  0.4626150000000  0.4928460000000 1.0
C      1  0.5559830000000  0.5950450000000  0.5194950000000 1.0
C      1  0.4413110000000  0.5189360000000  0.5407520000000 1.0
C      1  0.4727890000000  0.4155930000000  0.5516390000000 1.0
C      1  0.4994470000000  0.4087280000000  0.5583020000000 1.0
C      1  0.5031600000000  0.6047720000000  0.4695650000000 1.0
C      1  0.5309070000000  0.5424650000000  0.5921260000000 1.0
C      1  0.5909130000000  0.5314090000000  0.4943700000000 1.0
C      1  0.4797730000000  0.5299740000000  0.5790810000000 1.0
C      1  0.5844380000000  0.5300160000000  0.4430160000000 1.0
C      1  0.5322840000000  0.4433990000000  0.5709650000000 1.0
C      1  0.5376860000000  0.5284240000000  0.4245100000000 1.0
C      1  0.4359150000000  0.5634320000000  0.5281600000000 1.0
C      1  0.4931270000000  0.5294230000000  0.5281660000000 1.0
C      1  0.4236770000000  0.5299220000000  0.4323250000000 1.0
C      1  0.5028040000000  0.4835390000000  0.4058550000000 1.0
C      1  0.4511830000000  0.4725970000000  0.5512590000000 1.0
C      1  0.5137720000000  0.5462760000000  0.4226360000000 1.0
C      1  0.5298260000000  0.4980960000000  0.4057650000000 1.0
C      1  0.4621120000000  0.4538680000000  0.4729900000000 1.0
C      1  0.4102750000000  0.4801990000000  0.5283930000000 1.0
C      1  0.5312810000000  0.4269260000000  0.5271990000000 1.0
C      1  0.4427110000000  0.4996110000000  0.5630520000000 1.0
C      1  0.5085240000000  0.4955810000000  0.5906950000000 1.0
C      1  0.4880330000000  0.4934040000000  0.4559050000000 1.0
C      1  0.4961410000000  0.6080760000000  0.5156800000000 1.0
C      1  0.4088660000000  0.4477780000000  0.4937820000000 1.0
C      1  0.4792930000000  0.4755880000000  0.5585510000000 1.0
C      1  0.4146390000000  0.4317100000000  0.5362690000000 1.0
C      1  0.5843260000000  0.4605230000000  0.4497400000000 1.0
C      1  0.4174590000000  0.5003640000000  0.4831590000000 1.0
C      1  0.5752630000000  0.4816380000000  0.4297270000000 1.0
C      1  0.4095310000000  0.4572470000000  0.5472650000000 1.0
C      1  0.4983520000000  0.5229850000000  0.5560350000000 1.0
C      1  0.5487230000000  0.4765870000000  0.4150500000000 1.0
C      1  0.5108600000000  0.3989230000000  0.4995950000000 1.0
C      1  0.5405860000000  0.5960200000000  0.4952100000000 1.0
C      1  0.4117320000000  0.5227720000000  0.5045540000000 1.0
C      1  0.5112510000000  0.5685440000000  0.4407550000000 1.0
C      1  0.5600530000000  0.5592560000000  0.4643050000000 1.0
C      1  0.4623150000000  0.5532440000000  0.5705850000000 1.0
C      1  0.4133460000000  0.5664000000000  0.4825590000000 1.0
C      1  0.4441790000000  0.5026120000000  0.4694910000000 1.0
C      1  0.5146050000000  0.5114950000000  0.5164300000000 1.0
C      1  0.4951390000000  0.4240290000000  0.4544630000000 1.0
C      1  0.5416450000000  0.5058760000000  0.4474330000000 1.0
C      1  0.4660780000000  0.5181720000000  0.5166240000000 1.0
C      1  0.4299920000000  0.4858200000000  0.4148110000000 1.0
C      1  0.5297020000000  0.5667820000000  0.5256740000000 1.0
C      1  0.4032720000000  0.4619340000000  0.4472390000000 1.0
C      1  0.4613220000000  0.4440410000000  0.4176300000000 1.0
C      1  0.5089620000000  0.3858730000000  0.4716860000000 1.0
C      1  0.4871550000000  0.5572530000000  0.4894700000000 1.0
C      1  0.5898270000000  0.4496600000000  0.5008450000000 1.0
C      1  0.4545870000000  0.4703160000000  0.4101000000000 1.0
C      1  0.5247180000000  0.5922250000000  0.4521240000000 1.0
C      1  0.5396750000000  0.4550160000000  0.5231590000000 1.0
C      1  0.5792440000000  0.5012490000000  0.5313710000000 1.0
C      1  0.4518230000000  0.4670810000000  0.5193820000000 1.0
C      1  0.4709250000000  0.4871370000000  0.5054320000000 1.0
C      1  0.4867510000000  0.4210920000000  0.5020470000000 1.0
C      1  0.4516580000000  0.5920940000000  0.4743800000000 1.0
C      1  0.5156030000000  0.4810570000000  0.4564090000000 1.0
C      1  0.4466410000000  0.6000700000000  0.5007230000000 1.0
C      1  0.4402950000000  0.4339610000000  0.4650620000000 1.0
C      1  0.5436520000000  0.5427560000000  0.4839540000000 1.0
C      1  0.5318890000000  0.3995560000000  0.4565890000000 1.0
C      1  0.5174490000000  0.4480410000000  0.5954010000000 1.0
C      1  0.4624350000000  0.4301700000000  0.5753000000000 1.0
C      1  0.4616150000000  0.5064710000000  0.5851070000000 1.0
C      1  0.4143820000000  0.5102180000000  0.5305910000000 1.0
C      1  0.5635110000000  0.4609750000000  0.5389040000000 1.0
C      1  0.5324600000000  0.4572880000000  0.4302850000000 1.0
C      1  0.4117460000000  0.4425360000000  0.4650640000000 1.0
C      1  0.4658600000000  0.4837250000000  0.4749110000000 1.0
C      1  0.4085820000000  0.4855630000000  0.4345780000000 1.0
C      1  0.5475500000000  0.5048200000000  0.5614710000000 1.0
C      1  0.5128730000000  0.5121620000000  0.4867070000000 1.0
C      1  0.4888730000000  0.4415280000000  0.4786800000000 1.0
C      1  0.4745820000000  0.4366390000000  0.5285800000000 1.0
C      1  0.5705420000000  0.4260920000000  0.4982690000000 1.0
C      1  0.5581840000000  0.4570520000000  0.5668860000000 1.0
C      1  0.4616900000000  0.5148120000000  0.3956030000000 1.0
C      1  0.5851110000000  0.5015990000000  0.5008600000000 1.0
C      1  0.5171330000000  0.4987540000000  0.5604070000000 1.0
C      1  0.5942410000000  0.5430510000000  0.4678350000000 1.0
C      1  0.4799050000000  0.5837020000000  0.4705540000000 1.0
C      1  0.4835320000000  0.5757760000000  0.4421270000000 1.0
C      1  0.5517580000000  0.5296230000000  0.5762890000000 1.0
C      1  0.5522080000000  0.4807050000000  0.6071790000000 1.0
C      1  0.4997270000000  0.4765220000000  0.5081610000000 1.0
C      1  0.4810300000000  0.4837170000000  0.5874170000000 1.0
C      1  0.5248470000000  0.4202420000000  0.5546330000000 1.0
C      1  0.5233820000000  0.5741640000000  0.5543970000000 1.0
C      1  0.4741720000000  0.4892900000000  0.3998960000000 1.0
C      1  0.4395340000000  0.4129980000000  0.4865530000000 1.0
C      1  0.4433020000000  0.5483290000000  0.4472800000000 1.0
C      1  0.4953140000000  0.4524020000000  0.5492240000000 1.0
C      1  0.4066580000000  0.5111440000000  0.4484210000000 1.0
C      1  0.4669610000000  0.4010890000000  0.4894620000000 1.0
C      1  0.5475760000000  0.4309200000000  0.4292360000000 1.0
C      1  0.5678860000000  0.4362900000000  0.4507620000000 1.0
C      1  0.4415970000000  0.5465970000000  0.5510100000000 1.0
C      1  0.4222030000000  0.4732580000000  0.5025710000000 1.0
C      1  0.5071680000000  0.4562790000000  0.4161370000000 1.0
C      1  0.4218140000000  0.4264410000000  0.5092330000000 1.0
C      1  0.5380710000000  0.4070990000000  0.5079410000000 1.0
C      1  0.4978320000000  0.5879900000000  0.5571590000000 1.0
C      1  0.4842340000000  0.5864590000000  0.5302990000000 1.0
C      1  0.4867670000000  0.5345010000000  0.4255380000000 1.0
C      1  0.5490310000000  0.5435830000000  0.5147350000000 1.0
C      1  0.5864870000000  0.5295480000000  0.5409120000000 1.0
C      1  0.4870870000000  0.4387850000000  0.4277370000000 1.0
C      1  0.5052180000000  0.5393890000000  0.4731930000000 1.0
C      1  0.4877800000000  0.4454220000000  0.5872270000000 1.0
C      1  0.4834830000000  0.5907890000000  0.5806680000000 1.0
C      1  0.4632380000000  0.5392380000000  0.4936070000000 1.0
C      1  0.5760680000000  0.5420910000000  0.5658910000000 1.0
C      1  0.5792520000000  0.5481230000000  0.5185320000000 1.0
C      1  0.5247540000000  0.4751760000000  0.6062600000000 1.0
C      1  0.5494260000000  0.5879010000000  0.4680570000000 1.0
END
