TITL C-951336-9012-556 1.15053619839133e-06 125000 -689.437133335781 0 0 112 (C1) n - 1
REM
REM in /home/bkarasulu/work/CARBON/AIRSS/Generating-Clusters/EDIP-Nigel-Params/with-SteepDescent/Only-C1/SD-CG/HFTN-CG
REM
REM
REM
REM
REM
REM ./C.cell (11c1c37f851c82e70ff6c80c92926a4b)
REM
REM compiler GCC version 9.2.1 20190827 (Red Hat 9.2.1-1)
REM options -cpp -mtune=generic -march=x86-64 -g -O0 -fpre-include=/usr/include/finclude/math-vector-fortran.h
REM seed 690153943 2062150865 -1716225765 505197076 -2107369622 1916540922 -975751956 -46569887 511417844 -1587946289 26262772 -498238291 -1095435644 -1517163048 1991011107 885214211 1780222349 1938757496 1609861708 -460751392 1159361555 1210134763 -2063752918 -1959836543 1612319016 267501166 1387619460 821514338 2060303644 -1454086184 -90703799 -1037870914 -1450308775
REM
CELL 1.54180   50.00000   50.00000   50.00000   90.00000   90.00000   90.00000
LATT -1
SFAC C  
C      1  0.5015150000000  0.4690500000000  0.4672070000000 1.0
C      1  0.4959540000000  0.5467840000000  0.4637610000000 1.0
C      1  0.4904590000000  0.4221300000000  0.5549180000000 1.0
C      1  0.5048550000000  0.4993670000000  0.5014450000000 1.0
C      1  0.4622700000000  0.5724470000000  0.5068200000000 1.0
C      1  0.4640140000000  0.5111500000000  0.5367750000000 1.0
C      1  0.5402670000000  0.4317590000000  0.5443020000000 1.0
C      1  0.5107380000000  0.5381010000000  0.4234480000000 1.0
C      1  0.5228270000000  0.4763330000000  0.5089800000000 1.0
C      1  0.5040780000000  0.4359770000000  0.5773560000000 1.0
C      1  0.4738940000000  0.5646470000000  0.5566150000000 1.0
C      1  0.5119210000000  0.4882500000000  0.4277770000000 1.0
C      1  0.4358020000000  0.4402330000000  0.5162250000000 1.0
C      1  0.5357100000000  0.4307460000000  0.4582460000000 1.0
C      1  0.5395460000000  0.5860640000000  0.4626450000000 1.0
C      1  0.5037140000000  0.4936490000000  0.5524450000000 1.0
C      1  0.6110430000000  0.4983900000000  0.5055530000000 1.0
C      1  0.5179540000000  0.4918370000000  0.5803470000000 1.0
C      1  0.4531680000000  0.5163750000000  0.5089840000000 1.0
C      1  0.5208900000000  0.4180180000000  0.5008940000000 1.0
C      1  0.4809190000000  0.5865430000000  0.4887140000000 1.0
C      1  0.5226920000000  0.5268780000000  0.4585990000000 1.0
C      1  0.5381220000000  0.5175090000000  0.5058450000000 1.0
C      1  0.4626550000000  0.5023830000000  0.4314260000000 1.0
C      1  0.3972770000000  0.4992830000000  0.5312680000000 1.0
C      1  0.4855580000000  0.4200890000000  0.4569070000000 1.0
C      1  0.4753370000000  0.4291960000000  0.4325480000000 1.0
C      1  0.4990240000000  0.5482750000000  0.5496070000000 1.0
C      1  0.5206300000000  0.5125110000000  0.4108310000000 1.0
C      1  0.4314940000000  0.5378230000000  0.5096870000000 1.0
C      1  0.5137590000000  0.4648430000000  0.5347620000000 1.0
C      1  0.4839260000000  0.5747480000000  0.4318790000000 1.0
C      1  0.5425130000000  0.4277510000000  0.5167640000000 1.0
C      1  0.4799820000000  0.4820650000000  0.5161890000000 1.0
C      1  0.4613280000000  0.5300970000000  0.4247840000000 1.0
C      1  0.5223560000000  0.4552230000000  0.4884490000000 1.0
C      1  0.6055910000000  0.4705170000000  0.4980150000000 1.0
C      1  0.4707790000000  0.5758450000000  0.4602370000000 1.0
C      1  0.5469380000000  0.5262320000000  0.4142220000000 1.0
C      1  0.4275390000000  0.5125340000000  0.5727610000000 1.0
C      1  0.4210570000000  0.5265330000000  0.4677740000000 1.0
C      1  0.5351460000000  0.5863480000000  0.4899160000000 1.0
C      1  0.4930440000000  0.5199470000000  0.5380150000000 1.0
C      1  0.5942600000000  0.5024230000000  0.5286780000000 1.0
C      1  0.4070980000000  0.5273850000000  0.4941250000000 1.0
C      1  0.5129070000000  0.4453940000000  0.4464270000000 1.0
C      1  0.5524840000000  0.5473750000000  0.4343320000000 1.0
C      1  0.5059410000000  0.5499200000000  0.4917240000000 1.0
C      1  0.4313860000000  0.5492330000000  0.5380880000000 1.0
C      1  0.4448840000000  0.4901650000000  0.5765480000000 1.0
C      1  0.5191320000000  0.4951050000000  0.4593210000000 1.0
C      1  0.5653130000000  0.5373380000000  0.4574740000000 1.0
C      1  0.5088430000000  0.5407680000000  0.5781490000000 1.0
C      1  0.5947100000000  0.5324990000000  0.4967360000000 1.0
C      1  0.4478280000000  0.4457990000000  0.5426970000000 1.0
C      1  0.4354830000000  0.4697010000000  0.5557370000000 1.0
C      1  0.4425350000000  0.4615810000000  0.4434060000000 1.0
C      1  0.5467270000000  0.4857930000000  0.4676100000000 1.0
C      1  0.4431640000000  0.5493610000000  0.4660210000000 1.0
C      1  0.4693440000000  0.5324230000000  0.4626900000000 1.0
C      1  0.5562180000000  0.4432800000000  0.4728290000000 1.0
C      1  0.4537160000000  0.5701460000000  0.5353290000000 1.0
C      1  0.5298150000000  0.5195200000000  0.5785200000000 1.0
C      1  0.5346670000000  0.5716190000000  0.4395980000000 1.0
C      1  0.5164580000000  0.5664410000000  0.5314740000000 1.0
C      1  0.5340540000000  0.5406820000000  0.4876650000000 1.0
C      1  0.3975420000000  0.5012720000000  0.5027930000000 1.0
C      1  0.5481550000000  0.5157790000000  0.5547160000000 1.0
C      1  0.4831470000000  0.5478360000000  0.4196190000000 1.0
C      1  0.4744590000000  0.4235050000000  0.4838340000000 1.0
C      1  0.4791430000000  0.4741940000000  0.5541210000000 1.0
C      1  0.4708090000000  0.4568230000000  0.4374050000000 1.0
C      1  0.5846910000000  0.5297520000000  0.5246080000000 1.0
C      1  0.5902110000000  0.4689660000000  0.4515530000000 1.0
C      1  0.5451970000000  0.5599560000000  0.5289990000000 1.0
C      1  0.4405920000000  0.5602960000000  0.4932100000000 1.0
C      1  0.4305570000000  0.4513180000000  0.4687600000000 1.0
C      1  0.5627240000000  0.4407640000000  0.5006860000000 1.0
C      1  0.4937540000000  0.4818280000000  0.5959390000000 1.0
C      1  0.4451140000000  0.5298010000000  0.5568110000000 1.0
C      1  0.4823810000000  0.4818410000000  0.4260150000000 1.0
C      1  0.4135010000000  0.4750110000000  0.4835530000000 1.0
C      1  0.5534990000000  0.4875320000000  0.5492420000000 1.0
C      1  0.5110810000000  0.5816690000000  0.4279280000000 1.0
C      1  0.5247930000000  0.4617980000000  0.4231710000000 1.0
C      1  0.5645380000000  0.4774200000000  0.4455530000000 1.0
C      1  0.4900330000000  0.4419720000000  0.5306940000000 1.0
C      1  0.4837040000000  0.4583480000000  0.5813490000000 1.0
C      1  0.5539630000000  0.5694880000000  0.5031400000000 1.0
C      1  0.4321930000000  0.4981640000000  0.4690050000000 1.0
C      1  0.4514050000000  0.4428920000000  0.4900210000000 1.0
C      1  0.4813230000000  0.5302780000000  0.5901080000000 1.0
C      1  0.5386180000000  0.4725070000000  0.5702020000000 1.0
C      1  0.4379480000000  0.4902990000000  0.4410240000000 1.0
C      1  0.4724370000000  0.5008090000000  0.5885790000000 1.0
C      1  0.5702810000000  0.4858000000000  0.5228220000000 1.0
C      1  0.5321980000000  0.4438500000000  0.5683250000000 1.0
C      1  0.4623040000000  0.4257730000000  0.5564740000000 1.0
C      1  0.5587820000000  0.5007800000000  0.4916330000000 1.0
C      1  0.4610580000000  0.5466640000000  0.5760950000000 1.0
C      1  0.4154560000000  0.4783840000000  0.5359090000000 1.0
C      1  0.5523100000000  0.4643900000000  0.4241750000000 1.0
C      1  0.4942800000000  0.4257870000000  0.5054130000000 1.0
C      1  0.4685160000000  0.4841570000000  0.4711560000000 1.0
C      1  0.5821710000000  0.4595200000000  0.5137350000000 1.0
C      1  0.5085980000000  0.5770160000000  0.5018410000000 1.0
C      1  0.4714100000000  0.5115250000000  0.4846570000000 1.0
C      1  0.5539080000000  0.5312580000000  0.5298030000000 1.0
C      1  0.4162570000000  0.4621310000000  0.5124640000000 1.0
C      1  0.5761420000000  0.5214680000000  0.4781750000000 1.0
C      1  0.4663800000000  0.4677960000000  0.4942280000000 1.0
C      1  0.6071840000000  0.4631500000000  0.4713350000000 1.0
END
