TITL C-950524-1808-615 -2.23600737325074e-07 125000 -625.266407615779 0 0 102 (C1) n - 1
REM
REM in /home/bkarasulu/work/CARBON/AIRSS/Generating-Clusters/EDIP-Nigel-Params/with-SteepDescent/Only-C1/SD-CG/HFTN-CG
REM
REM
REM
REM
REM
REM ./C.cell (11c1c37f851c82e70ff6c80c92926a4b)
REM
REM compiler GCC version 9.2.1 20190827 (Red Hat 9.2.1-1)
REM options -cpp -mtune=generic -march=x86-64 -g -O0 -fpre-include=/usr/include/finclude/math-vector-fortran.h
REM seed 1855528706 468225420 84298926 -1250002856 -1228936081 -318350809 -397133311 -43517003 -1755187586 544074021 -776382729 1748821980 1271294706 -106447921 -311772638 1861193724 351775048 -159711853 1956316740 -278113274 536209391 1240457910 -1799148126 -913934209 467251742 1381369137 -1381712192 -1624696541 1428882562 -1153637828 1266438983 132589110 1185900228
REM
CELL 1.54180   50.00000   50.00000   50.00000   90.00000   90.00000   90.00000
LATT -1
SFAC C  
C      1  0.4730730000000  0.5547310000000  0.5383620000000 1.0
C      1  0.5138630000000  0.5109240000000  0.6005600000000 1.0
C      1  0.5425430000000  0.5713960000000  0.4708180000000 1.0
C      1  0.4921320000000  0.4818860000000  0.4377720000000 1.0
C      1  0.5121410000000  0.4246910000000  0.4910140000000 1.0
C      1  0.4932670000000  0.5010780000000  0.5329560000000 1.0
C      1  0.5639570000000  0.4606380000000  0.5145960000000 1.0
C      1  0.5345610000000  0.4858490000000  0.4176520000000 1.0
C      1  0.5142300000000  0.5460960000000  0.5008050000000 1.0
C      1  0.5400260000000  0.4777560000000  0.5063710000000 1.0
C      1  0.4194460000000  0.5328000000000  0.5008960000000 1.0
C      1  0.5029170000000  0.5464960000000  0.4275550000000 1.0
C      1  0.5581360000000  0.5566670000000  0.5234360000000 1.0
C      1  0.6063610000000  0.4835740000000  0.5051690000000 1.0
C      1  0.4648450000000  0.4461470000000  0.4268760000000 1.0
C      1  0.5277630000000  0.4715590000000  0.5552090000000 1.0
C      1  0.4626450000000  0.4701070000000  0.4426070000000 1.0
C      1  0.4022800000000  0.4955080000000  0.5307880000000 1.0
C      1  0.4541270000000  0.4574650000000  0.4725420000000 1.0
C      1  0.5764890000000  0.5342830000000  0.5149710000000 1.0
C      1  0.4884040000000  0.5116180000000  0.4776920000000 1.0
C      1  0.4769060000000  0.5582560000000  0.4615200000000 1.0
C      1  0.4939360000000  0.5477710000000  0.5588530000000 1.0
C      1  0.5204180000000  0.5116190000000  0.4152640000000 1.0
C      1  0.5374260000000  0.5042350000000  0.5895630000000 1.0
C      1  0.4646170000000  0.5008250000000  0.5259190000000 1.0
C      1  0.5346900000000  0.4651770000000  0.4803480000000 1.0
C      1  0.4636790000000  0.5056310000000  0.4935380000000 1.0
C      1  0.6079370000000  0.4800590000000  0.4781750000000 1.0
C      1  0.4910620000000  0.4603980000000  0.5086250000000 1.0
C      1  0.5187800000000  0.5666310000000  0.5553330000000 1.0
C      1  0.5017330000000  0.4245110000000  0.5407660000000 1.0
C      1  0.4522960000000  0.5065200000000  0.4366650000000 1.0
C      1  0.5739310000000  0.4470920000000  0.4898260000000 1.0
C      1  0.4243920000000  0.4897490000000  0.5723540000000 1.0
C      1  0.5045060000000  0.5208960000000  0.5511850000000 1.0
C      1  0.5035090000000  0.4902030000000  0.4646820000000 1.0
C      1  0.5460440000000  0.5479670000000  0.4525910000000 1.0
C      1  0.4958980000000  0.5712880000000  0.4434150000000 1.0
C      1  0.5724130000000  0.5081330000000  0.5270890000000 1.0
C      1  0.4055950000000  0.5111510000000  0.4460200000000 1.0
C      1  0.4699170000000  0.4976840000000  0.5811710000000 1.0
C      1  0.5472350000000  0.5062850000000  0.4975560000000 1.0
C      1  0.5069060000000  0.4538210000000  0.4823810000000 1.0
C      1  0.5051980000000  0.4616120000000  0.5727340000000 1.0
C      1  0.4728130000000  0.5235830000000  0.4248290000000 1.0
C      1  0.4185260000000  0.5217160000000  0.5300970000000 1.0
C      1  0.5799270000000  0.5330630000000  0.4874930000000 1.0
C      1  0.4642880000000  0.4284240000000  0.4719880000000 1.0
C      1  0.5168900000000  0.5855670000000  0.4630920000000 1.0
C      1  0.4177540000000  0.4775320000000  0.5481020000000 1.0
C      1  0.4398740000000  0.4655520000000  0.5331980000000 1.0
C      1  0.5673490000000  0.5265200000000  0.4639080000000 1.0
C      1  0.5037650000000  0.4237020000000  0.4530600000000 1.0
C      1  0.5568360000000  0.4869980000000  0.4355490000000 1.0
C      1  0.5269730000000  0.5211170000000  0.5129890000000 1.0
C      1  0.5140810000000  0.4652990000000  0.4254380000000 1.0
C      1  0.5167980000000  0.5890160000000  0.5380850000000 1.0
C      1  0.5515200000000  0.4399240000000  0.4484990000000 1.0
C      1  0.4629230000000  0.4546330000000  0.5477340000000 1.0
C      1  0.4042660000000  0.4750950000000  0.4819700000000 1.0
C      1  0.5700270000000  0.4632740000000  0.4451700000000 1.0
C      1  0.4622720000000  0.5778120000000  0.4758900000000 1.0
C      1  0.5846610000000  0.4822140000000  0.5229400000000 1.0
C      1  0.5373290000000  0.5669920000000  0.5008450000000 1.0
C      1  0.3941290000000  0.4841420000000  0.5063470000000 1.0
C      1  0.4304040000000  0.4505960000000  0.5114710000000 1.0
C      1  0.5230480000000  0.4432990000000  0.4421990000000 1.0
C      1  0.4319210000000  0.5170570000000  0.4537710000000 1.0
C      1  0.5004040000000  0.5379540000000  0.4726910000000 1.0
C      1  0.4283970000000  0.5567300000000  0.5155440000000 1.0
C      1  0.4882140000000  0.5185960000000  0.5923520000000 1.0
C      1  0.5542720000000  0.4319490000000  0.4759990000000 1.0
C      1  0.5480370000000  0.4505000000000  0.5570690000000 1.0
C      1  0.5430520000000  0.5497190000000  0.5492330000000 1.0
C      1  0.5046790000000  0.4337860000000  0.5674460000000 1.0
C      1  0.4751060000000  0.4268010000000  0.4451010000000 1.0
C      1  0.5722900000000  0.5412600000000  0.4402120000000 1.0
C      1  0.5253530000000  0.5923020000000  0.5114220000000 1.0
C      1  0.4832870000000  0.5459100000000  0.5861160000000 1.0
C      1  0.5409510000000  0.4982120000000  0.5625850000000 1.0
C      1  0.5122850000000  0.4776320000000  0.5256160000000 1.0
C      1  0.4646290000000  0.4734080000000  0.4976040000000 1.0
C      1  0.5842570000000  0.4663300000000  0.4709470000000 1.0
C      1  0.4927100000000  0.5044790000000  0.4188010000000 1.0
C      1  0.4794900000000  0.4735030000000  0.5649410000000 1.0
C      1  0.5354140000000  0.4957100000000  0.4657270000000 1.0
C      1  0.4260650000000  0.4560940000000  0.4843360000000 1.0
C      1  0.3984690000000  0.4881530000000  0.4581250000000 1.0
C      1  0.5326460000000  0.5217690000000  0.5438640000000 1.0
C      1  0.4793700000000  0.4385200000000  0.5277260000000 1.0
C      1  0.4787370000000  0.5831240000000  0.4980870000000 1.0
C      1  0.5490430000000  0.4404960000000  0.5314730000000 1.0
C      1  0.5048000000000  0.5965510000000  0.4898160000000 1.0
C      1  0.4441110000000  0.5566330000000  0.5396210000000 1.0
C      1  0.4839600000000  0.4164870000000  0.4894090000000 1.0
C      1  0.4383140000000  0.5187590000000  0.4825370000000 1.0
C      1  0.5203460000000  0.5323540000000  0.4483280000000 1.0
C      1  0.5235120000000  0.4279200000000  0.5210060000000 1.0
C      1  0.4856720000000  0.5578560000000  0.5121550000000 1.0
C      1  0.4470390000000  0.5195730000000  0.5435250000000 1.0
C      1  0.4444860000000  0.5090220000000  0.5716980000000 1.0
END
