TITL C-951337-3020-305 -3.89575349764828e-07 125000 -1030.01888838597 0 0 165 (C1) n - 1
REM
REM in /home/bkarasulu/work/CARBON/AIRSS/Generating-Clusters/EDIP-Nigel-Params/with-SteepDescent/Only-C1/SD-CG/HFTN-CG
REM
REM
REM
REM
REM
REM ./C.cell (11c1c37f851c82e70ff6c80c92926a4b)
REM
REM compiler GCC version 9.2.1 20190827 (Red Hat 9.2.1-1)
REM options -cpp -mtune=generic -march=x86-64 -g -O0 -fpre-include=/usr/include/finclude/math-vector-fortran.h
REM seed -1973680824 -1989190858 -345349241 -1078021750 582900486 -1457393571 1070084680 -923649777 1899446411 -1669520989 1800150268 2014851730 836547907 -1956952503 -649654683 -989875323 56504237 -1545741285 1668849819 -631150129 -1756086964 830554189 1209149673 -1588550554 -1503250344 1422955928 -695727487 1862653459 -152899130 -1630337858 151364447 1746412499 -648921009
REM
CELL 1.54180   50.00000   50.00000   50.00000   90.00000   90.00000   90.00000
LATT -1
SFAC C  
C      1  0.5629260000000  0.4605110000000  0.4986820000000 1.0
C      1  0.5557120000000  0.5115090000000  0.4131250000000 1.0
C      1  0.5135960000000  0.4488640000000  0.5633930000000 1.0
C      1  0.4388930000000  0.4137990000000  0.4807230000000 1.0
C      1  0.5316040000000  0.4939310000000  0.4121570000000 1.0
C      1  0.5071860000000  0.5450710000000  0.4429810000000 1.0
C      1  0.5414110000000  0.4235870000000  0.5107050000000 1.0
C      1  0.4673170000000  0.4367970000000  0.4155230000000 1.0
C      1  0.5883090000000  0.4328870000000  0.5230160000000 1.0
C      1  0.4998060000000  0.4980210000000  0.4782840000000 1.0
C      1  0.5625900000000  0.4734130000000  0.5785790000000 1.0
C      1  0.5966640000000  0.5062910000000  0.4510130000000 1.0
C      1  0.5718720000000  0.4902040000000  0.4951370000000 1.0
C      1  0.5582310000000  0.5882400000000  0.4732140000000 1.0
C      1  0.5596930000000  0.4543860000000  0.4232760000000 1.0
C      1  0.5527970000000  0.5900080000000  0.5395830000000 1.0
C      1  0.5341010000000  0.5274900000000  0.4906890000000 1.0
C      1  0.5109600000000  0.4652400000000  0.5074720000000 1.0
C      1  0.3996750000000  0.5335900000000  0.5311350000000 1.0
C      1  0.5103580000000  0.4807210000000  0.5936890000000 1.0
C      1  0.5771130000000  0.5523430000000  0.5504520000000 1.0
C      1  0.5787990000000  0.5067430000000  0.4291720000000 1.0
C      1  0.4598220000000  0.5005070000000  0.6111530000000 1.0
C      1  0.4320180000000  0.5728790000000  0.5215480000000 1.0
C      1  0.3870860000000  0.5119160000000  0.5170150000000 1.0
C      1  0.4936650000000  0.5250310000000  0.5853180000000 1.0
C      1  0.4984880000000  0.4028090000000  0.5716050000000 1.0
C      1  0.5571760000000  0.4254400000000  0.4302220000000 1.0
C      1  0.5614420000000  0.4658280000000  0.4508530000000 1.0
C      1  0.5297600000000  0.5597830000000  0.4903650000000 1.0
C      1  0.4921950000000  0.5119080000000  0.4509050000000 1.0
C      1  0.4898380000000  0.4531240000000  0.4057520000000 1.0
C      1  0.5246290000000  0.5867710000000  0.4254720000000 1.0
C      1  0.4153210000000  0.5212880000000  0.4352290000000 1.0
C      1  0.5934780000000  0.5555340000000  0.4679720000000 1.0
C      1  0.4832620000000  0.4372640000000  0.5436650000000 1.0
C      1  0.6088920000000  0.5207970000000  0.4980940000000 1.0
C      1  0.4898040000000  0.4518220000000  0.4909070000000 1.0
C      1  0.4836650000000  0.5867710000000  0.4923490000000 1.0
C      1  0.4400040000000  0.4455250000000  0.4120950000000 1.0
C      1  0.4683370000000  0.5444130000000  0.5131830000000 1.0
C      1  0.6028670000000  0.5461690000000  0.5411590000000 1.0
C      1  0.5037770000000  0.5666860000000  0.4201660000000 1.0
C      1  0.4451710000000  0.5216700000000  0.4727480000000 1.0
C      1  0.5019450000000  0.4986590000000  0.5714180000000 1.0
C      1  0.5081930000000  0.4444200000000  0.4671260000000 1.0
C      1  0.5289720000000  0.4176750000000  0.4258150000000 1.0
C      1  0.4949630000000  0.5447110000000  0.5601450000000 1.0
C      1  0.4532500000000  0.5018310000000  0.5522640000000 1.0
C      1  0.5366190000000  0.5405950000000  0.4452480000000 1.0
C      1  0.4531710000000  0.4134660000000  0.5090810000000 1.0
C      1  0.4468720000000  0.5317690000000  0.5768660000000 1.0
C      1  0.5910710000000  0.4577280000000  0.4543380000000 1.0
C      1  0.4767130000000  0.5689750000000  0.5640480000000 1.0
C      1  0.4029660000000  0.4662120000000  0.5367200000000 1.0
C      1  0.4799460000000  0.4862010000000  0.5544520000000 1.0
C      1  0.5364040000000  0.4652840000000  0.4091630000000 1.0
C      1  0.4114360000000  0.4199450000000  0.4821620000000 1.0
C      1  0.5310670000000  0.5386190000000  0.5526220000000 1.0
C      1  0.4039150000000  0.5281430000000  0.5581520000000 1.0
C      1  0.4624170000000  0.4758020000000  0.4568540000000 1.0
C      1  0.5282230000000  0.5965160000000  0.4760440000000 1.0
C      1  0.4028230000000  0.4438270000000  0.4935290000000 1.0
C      1  0.4467210000000  0.4287340000000  0.4566690000000 1.0
C      1  0.4694380000000  0.4396920000000  0.5138140000000 1.0
C      1  0.5898280000000  0.4319000000000  0.4705200000000 1.0
C      1  0.4306720000000  0.5719950000000  0.5494350000000 1.0
C      1  0.4161950000000  0.4681750000000  0.4326060000000 1.0
C      1  0.3917810000000  0.4910640000000  0.4709100000000 1.0
C      1  0.5300360000000  0.3987410000000  0.4521250000000 1.0
C      1  0.4845190000000  0.5995720000000  0.4461850000000 1.0
C      1  0.5988090000000  0.5271100000000  0.4711840000000 1.0
C      1  0.4188700000000  0.4497520000000  0.5174650000000 1.0
C      1  0.6057160000000  0.4810430000000  0.5324200000000 1.0
C      1  0.5311240000000  0.5075700000000  0.5582330000000 1.0
C      1  0.4894500000000  0.4084260000000  0.5449660000000 1.0
C      1  0.4430930000000  0.5286330000000  0.5062070000000 1.0
C      1  0.5000480000000  0.5636370000000  0.4821600000000 1.0
C      1  0.5723870000000  0.5794380000000  0.5574840000000 1.0
C      1  0.5300260000000  0.4991980000000  0.6078980000000 1.0
C      1  0.4789440000000  0.5856360000000  0.5399800000000 1.0
C      1  0.5081940000000  0.6017600000000  0.5032530000000 1.0
C      1  0.4234330000000  0.5391340000000  0.4593070000000 1.0
C      1  0.4759390000000  0.4787430000000  0.4826770000000 1.0
C      1  0.5705980000000  0.5827360000000  0.4995470000000 1.0
C      1  0.5247570000000  0.4822300000000  0.4839030000000 1.0
C      1  0.5905520000000  0.4576670000000  0.5407990000000 1.0
C      1  0.5098240000000  0.4657700000000  0.4453410000000 1.0
C      1  0.5094250000000  0.4264400000000  0.5833110000000 1.0
C      1  0.5153800000000  0.4483950000000  0.4206770000000 1.0
C      1  0.4682490000000  0.4585490000000  0.5873160000000 1.0
C      1  0.4322120000000  0.4885560000000  0.5732030000000 1.0
C      1  0.4844160000000  0.4813870000000  0.3999810000000 1.0
C      1  0.5547130000000  0.5436730000000  0.5319930000000 1.0
C      1  0.4166750000000  0.4640140000000  0.5619810000000 1.0
C      1  0.5987980000000  0.4825140000000  0.4677290000000 1.0
C      1  0.5420120000000  0.5359740000000  0.5992080000000 1.0
C      1  0.5281510000000  0.4465390000000  0.5217750000000 1.0
C      1  0.4887800000000  0.4852430000000  0.5261960000000 1.0
C      1  0.4361230000000  0.5647030000000  0.4493670000000 1.0
C      1  0.5270590000000  0.5792890000000  0.5768800000000 1.0
C      1  0.5476080000000  0.5394070000000  0.4163780000000 1.0
C      1  0.5693730000000  0.5663310000000  0.4557220000000 1.0
C      1  0.5463310000000  0.4460590000000  0.4728800000000 1.0
C      1  0.4664070000000  0.5237540000000  0.5972380000000 1.0
C      1  0.4477440000000  0.4595160000000  0.5134030000000 1.0
C      1  0.5535390000000  0.5128000000000  0.5121940000000 1.0
C      1  0.4044140000000  0.5411220000000  0.4826220000000 1.0
C      1  0.4414470000000  0.5132530000000  0.4237770000000 1.0
C      1  0.5501250000000  0.5013790000000  0.5830140000000 1.0
C      1  0.5142250000000  0.5989000000000  0.4489650000000 1.0
C      1  0.5033860000000  0.3948170000000  0.4692930000000 1.0
C      1  0.4284180000000  0.4237850000000  0.5312490000000 1.0
C      1  0.5646910000000  0.4162760000000  0.5229940000000 1.0
C      1  0.4919550000000  0.5298780000000  0.4111320000000 1.0
C      1  0.4040070000000  0.4933820000000  0.4441000000000 1.0
C      1  0.5149140000000  0.5268550000000  0.6074080000000 1.0
C      1  0.6013940000000  0.4927550000000  0.5049950000000 1.0
C      1  0.5661140000000  0.5594120000000  0.4276310000000 1.0
C      1  0.4854500000000  0.5404410000000  0.4885850000000 1.0
C      1  0.4184810000000  0.5468980000000  0.5107360000000 1.0
C      1  0.4408420000000  0.4949170000000  0.4574930000000 1.0
C      1  0.5294090000000  0.3992380000000  0.5096900000000 1.0
C      1  0.4998930000000  0.5120920000000  0.5242410000000 1.0
C      1  0.5446320000000  0.4563870000000  0.5615230000000 1.0
C      1  0.5480590000000  0.4654290000000  0.5328030000000 1.0
C      1  0.5900820000000  0.4470350000000  0.4972740000000 1.0
C      1  0.5996300000000  0.5431610000000  0.5135690000000 1.0
C      1  0.5041100000000  0.5027860000000  0.4038030000000 1.0
C      1  0.4611660000000  0.4849840000000  0.5097650000000 1.0
C      1  0.4672900000000  0.5987450000000  0.4702140000000 1.0
C      1  0.4700030000000  0.4222800000000  0.4409050000000 1.0
C      1  0.5369360000000  0.4873100000000  0.4555370000000 1.0
C      1  0.5418960000000  0.5174650000000  0.4630580000000 1.0
C      1  0.4802110000000  0.3966740000000  0.5178540000000 1.0
C      1  0.5048460000000  0.5199960000000  0.4967110000000 1.0
C      1  0.4494810000000  0.4794920000000  0.5960800000000 1.0
C      1  0.4824520000000  0.5310650000000  0.5365800000000 1.0
C      1  0.4619490000000  0.5331130000000  0.4176220000000 1.0
C      1  0.5271170000000  0.5936570000000  0.5521250000000 1.0
C      1  0.4961360000000  0.4538330000000  0.5973980000000 1.0
C      1  0.3934920000000  0.5140600000000  0.4889460000000 1.0
C      1  0.5032940000000  0.3984770000000  0.4986010000000 1.0
C      1  0.4846160000000  0.4831540000000  0.4381410000000 1.0
C      1  0.3900060000000  0.4650090000000  0.4806770000000 1.0
C      1  0.4629870000000  0.5745330000000  0.5165740000000 1.0
C      1  0.5606810000000  0.4213340000000  0.4611100000000 1.0
C      1  0.4486180000000  0.5604800000000  0.5677920000000 1.0
C      1  0.4584290000000  0.5583820000000  0.4320820000000 1.0
C      1  0.4262280000000  0.4403570000000  0.4376780000000 1.0
C      1  0.5063450000000  0.5913160000000  0.5315750000000 1.0
C      1  0.3861520000000  0.4874730000000  0.5301180000000 1.0
C      1  0.5944360000000  0.5655420000000  0.4955050000000 1.0
C      1  0.5486980000000  0.5705460000000  0.5164260000000 1.0
C      1  0.4203770000000  0.5171310000000  0.5775390000000 1.0
C      1  0.4614380000000  0.4425990000000  0.5641250000000 1.0
C      1  0.4969560000000  0.4200220000000  0.4535470000000 1.0
C      1  0.4420270000000  0.5869300000000  0.4653050000000 1.0
C      1  0.4715950000000  0.5309980000000  0.4643060000000 1.0
C      1  0.5408190000000  0.5542110000000  0.5758700000000 1.0
C      1  0.5394400000000  0.4943700000000  0.5320960000000 1.0
C      1  0.4775470000000  0.5793630000000  0.4255310000000 1.0
C      1  0.4434150000000  0.5043160000000  0.5231390000000 1.0
C      1  0.4331500000000  0.4385760000000  0.5581360000000 1.0
C      1  0.5888720000000  0.4725450000000  0.5660940000000 1.0
END
