TITL C-950523-3027-335 -1.2504665509021e-06 125000 -346.295783658236 0 0 57 (C1) n - 1
REM
REM in /home/bkarasulu/work/CARBON/AIRSS/Generating-Clusters/EDIP-Nigel-Params/with-SteepDescent/Only-C1/SD-CG/HFTN-CG
REM
REM
REM
REM
REM
REM ./C.cell (11c1c37f851c82e70ff6c80c92926a4b)
REM
REM compiler GCC version 9.2.1 20190827 (Red Hat 9.2.1-1)
REM options -cpp -mtune=generic -march=x86-64 -g -O0 -fpre-include=/usr/include/finclude/math-vector-fortran.h
REM seed 951340363 1286880270 -850643524 -2130020652 -845508854 -1194042292 -981875632 -2079176643 58020776 -1904240252 -720824725 2067301832 505770665 -1521985416 -754645326 1166608567 2099553602 -551460315 -1267513964 1981819987 -1001985271 473401354 -1057527382 1230673380 -579159799 1308695955 -1858877670 1277747081 165757755 1385905676 2016867103 -1264548313 680205428
REM
CELL 1.54180   50.00000   50.00000   50.00000   90.00000   90.00000   90.00000
LATT -1
SFAC C  
C      1  0.4764090000000  0.4413580000000  0.5342890000000 1.0
C      1  0.5200290000000  0.4907380000000  0.4359710000000 1.0
C      1  0.5334520000000  0.4437310000000  0.5141920000000 1.0
C      1  0.5138340000000  0.5647560000000  0.4443740000000 1.0
C      1  0.5503170000000  0.5526050000000  0.4714980000000 1.0
C      1  0.4772060000000  0.4822700000000  0.4972040000000 1.0
C      1  0.5148410000000  0.5055100000000  0.5872660000000 1.0
C      1  0.4426030000000  0.4403430000000  0.5061620000000 1.0
C      1  0.5561590000000  0.4792890000000  0.5376080000000 1.0
C      1  0.5013780000000  0.4702290000000  0.4359120000000 1.0
C      1  0.4691220000000  0.4353690000000  0.4905950000000 1.0
C      1  0.5106460000000  0.5727070000000  0.4924220000000 1.0
C      1  0.4853010000000  0.4591270000000  0.4790650000000 1.0
C      1  0.5113790000000  0.5072240000000  0.5311790000000 1.0
C      1  0.5677690000000  0.4882130000000  0.4870560000000 1.0
C      1  0.4784790000000  0.4655200000000  0.4506390000000 1.0
C      1  0.4592110000000  0.4852130000000  0.4467450000000 1.0
C      1  0.4298850000000  0.4669380000000  0.5020920000000 1.0
C      1  0.5602710000000  0.5064110000000  0.5319850000000 1.0
C      1  0.4621300000000  0.5460460000000  0.4899700000000 1.0
C      1  0.4820440000000  0.4869650000000  0.5914690000000 1.0
C      1  0.5471970000000  0.4851240000000  0.4397710000000 1.0
C      1  0.5491750000000  0.5356330000000  0.4955320000000 1.0
C      1  0.5366120000000  0.5237950000000  0.5394470000000 1.0
C      1  0.5144750000000  0.4248440000000  0.5057200000000 1.0
C      1  0.4793040000000  0.5249390000000  0.5608240000000 1.0
C      1  0.4716810000000  0.5652570000000  0.4716840000000 1.0
C      1  0.5109560000000  0.5181850000000  0.4363990000000 1.0
C      1  0.4597030000000  0.4907630000000  0.5403260000000 1.0
C      1  0.5664260000000  0.5124130000000  0.5034530000000 1.0
C      1  0.5667480000000  0.4882190000000  0.4589890000000 1.0
C      1  0.5332130000000  0.4635020000000  0.5347500000000 1.0
C      1  0.4348840000000  0.5098790000000  0.5090040000000 1.0
C      1  0.5161610000000  0.4550820000000  0.4816290000000 1.0
C      1  0.4606770000000  0.5124660000000  0.4531590000000 1.0
C      1  0.5277760000000  0.5722230000000  0.4698410000000 1.0
C      1  0.5067140000000  0.5541010000000  0.5130990000000 1.0
C      1  0.4484070000000  0.4890330000000  0.4888160000000 1.0
C      1  0.4482720000000  0.4364240000000  0.5343780000000 1.0
C      1  0.5077210000000  0.4787060000000  0.5838810000000 1.0
C      1  0.5084160000000  0.4788690000000  0.5394420000000 1.0
C      1  0.5346490000000  0.5453640000000  0.5191860000000 1.0
C      1  0.5314050000000  0.4817700000000  0.4776300000000 1.0
C      1  0.4453700000000  0.5256670000000  0.4758310000000 1.0
C      1  0.5292820000000  0.5410870000000  0.4342570000000 1.0
C      1  0.4650070000000  0.5020390000000  0.5736600000000 1.0
C      1  0.5553280000000  0.5407810000000  0.4460500000000 1.0
C      1  0.4853490000000  0.5560790000000  0.4487090000000 1.0
C      1  0.4924850000000  0.5078350000000  0.4927450000000 1.0
C      1  0.4309890000000  0.4866940000000  0.5286640000000 1.0
C      1  0.4862700000000  0.4235130000000  0.5121040000000 1.0
C      1  0.4699300000000  0.5209320000000  0.5334240000000 1.0
C      1  0.4811870000000  0.4711720000000  0.5281470000000 1.0
C      1  0.5086700000000  0.5241730000000  0.5658570000000 1.0
C      1  0.4833080000000  0.5327450000000  0.5079650000000 1.0
C      1  0.4838650000000  0.5274560000000  0.4427040000000 1.0
C      1  0.5199230000000  0.5026740000000  0.4952320000000 1.0
END
