TITL C-950527-2551-623 -2.74471137608145e-06 125000 -450.691183736196 0 0 74 (C1) n - 1
REM
REM in /home/bkarasulu/work/CARBON/AIRSS/Generating-Clusters/EDIP-Nigel-Params/with-SteepDescent/Only-C1/SD-CG/HFTN-CG
REM
REM
REM
REM
REM
REM ./C.cell (11c1c37f851c82e70ff6c80c92926a4b)
REM
REM compiler GCC version 9.2.1 20190827 (Red Hat 9.2.1-1)
REM options -cpp -mtune=generic -march=x86-64 -g -O0 -fpre-include=/usr/include/finclude/math-vector-fortran.h
REM seed -738516002 948196188 -1803609236 -1552394114 866577477 609248043 -1582519304 436029658 -1519989066 1789837319 -640881477 -150750001 2029834602 -1403195837 447017974 -859917826 -579041575 -1924062318 -1072714409 1088401845 -1820178578 -1149704316 -1429837921 539958499 -1161567870 2112716605 -1699522103 -4168402 1285976656 -1675888259 -608003037 -1925089013 -514258821
REM
CELL 1.54180   50.00000   50.00000   50.00000   90.00000   90.00000   90.00000
LATT -1
SFAC C  
C      1  0.4987150000000  0.4318240000000  0.5036310000000 1.0
C      1  0.5596900000000  0.5072990000000  0.5622530000000 1.0
C      1  0.4847240000000  0.5060300000000  0.5158970000000 1.0
C      1  0.5626570000000  0.4824700000000  0.4946680000000 1.0
C      1  0.5221320000000  0.5089460000000  0.4491570000000 1.0
C      1  0.5242470000000  0.4326590000000  0.5189440000000 1.0
C      1  0.4489260000000  0.4411970000000  0.4805750000000 1.0
C      1  0.4578840000000  0.5065790000000  0.5429850000000 1.0
C      1  0.4892250000000  0.4516710000000  0.5421820000000 1.0
C      1  0.5792010000000  0.5196810000000  0.5440710000000 1.0
C      1  0.5261790000000  0.4704250000000  0.5664440000000 1.0
C      1  0.5264640000000  0.5308680000000  0.4921880000000 1.0
C      1  0.4143600000000  0.4757730000000  0.5174000000000 1.0
C      1  0.4845290000000  0.5786060000000  0.4694710000000 1.0
C      1  0.4550810000000  0.4859800000000  0.5627170000000 1.0
C      1  0.5163510000000  0.4443410000000  0.5552370000000 1.0
C      1  0.4774850000000  0.4726750000000  0.4701730000000 1.0
C      1  0.5598050000000  0.4774410000000  0.4650190000000 1.0
C      1  0.5530880000000  0.5423940000000  0.4828260000000 1.0
C      1  0.5139930000000  0.5769680000000  0.5118970000000 1.0
C      1  0.5422080000000  0.4888450000000  0.4431970000000 1.0
C      1  0.4992310000000  0.5391770000000  0.4467380000000 1.0
C      1  0.4606670000000  0.5345170000000  0.5514340000000 1.0
C      1  0.4920750000000  0.5407970000000  0.5568190000000 1.0
C      1  0.4851520000000  0.5011450000000  0.4847790000000 1.0
C      1  0.4930440000000  0.4427410000000  0.4757970000000 1.0
C      1  0.4699880000000  0.5358940000000  0.4520500000000 1.0
C      1  0.4462380000000  0.4763480000000  0.4392440000000 1.0
C      1  0.5135840000000  0.5095310000000  0.4762940000000 1.0
C      1  0.4649640000000  0.5220710000000  0.4776000000000 1.0
C      1  0.4883130000000  0.5362530000000  0.5180700000000 1.0
C      1  0.4699240000000  0.4272120000000  0.4671220000000 1.0
C      1  0.4904430000000  0.5875020000000  0.4970560000000 1.0
C      1  0.5480940000000  0.4367940000000  0.5020990000000 1.0
C      1  0.4596170000000  0.5633950000000  0.4618350000000 1.0
C      1  0.5665730000000  0.4633340000000  0.5390380000000 1.0
C      1  0.5689180000000  0.5455290000000  0.5314000000000 1.0
C      1  0.5098580000000  0.5198310000000  0.5707130000000 1.0
C      1  0.5663730000000  0.4584480000000  0.5112200000000 1.0
C      1  0.4220430000000  0.5239510000000  0.5033370000000 1.0
C      1  0.5180170000000  0.4387880000000  0.4589820000000 1.0
C      1  0.5208830000000  0.4509720000000  0.4338500000000 1.0
C      1  0.4394030000000  0.5623920000000  0.4815680000000 1.0
C      1  0.5732620000000  0.5340280000000  0.5025030000000 1.0
C      1  0.4786530000000  0.4821640000000  0.5770620000000 1.0
C      1  0.5563280000000  0.5668610000000  0.4697310000000 1.0
C      1  0.5510550000000  0.4802020000000  0.5551830000000 1.0
C      1  0.5330140000000  0.5737020000000  0.4585440000000 1.0
C      1  0.4607970000000  0.5479640000000  0.5225620000000 1.0
C      1  0.4751730000000  0.4764980000000  0.4391060000000 1.0
C      1  0.4603620000000  0.5172860000000  0.4296990000000 1.0
C      1  0.4322170000000  0.4560040000000  0.5280640000000 1.0
C      1  0.5354870000000  0.4708980000000  0.4223380000000 1.0
C      1  0.5046290000000  0.4906260000000  0.5705270000000 1.0
C      1  0.4184000000000  0.4814440000000  0.4793550000000 1.0
C      1  0.5067230000000  0.5653240000000  0.4556690000000 1.0
C      1  0.4762610000000  0.4344770000000  0.5218870000000 1.0
C      1  0.4390630000000  0.4658910000000  0.4662240000000 1.0
C      1  0.4264290000000  0.4966030000000  0.5018160000000 1.0
C      1  0.5382820000000  0.5410370000000  0.5386140000000 1.0
C      1  0.5167380000000  0.5627720000000  0.5375020000000 1.0
C      1  0.5614190000000  0.5064760000000  0.5136110000000 1.0
C      1  0.4365950000000  0.5023120000000  0.4328550000000 1.0
C      1  0.5658410000000  0.4500700000000  0.4590620000000 1.0
C      1  0.4463540000000  0.5384910000000  0.4968050000000 1.0
C      1  0.5046310000000  0.5512880000000  0.4974880000000 1.0
C      1  0.4413170000000  0.4634360000000  0.5535790000000 1.0
C      1  0.5379160000000  0.5277860000000  0.5653290000000 1.0
C      1  0.5105690000000  0.4686250000000  0.5249560000000 1.0
C      1  0.5325250000000  0.5173840000000  0.5185350000000 1.0
C      1  0.5100750000000  0.4978720000000  0.5270250000000 1.0
C      1  0.4823100000000  0.4999340000000  0.4245470000000 1.0
C      1  0.4529190000000  0.4464670000000  0.5093080000000 1.0
C      1  0.5443080000000  0.4367830000000  0.4725400000000 1.0
END
