TITL C-951348-1603-616 2.23145060640757e-06 125000 -516.39559198824 0 0 85 (C1) n - 1
REM
REM in /home/bkarasulu/work/CARBON/AIRSS/Generating-Clusters/EDIP-Nigel-Params/with-SteepDescent/Only-C1/SD-CG/HFTN-CG
REM
REM
REM
REM
REM
REM ./C.cell (11c1c37f851c82e70ff6c80c92926a4b)
REM
REM compiler GCC version 9.2.1 20190827 (Red Hat 9.2.1-1)
REM options -cpp -mtune=generic -march=x86-64 -g -O0 -fpre-include=/usr/include/finclude/math-vector-fortran.h
REM seed -783489712 -2067427159 -1018172029 -1226287534 -1548587661 -865876495 -1611960381 1567253102 -1185915326 1640155402 -83638371 -1788925321 -1228909385 101202495 72267910 443832864 -2006624014 612987466 1029956129 -1508288448 -401786160 886831771 -1810360183 -327000148 1190121797 -1029578811 683582581 538622971 -1242988828 -1051475946 -1216787163 1718774328 -1414973269
REM
CELL 1.54180   50.00000   50.00000   50.00000   90.00000   90.00000   90.00000
LATT -1
SFAC C  
C      1  0.5121180000000  0.4575000000000  0.5775560000000 1.0
C      1  0.4842710000000  0.4894610000000  0.5655620000000 1.0
C      1  0.4907660000000  0.4091900000000  0.5128240000000 1.0
C      1  0.5664570000000  0.5220350000000  0.5262620000000 1.0
C      1  0.4454370000000  0.4915630000000  0.4173180000000 1.0
C      1  0.4303730000000  0.4572300000000  0.4481580000000 1.0
C      1  0.4137190000000  0.5230060000000  0.4761810000000 1.0
C      1  0.4624430000000  0.4856890000000  0.4936070000000 1.0
C      1  0.5090560000000  0.5490420000000  0.5599630000000 1.0
C      1  0.4598460000000  0.5684980000000  0.5208630000000 1.0
C      1  0.5268880000000  0.5069090000000  0.4299540000000 1.0
C      1  0.4313490000000  0.5363950000000  0.4930450000000 1.0
C      1  0.5407010000000  0.4911150000000  0.5444490000000 1.0
C      1  0.4611620000000  0.5315090000000  0.4882960000000 1.0
C      1  0.5516990000000  0.4836380000000  0.5822860000000 1.0
C      1  0.4845590000000  0.5393890000000  0.5724270000000 1.0
C      1  0.5349020000000  0.4273600000000  0.5010130000000 1.0
C      1  0.4659750000000  0.4741580000000  0.4246440000000 1.0
C      1  0.4380600000000  0.5020530000000  0.5323070000000 1.0
C      1  0.4509930000000  0.4429450000000  0.4918620000000 1.0
C      1  0.5195480000000  0.5749630000000  0.5516630000000 1.0
C      1  0.4876770000000  0.4841950000000  0.5366310000000 1.0
C      1  0.4991670000000  0.4324970000000  0.4691660000000 1.0
C      1  0.5493890000000  0.4954660000000  0.4965140000000 1.0
C      1  0.4582890000000  0.5349110000000  0.5595000000000 1.0
C      1  0.5557410000000  0.5104490000000  0.4697150000000 1.0
C      1  0.4789510000000  0.5643340000000  0.4505600000000 1.0
C      1  0.5237650000000  0.4823710000000  0.5840790000000 1.0
C      1  0.5760710000000  0.4701300000000  0.5202830000000 1.0
C      1  0.4812550000000  0.5716060000000  0.5031600000000 1.0
C      1  0.4801930000000  0.5538550000000  0.4788170000000 1.0
C      1  0.5731740000000  0.4529920000000  0.4795380000000 1.0
C      1  0.4778880000000  0.4252840000000  0.5318300000000 1.0
C      1  0.5399610000000  0.5242080000000  0.4475570000000 1.0
C      1  0.4579850000000  0.4538170000000  0.4439630000000 1.0
C      1  0.5020540000000  0.4423600000000  0.5564730000000 1.0
C      1  0.5572660000000  0.5251920000000  0.5555890000000 1.0
C      1  0.5679710000000  0.5021020000000  0.5695420000000 1.0
C      1  0.5150570000000  0.5786570000000  0.4217310000000 1.0
C      1  0.5280970000000  0.4599300000000  0.4360690000000 1.0
C      1  0.4254840000000  0.4752080000000  0.5219530000000 1.0
C      1  0.4313150000000  0.5109160000000  0.4317050000000 1.0
C      1  0.4740290000000  0.5253030000000  0.5141520000000 1.0
C      1  0.5866340000000  0.4497240000000  0.5038810000000 1.0
C      1  0.4453750000000  0.5501410000000  0.5370150000000 1.0
C      1  0.5275430000000  0.5281850000000  0.5641680000000 1.0
C      1  0.4683480000000  0.5061270000000  0.4732290000000 1.0
C      1  0.5284330000000  0.4542070000000  0.5150670000000 1.0
C      1  0.5084520000000  0.4165060000000  0.4925020000000 1.0
C      1  0.4277860000000  0.5307460000000  0.5218730000000 1.0
C      1  0.4713830000000  0.4437580000000  0.4687210000000 1.0
C      1  0.4917400000000  0.4783350000000  0.4157610000000 1.0
C      1  0.5058530000000  0.5607150000000  0.4389550000000 1.0
C      1  0.4208480000000  0.4753930000000  0.4672450000000 1.0
C      1  0.4566730000000  0.5564840000000  0.4360310000000 1.0
C      1  0.5253830000000  0.5478230000000  0.4584300000000 1.0
C      1  0.5500310000000  0.4657740000000  0.5320980000000 1.0
C      1  0.5239030000000  0.5838030000000  0.5238400000000 1.0
C      1  0.4529990000000  0.4368400000000  0.5209200000000 1.0
C      1  0.5825340000000  0.4726820000000  0.4618750000000 1.0
C      1  0.5241710000000  0.4480570000000  0.4614420000000 1.0
C      1  0.5181650000000  0.4816450000000  0.4224260000000 1.0
C      1  0.4201510000000  0.5032440000000  0.4577160000000 1.0
C      1  0.5833210000000  0.4986400000000  0.5166380000000 1.0
C      1  0.5457650000000  0.5789780000000  0.5067880000000 1.0
C      1  0.5459070000000  0.5542430000000  0.4920220000000 1.0
C      1  0.5005770000000  0.4566720000000  0.5306980000000 1.0
C      1  0.5275100000000  0.4729470000000  0.4917830000000 1.0
C      1  0.5059990000000  0.4927170000000  0.4973920000000 1.0
C      1  0.5824840000000  0.5005580000000  0.4603020000000 1.0
C      1  0.4978710000000  0.5077800000000  0.4736120000000 1.0
C      1  0.4444080000000  0.5086170000000  0.5614930000000 1.0
C      1  0.4365220000000  0.4701270000000  0.4931250000000 1.0
C      1  0.4661150000000  0.4985460000000  0.5201030000000 1.0
C      1  0.5057590000000  0.5366490000000  0.4780430000000 1.0
C      1  0.5256180000000  0.5105350000000  0.5147510000000 1.0
C      1  0.4580140000000  0.4898200000000  0.5762610000000 1.0
C      1  0.5483550000000  0.4372880000000  0.4759040000000 1.0
C      1  0.4347490000000  0.4524020000000  0.5358260000000 1.0
C      1  0.5045810000000  0.5611270000000  0.5182690000000 1.0
C      1  0.5699970000000  0.5373060000000  0.5003450000000 1.0
C      1  0.5080320000000  0.5087940000000  0.5788300000000 1.0
C      1  0.4391850000000  0.5374510000000  0.4289710000000 1.0
C      1  0.5909010000000  0.5191440000000  0.4839360000000 1.0
C      1  0.5208230000000  0.5400380000000  0.5029430000000 1.0
END
