TITL C-950534-5965-176 -3.66969858747406e-07 125000 -596.170068844483 0 0 97 (C1) n - 1
REM
REM in /home/bkarasulu/work/CARBON/AIRSS/Generating-Clusters/EDIP-Nigel-Params/with-SteepDescent/Only-C1/SD-CG/HFTN-CG
REM
REM
REM
REM
REM
REM ./C.cell (11c1c37f851c82e70ff6c80c92926a4b)
REM
REM compiler GCC version 9.2.1 20190827 (Red Hat 9.2.1-1)
REM options -cpp -mtune=generic -march=x86-64 -g -O0 -fpre-include=/usr/include/finclude/math-vector-fortran.h
REM seed -1394521253 629156215 -614772511 -1440925044 772569876 -1941528173 -751267593 -1297056519 -1074232678 777662105 -251951564 1676733562 881257778 -467427901 -781809467 1174594776 -1053017849 -940575630 990901925 1157032671 290945419 -441424670 1896591659 779302118 -1733805955 -945844899 446609978 -218598546 -806637673 894782681 361594301 1290218188 1473101488
REM
CELL 1.54180   50.00000   50.00000   50.00000   90.00000   90.00000   90.00000
LATT -1
SFAC C  
C      1  0.4558360000000  0.4447780000000  0.5010090000000 1.0
C      1  0.5689050000000  0.5236240000000  0.4698730000000 1.0
C      1  0.5758860000000  0.4761890000000  0.4839220000000 1.0
C      1  0.4242410000000  0.5065630000000  0.4491240000000 1.0
C      1  0.4726720000000  0.4712350000000  0.5033350000000 1.0
C      1  0.5252590000000  0.4438570000000  0.4443820000000 1.0
C      1  0.5692340000000  0.4896610000000  0.5612540000000 1.0
C      1  0.5306000000000  0.4285300000000  0.5492070000000 1.0
C      1  0.4570790000000  0.5674620000000  0.4694510000000 1.0
C      1  0.3951120000000  0.5272290000000  0.4823230000000 1.0
C      1  0.5465920000000  0.4268770000000  0.4537720000000 1.0
C      1  0.4460090000000  0.5276200000000  0.4460850000000 1.0
C      1  0.5005960000000  0.5680680000000  0.4611690000000 1.0
C      1  0.5855340000000  0.4754620000000  0.5290830000000 1.0
C      1  0.4953280000000  0.4708700000000  0.4840970000000 1.0
C      1  0.5559370000000  0.5143180000000  0.4439480000000 1.0
C      1  0.4573320000000  0.5372140000000  0.5785180000000 1.0
C      1  0.4556400000000  0.5923770000000  0.4845710000000 1.0
C      1  0.5556760000000  0.4843130000000  0.4400820000000 1.0
C      1  0.5423100000000  0.4124930000000  0.4772530000000 1.0
C      1  0.4511090000000  0.4258710000000  0.4559850000000 1.0
C      1  0.4978580000000  0.5481050000000  0.4820030000000 1.0
C      1  0.4846880000000  0.4727950000000  0.5322830000000 1.0
C      1  0.5816480000000  0.5042700000000  0.4889640000000 1.0
C      1  0.4754260000000  0.4213870000000  0.5018140000000 1.0
C      1  0.5615610000000  0.5384340000000  0.5582570000000 1.0
C      1  0.4534080000000  0.4973640000000  0.4961680000000 1.0
C      1  0.4889210000000  0.5527630000000  0.4282470000000 1.0
C      1  0.4853330000000  0.4621080000000  0.4315920000000 1.0
C      1  0.4920710000000  0.5947320000000  0.4719910000000 1.0
C      1  0.5045780000000  0.5010880000000  0.4861650000000 1.0
C      1  0.4353560000000  0.5557120000000  0.4535980000000 1.0
C      1  0.5092990000000  0.4426080000000  0.5640170000000 1.0
C      1  0.5149520000000  0.5289760000000  0.5717340000000 1.0
C      1  0.4096290000000  0.5590140000000  0.4662650000000 1.0
C      1  0.5746660000000  0.4678700000000  0.4561930000000 1.0
C      1  0.4945040000000  0.5091660000000  0.4230870000000 1.0
C      1  0.4473540000000  0.4711750000000  0.4618420000000 1.0
C      1  0.4377020000000  0.4492030000000  0.5265140000000 1.0
C      1  0.5157810000000  0.5350070000000  0.5229850000000 1.0
C      1  0.4898020000000  0.5765050000000  0.5216360000000 1.0
C      1  0.5470260000000  0.5809260000000  0.5275800000000 1.0
C      1  0.4414870000000  0.4451350000000  0.4740530000000 1.0
C      1  0.4305420000000  0.4803840000000  0.4410230000000 1.0
C      1  0.4785580000000  0.4204290000000  0.4573370000000 1.0
C      1  0.4687850000000  0.5102370000000  0.5798670000000 1.0
C      1  0.5174290000000  0.5486260000000  0.4330270000000 1.0
C      1  0.4146350000000  0.5069200000000  0.4771200000000 1.0
C      1  0.5624160000000  0.5583990000000  0.5359180000000 1.0
C      1  0.5582440000000  0.4710790000000  0.5410190000000 1.0
C      1  0.5428060000000  0.5095870000000  0.5108030000000 1.0
C      1  0.5335570000000  0.5097920000000  0.4806800000000 1.0
C      1  0.5035700000000  0.5752120000000  0.5485290000000 1.0
C      1  0.5827100000000  0.4580170000000  0.5061300000000 1.0
C      1  0.5106600000000  0.5584000000000  0.5057200000000 1.0
C      1  0.4989150000000  0.5117470000000  0.5150520000000 1.0
C      1  0.5414190000000  0.4238330000000  0.5027550000000 1.0
C      1  0.4720550000000  0.5289800000000  0.4253980000000 1.0
C      1  0.4685790000000  0.5444300000000  0.4844860000000 1.0
C      1  0.4565170000000  0.5419450000000  0.5117880000000 1.0
C      1  0.4179970000000  0.4825550000000  0.4931230000000 1.0
C      1  0.4551050000000  0.5140550000000  0.5200790000000 1.0
C      1  0.4972210000000  0.4367490000000  0.4408270000000 1.0
C      1  0.4923800000000  0.4248870000000  0.5241840000000 1.0
C      1  0.5136570000000  0.4558320000000  0.5881630000000 1.0
C      1  0.5210050000000  0.4182140000000  0.5233800000000 1.0
C      1  0.4611470000000  0.5185140000000  0.4713380000000 1.0
C      1  0.4855120000000  0.5062900000000  0.4605730000000 1.0
C      1  0.5575110000000  0.4404940000000  0.5448170000000 1.0
C      1  0.5708780000000  0.4403660000000  0.4523170000000 1.0
C      1  0.4592620000000  0.5547210000000  0.5570740000000 1.0
C      1  0.5752340000000  0.5144770000000  0.5479360000000 1.0
C      1  0.4772460000000  0.4752570000000  0.4577770000000 1.0
C      1  0.4530050000000  0.4514210000000  0.5528210000000 1.0
C      1  0.5423810000000  0.5366000000000  0.5795800000000 1.0
C      1  0.5144720000000  0.5007240000000  0.5628850000000 1.0
C      1  0.5360790000000  0.4831190000000  0.5235230000000 1.0
C      1  0.5078790000000  0.5462960000000  0.5490310000000 1.0
C      1  0.5051940000000  0.4815270000000  0.4220290000000 1.0
C      1  0.4866340000000  0.4069700000000  0.4802770000000 1.0
C      1  0.4564240000000  0.4831690000000  0.5571370000000 1.0
C      1  0.4916110000000  0.5270870000000  0.5905920000000 1.0
C      1  0.4851970000000  0.4441300000000  0.5459150000000 1.0
C      1  0.5289450000000  0.5252400000000  0.4456720000000 1.0
C      1  0.5092380000000  0.4911660000000  0.5347290000000 1.0
C      1  0.5304770000000  0.4700930000000  0.4329720000000 1.0
C      1  0.4807490000000  0.5983390000000  0.4997010000000 1.0
C      1  0.3867430000000  0.5441100000000  0.4618900000000 1.0
C      1  0.5656590000000  0.4341920000000  0.5162070000000 1.0
C      1  0.5722970000000  0.5165660000000  0.5159760000000 1.0
C      1  0.4242520000000  0.4759670000000  0.5215900000000 1.0
C      1  0.4384450000000  0.4973430000000  0.5379280000000 1.0
C      1  0.5156790000000  0.4820010000000  0.5831690000000 1.0
C      1  0.5580150000000  0.5550210000000  0.4886680000000 1.0
C      1  0.5376980000000  0.5719050000000  0.5018020000000 1.0
C      1  0.5728280000000  0.5460000000000  0.5118010000000 1.0
C      1  0.4646090000000  0.5616320000000  0.5304370000000 1.0
END
