TITL C-951345-2650-659 3.58250473334691e-07 125000 -963.184340500777 0 0 154 (C1) n - 1
REM
REM in /home/bkarasulu/work/CARBON/AIRSS/Generating-Clusters/EDIP-Nigel-Params/with-SteepDescent/Only-C1/SD-CG/HFTN-CG
REM
REM
REM
REM
REM
REM ./C.cell (11c1c37f851c82e70ff6c80c92926a4b)
REM
REM compiler GCC version 9.2.1 20190827 (Red Hat 9.2.1-1)
REM options -cpp -mtune=generic -march=x86-64 -g -O0 -fpre-include=/usr/include/finclude/math-vector-fortran.h
REM seed 394976431 1361711034 -396976413 -487340346 -564927666 -82462247 1153528133 406815706 171949585 2041095368 -1027665453 523871385 -474878974 -1809902286 1518540357 -1523611072 767042086 -996615373 -423564319 1329724789 -475260302 982852498 -1576187737 -142973392 -71973116 -936185724 1363370895 1113290085 -804465593 1417941851 183571147 -972966853 -347326226
REM
CELL 1.54180   50.00000   50.00000   50.00000   90.00000   90.00000   90.00000
LATT -1
SFAC C  
C      1  0.5544940000000  0.4334920000000  0.4430630000000 1.0
C      1  0.5098700000000  0.5094970000000  0.3918840000000 1.0
C      1  0.4832570000000  0.4858180000000  0.4510960000000 1.0
C      1  0.4076930000000  0.4535790000000  0.4462640000000 1.0
C      1  0.4832380000000  0.5159390000000  0.4478920000000 1.0
C      1  0.4655460000000  0.4057910000000  0.5513680000000 1.0
C      1  0.4810030000000  0.5428610000000  0.4067050000000 1.0
C      1  0.5410860000000  0.4892190000000  0.4824210000000 1.0
C      1  0.4886820000000  0.6135170000000  0.5024680000000 1.0
C      1  0.5146180000000  0.4716090000000  0.4449100000000 1.0
C      1  0.4680760000000  0.5509250000000  0.5219350000000 1.0
C      1  0.5275980000000  0.4157990000000  0.5402730000000 1.0
C      1  0.5195130000000  0.4482950000000  0.4654310000000 1.0
C      1  0.4877840000000  0.4923780000000  0.4005830000000 1.0
C      1  0.4097480000000  0.5680570000000  0.5325270000000 1.0
C      1  0.5176320000000  0.6100200000000  0.4615950000000 1.0
C      1  0.5516810000000  0.5120840000000  0.5970400000000 1.0
C      1  0.5372730000000  0.5364930000000  0.4927810000000 1.0
C      1  0.5421810000000  0.4638820000000  0.5287610000000 1.0
C      1  0.4570870000000  0.4865820000000  0.4989070000000 1.0
C      1  0.5891580000000  0.5448820000000  0.4724420000000 1.0
C      1  0.5288070000000  0.4469580000000  0.5092570000000 1.0
C      1  0.5289990000000  0.5427780000000  0.5202400000000 1.0
C      1  0.5560080000000  0.5829030000000  0.4926290000000 1.0
C      1  0.4428990000000  0.5354840000000  0.5133650000000 1.0
C      1  0.5257840000000  0.5027930000000  0.5501300000000 1.0
C      1  0.4140010000000  0.5439290000000  0.5170030000000 1.0
C      1  0.4302000000000  0.5024730000000  0.4452940000000 1.0
C      1  0.4897250000000  0.4365790000000  0.5029180000000 1.0
C      1  0.4739560000000  0.4522800000000  0.4239420000000 1.0
C      1  0.5573600000000  0.5284770000000  0.4242550000000 1.0
C      1  0.5863200000000  0.4858700000000  0.4289800000000 1.0
C      1  0.4178630000000  0.5502240000000  0.4666660000000 1.0
C      1  0.4057160000000  0.5201610000000  0.5326600000000 1.0
C      1  0.4650270000000  0.5924260000000  0.4609500000000 1.0
C      1  0.4822050000000  0.4897700000000  0.5912710000000 1.0
C      1  0.4114060000000  0.4730520000000  0.5678780000000 1.0
C      1  0.4451350000000  0.5898690000000  0.5534610000000 1.0
C      1  0.5882740000000  0.5448690000000  0.5003930000000 1.0
C      1  0.4996180000000  0.4728630000000  0.5214400000000 1.0
C      1  0.5137590000000  0.5242820000000  0.4812880000000 1.0
C      1  0.4695790000000  0.4401570000000  0.4491970000000 1.0
C      1  0.5437850000000  0.4577600000000  0.4847250000000 1.0
C      1  0.5526970000000  0.5091580000000  0.5657250000000 1.0
C      1  0.5557790000000  0.4218470000000  0.5336270000000 1.0
C      1  0.4424080000000  0.5247760000000  0.4304610000000 1.0
C      1  0.5621260000000  0.5172300000000  0.4932160000000 1.0
C      1  0.4921890000000  0.4642340000000  0.4064240000000 1.0
C      1  0.5667370000000  0.4674110000000  0.5655050000000 1.0
C      1  0.5716320000000  0.5707990000000  0.5388510000000 1.0
C      1  0.5902480000000  0.5188270000000  0.4604140000000 1.0
C      1  0.5102280000000  0.3956540000000  0.5263390000000 1.0
C      1  0.5341450000000  0.5992610000000  0.4433230000000 1.0
C      1  0.5086020000000  0.5589200000000  0.4437950000000 1.0
C      1  0.4138300000000  0.4486290000000  0.5153680000000 1.0
C      1  0.4855990000000  0.4823730000000  0.4806150000000 1.0
C      1  0.5847140000000  0.4911010000000  0.5660840000000 1.0
C      1  0.4410880000000  0.3940410000000  0.5138140000000 1.0
C      1  0.5922740000000  0.4866840000000  0.5046820000000 1.0
C      1  0.4570670000000  0.5811320000000  0.4864030000000 1.0
C      1  0.4480750000000  0.5159600000000  0.4905800000000 1.0
C      1  0.3992020000000  0.5434610000000  0.4899640000000 1.0
C      1  0.4682750000000  0.4440730000000  0.5808340000000 1.0
C      1  0.4707570000000  0.4819980000000  0.5275330000000 1.0
C      1  0.4620890000000  0.4435050000000  0.5072660000000 1.0
C      1  0.4653350000000  0.5329710000000  0.4712700000000 1.0
C      1  0.5080460000000  0.5314490000000  0.5919190000000 1.0
C      1  0.4971530000000  0.5979700000000  0.4776750000000 1.0
C      1  0.5740070000000  0.4461220000000  0.4853320000000 1.0
C      1  0.4212050000000  0.4763110000000  0.5094350000000 1.0
C      1  0.5863240000000  0.4580710000000  0.5112100000000 1.0
C      1  0.5429370000000  0.4752800000000  0.4065850000000 1.0
C      1  0.5369010000000  0.5378380000000  0.5952640000000 1.0
C      1  0.4848760000000  0.5653900000000  0.4257410000000 1.0
C      1  0.5092410000000  0.3967800000000  0.4965790000000 1.0
C      1  0.4387250000000  0.4070060000000  0.5385000000000 1.0
C      1  0.4703570000000  0.5188940000000  0.4203960000000 1.0
C      1  0.5044290000000  0.5690220000000  0.4865590000000 1.0
C      1  0.4622670000000  0.6000430000000  0.5087100000000 1.0
C      1  0.5392790000000  0.4882290000000  0.4510030000000 1.0
C      1  0.5292520000000  0.4312450000000  0.4261980000000 1.0
C      1  0.5764790000000  0.5687860000000  0.5100960000000 1.0
C      1  0.4011660000000  0.4976070000000  0.5129720000000 1.0
C      1  0.4359630000000  0.4247980000000  0.4772720000000 1.0
C      1  0.3964030000000  0.5119500000000  0.4871100000000 1.0
C      1  0.5414650000000  0.4656690000000  0.5846580000000 1.0
C      1  0.5326390000000  0.5728130000000  0.4340600000000 1.0
C      1  0.5722340000000  0.5470800000000  0.5571300000000 1.0
C      1  0.4607010000000  0.5361440000000  0.5794740000000 1.0
C      1  0.4416870000000  0.4544800000000  0.5840560000000 1.0
C      1  0.4525450000000  0.4514940000000  0.4740220000000 1.0
C      1  0.4899580000000  0.4623550000000  0.5850640000000 1.0
C      1  0.4652990000000  0.5836690000000  0.5338430000000 1.0
C      1  0.5336240000000  0.5143020000000  0.4386430000000 1.0
C      1  0.5569610000000  0.5571030000000  0.4371920000000 1.0
C      1  0.4450650000000  0.5465650000000  0.4517620000000 1.0
C      1  0.5374830000000  0.5042330000000  0.4013400000000 1.0
C      1  0.4744710000000  0.4338080000000  0.5544030000000 1.0
C      1  0.4875310000000  0.4187910000000  0.4568620000000 1.0
C      1  0.5327170000000  0.4898980000000  0.6006450000000 1.0
C      1  0.5484500000000  0.5887430000000  0.5439880000000 1.0
C      1  0.5757250000000  0.5067670000000  0.5189580000000 1.0
C      1  0.5198090000000  0.4742820000000  0.5444310000000 1.0
C      1  0.4530150000000  0.4036700000000  0.4903340000000 1.0
C      1  0.4296840000000  0.4952150000000  0.5710300000000 1.0
C      1  0.5819930000000  0.5166290000000  0.5472650000000 1.0
C      1  0.4840580000000  0.4106330000000  0.4862780000000 1.0
C      1  0.5652160000000  0.4079240000000  0.5114430000000 1.0
C      1  0.3967390000000  0.4462930000000  0.4698540000000 1.0
C      1  0.5029040000000  0.5364850000000  0.3903330000000 1.0
C      1  0.5381190000000  0.5625300000000  0.4763820000000 1.0
C      1  0.5069610000000  0.6098990000000  0.5261500000000 1.0
C      1  0.5521510000000  0.4125600000000  0.4657320000000 1.0
C      1  0.4850730000000  0.3906310000000  0.5380530000000 1.0
C      1  0.4957800000000  0.4548910000000  0.4814190000000 1.0
C      1  0.4280940000000  0.5684860000000  0.5534000000000 1.0
C      1  0.5596600000000  0.4712770000000  0.4326610000000 1.0
C      1  0.4596780000000  0.5718510000000  0.4408710000000 1.0
C      1  0.5985180000000  0.4744840000000  0.4535860000000 1.0
C      1  0.4295020000000  0.4367300000000  0.5392670000000 1.0
C      1  0.5473060000000  0.5524580000000  0.5724750000000 1.0
C      1  0.5111740000000  0.4970470000000  0.4937890000000 1.0
C      1  0.5125460000000  0.5212790000000  0.5307090000000 1.0
C      1  0.4193700000000  0.5197600000000  0.5592090000000 1.0
C      1  0.4754110000000  0.5569260000000  0.4908060000000 1.0
C      1  0.4899880000000  0.5463270000000  0.5717150000000 1.0
C      1  0.5193880000000  0.4590130000000  0.4176060000000 1.0
C      1  0.5036870000000  0.5743460000000  0.5641330000000 1.0
C      1  0.5162840000000  0.4564650000000  0.5702260000000 1.0
C      1  0.5148940000000  0.5680140000000  0.5149180000000 1.0
C      1  0.5324590000000  0.5924000000000  0.5186180000000 1.0
C      1  0.4238020000000  0.5127850000000  0.4724370000000 1.0
C      1  0.4301920000000  0.4574200000000  0.4315690000000 1.0
C      1  0.5860050000000  0.4496700000000  0.4586830000000 1.0
C      1  0.4372170000000  0.5426820000000  0.5627500000000 1.0
C      1  0.5729190000000  0.5664390000000  0.4611380000000 1.0
C      1  0.5734920000000  0.4162350000000  0.4863130000000 1.0
C      1  0.4565650000000  0.4503780000000  0.5362320000000 1.0
C      1  0.4705320000000  0.5057800000000  0.5463980000000 1.0
C      1  0.5078500000000  0.5027670000000  0.5906880000000 1.0
C      1  0.5838250000000  0.5154080000000  0.4323450000000 1.0
C      1  0.5102460000000  0.4155830000000  0.4402150000000 1.0
C      1  0.4098540000000  0.4319730000000  0.4903040000000 1.0
C      1  0.4907580000000  0.5933610000000  0.5458860000000 1.0
C      1  0.5331750000000  0.5767550000000  0.5662480000000 1.0
C      1  0.5948190000000  0.4937080000000  0.4750590000000 1.0
C      1  0.4455020000000  0.4772260000000  0.4458230000000 1.0
C      1  0.5105290000000  0.5290310000000  0.4517500000000 1.0
C      1  0.4861330000000  0.5311650000000  0.5414600000000 1.0
C      1  0.4202510000000  0.4457630000000  0.5665570000000 1.0
C      1  0.5670120000000  0.4509860000000  0.5365780000000 1.0
C      1  0.5297580000000  0.4156240000000  0.4862030000000 1.0
C      1  0.5175140000000  0.4285310000000  0.5630420000000 1.0
C      1  0.4602890000000  0.5048030000000  0.5745870000000 1.0
END
