TITL C-950526-5686-197 -5.95052710803895e-06 125000 -819.025118399795 0 0 133 (C1) n - 1
REM
REM in /home/bkarasulu/work/CARBON/AIRSS/Generating-Clusters/EDIP-Nigel-Params/with-SteepDescent/Only-C1/SD-CG/HFTN-CG
REM
REM
REM
REM
REM
REM ./C.cell (11c1c37f851c82e70ff6c80c92926a4b)
REM
REM compiler GCC version 9.2.1 20190827 (Red Hat 9.2.1-1)
REM options -cpp -mtune=generic -march=x86-64 -g -O0 -fpre-include=/usr/include/finclude/math-vector-fortran.h
REM seed 965881046 -249275318 1882165837 -1112881311 -709912716 381762908 1958465292 -893409026 -780370976 1815612377 1767634613 -930722218 256063982 387896126 -1364390703 1109641979 833481108 1169421970 183855919 -1413099191 -2102214688 -1058645353 -1368211151 -134327982 594818979 231583544 -814875121 997834901 746250395 698502789 1705464164 -1346856263 447035052
REM
CELL 1.54180   50.00000   50.00000   50.00000   90.00000   90.00000   90.00000
LATT -1
SFAC C  
C      1  0.4478380000000  0.5835840000000  0.4933710000000 1.0
C      1  0.4386400000000  0.4503680000000  0.5695390000000 1.0
C      1  0.4619610000000  0.5384990000000  0.5384230000000 1.0
C      1  0.5064190000000  0.5242390000000  0.5211850000000 1.0
C      1  0.4907650000000  0.5536630000000  0.5680130000000 1.0
C      1  0.5856480000000  0.4909720000000  0.5417160000000 1.0
C      1  0.4853360000000  0.5567470000000  0.5243030000000 1.0
C      1  0.4353540000000  0.4366190000000  0.4665340000000 1.0
C      1  0.5296080000000  0.4885960000000  0.4363830000000 1.0
C      1  0.4849890000000  0.4286870000000  0.4606150000000 1.0
C      1  0.5775820000000  0.5118850000000  0.5225350000000 1.0
C      1  0.4933300000000  0.4527140000000  0.4454890000000 1.0
C      1  0.5385880000000  0.5336410000000  0.5036460000000 1.0
C      1  0.4072620000000  0.5222520000000  0.4971210000000 1.0
C      1  0.5275010000000  0.4938900000000  0.4061880000000 1.0
C      1  0.5496510000000  0.4202910000000  0.4864310000000 1.0
C      1  0.4144120000000  0.5527360000000  0.5181520000000 1.0
C      1  0.4463070000000  0.5114510000000  0.4724630000000 1.0
C      1  0.5301980000000  0.5825650000000  0.4381560000000 1.0
C      1  0.5540850000000  0.4992660000000  0.4525850000000 1.0
C      1  0.4416510000000  0.4330390000000  0.4953890000000 1.0
C      1  0.5563570000000  0.5534740000000  0.5182490000000 1.0
C      1  0.5238640000000  0.5090090000000  0.5584650000000 1.0
C      1  0.4711220000000  0.5345390000000  0.4113310000000 1.0
C      1  0.4838420000000  0.5593180000000  0.4940170000000 1.0
C      1  0.5339140000000  0.5417100000000  0.4718540000000 1.0
C      1  0.5124270000000  0.5393140000000  0.4276300000000 1.0
C      1  0.4899540000000  0.4647810000000  0.3956040000000 1.0
C      1  0.4931580000000  0.5834820000000  0.5353790000000 1.0
C      1  0.4628790000000  0.4809360000000  0.5110980000000 1.0
C      1  0.4367910000000  0.5447760000000  0.5573600000000 1.0
C      1  0.5072900000000  0.4006620000000  0.4943050000000 1.0
C      1  0.4704390000000  0.4967390000000  0.5457190000000 1.0
C      1  0.5130410000000  0.5215790000000  0.4700380000000 1.0
C      1  0.4558830000000  0.4421510000000  0.4235070000000 1.0
C      1  0.4399120000000  0.5235410000000  0.5781300000000 1.0
C      1  0.5243550000000  0.5000800000000  0.5291500000000 1.0
C      1  0.5170880000000  0.5450210000000  0.5791040000000 1.0
C      1  0.4398930000000  0.4767030000000  0.5819870000000 1.0
C      1  0.4518270000000  0.4829820000000  0.4809380000000 1.0
C      1  0.5501040000000  0.4648850000000  0.5643580000000 1.0
C      1  0.5140480000000  0.5107400000000  0.5967650000000 1.0
C      1  0.5263640000000  0.4655770000000  0.4810610000000 1.0
C      1  0.4656640000000  0.4387770000000  0.5729590000000 1.0
C      1  0.4955060000000  0.5946060000000  0.4789170000000 1.0
C      1  0.5105350000000  0.4498170000000  0.5861490000000 1.0
C      1  0.4296750000000  0.4517880000000  0.5408530000000 1.0
C      1  0.5672950000000  0.4876650000000  0.5641620000000 1.0
C      1  0.5335490000000  0.4066680000000  0.5057960000000 1.0
C      1  0.5843690000000  0.4639310000000  0.4520730000000 1.0
C      1  0.4690440000000  0.5743180000000  0.5642170000000 1.0
C      1  0.5382350000000  0.5676770000000  0.5363160000000 1.0
C      1  0.4566840000000  0.4254480000000  0.4490470000000 1.0
C      1  0.4476520000000  0.5797010000000  0.5446910000000 1.0
C      1  0.4394810000000  0.4666470000000  0.4275780000000 1.0
C      1  0.4914190000000  0.4717970000000  0.5526160000000 1.0
C      1  0.5769290000000  0.4667520000000  0.4811820000000 1.0
C      1  0.4209970000000  0.4715730000000  0.5020840000000 1.0
C      1  0.5773620000000  0.5516480000000  0.4715580000000 1.0
C      1  0.4949870000000  0.4879190000000  0.6039070000000 1.0
C      1  0.5682230000000  0.5679240000000  0.4952210000000 1.0
C      1  0.5011470000000  0.4808680000000  0.4832170000000 1.0
C      1  0.5806840000000  0.4909820000000  0.4415640000000 1.0
C      1  0.5631740000000  0.5381400000000  0.5635000000000 1.0
C      1  0.5900340000000  0.5240740000000  0.4737900000000 1.0
C      1  0.5416190000000  0.5362720000000  0.4214790000000 1.0
C      1  0.5989290000000  0.4798030000000  0.4975780000000 1.0
C      1  0.5521970000000  0.4448950000000  0.5436300000000 1.0
C      1  0.4611490000000  0.5439590000000  0.4393790000000 1.0
C      1  0.4950460000000  0.4257150000000  0.5344940000000 1.0
C      1  0.4591050000000  0.4113850000000  0.5030830000000 1.0
C      1  0.4083720000000  0.4782910000000  0.4749450000000 1.0
C      1  0.5095310000000  0.4726340000000  0.5281060000000 1.0
C      1  0.5988340000000  0.5103750000000  0.4508110000000 1.0
C      1  0.4899380000000  0.4715510000000  0.5066240000000 1.0
C      1  0.5235770000000  0.4733400000000  0.5749800000000 1.0
C      1  0.5320880000000  0.4237470000000  0.5462950000000 1.0
C      1  0.4177340000000  0.5019550000000  0.5417340000000 1.0
C      1  0.5429430000000  0.5091660000000  0.6007240000000 1.0
C      1  0.5531950000000  0.5302230000000  0.4500940000000 1.0
C      1  0.4959970000000  0.5448520000000  0.4043020000000 1.0
C      1  0.4771650000000  0.4457410000000  0.5471470000000 1.0
C      1  0.5200290000000  0.5839620000000  0.4938860000000 1.0
C      1  0.4381490000000  0.5699710000000  0.5181810000000 1.0
C      1  0.5430180000000  0.5169510000000  0.4011470000000 1.0
C      1  0.5936840000000  0.4679520000000  0.5250790000000 1.0
C      1  0.5751810000000  0.5385240000000  0.5357300000000 1.0
C      1  0.4021420000000  0.5090900000000  0.4708290000000 1.0
C      1  0.4803940000000  0.4769330000000  0.4622640000000 1.0
C      1  0.4550080000000  0.5235720000000  0.5143880000000 1.0
C      1  0.5221920000000  0.4426200000000  0.5122890000000 1.0
C      1  0.4976600000000  0.4916190000000  0.3955060000000 1.0
C      1  0.5513680000000  0.4851660000000  0.4821230000000 1.0
C      1  0.4820980000000  0.5143730000000  0.5047000000000 1.0
C      1  0.5960210000000  0.5099160000000  0.4989870000000 1.0
C      1  0.4416530000000  0.4982990000000  0.5614420000000 1.0
C      1  0.5514100000000  0.5115040000000  0.5725260000000 1.0
C      1  0.4841340000000  0.5771850000000  0.4556380000000 1.0
C      1  0.5092860000000  0.5110260000000  0.4432930000000 1.0
C      1  0.4478200000000  0.4891760000000  0.4117880000000 1.0
C      1  0.5402580000000  0.5568790000000  0.5641570000000 1.0
C      1  0.5192040000000  0.5855490000000  0.5233740000000 1.0
C      1  0.5230850000000  0.4597770000000  0.4493420000000 1.0
C      1  0.5684920000000  0.4452630000000  0.4390380000000 1.0
C      1  0.4535050000000  0.5719560000000  0.4653730000000 1.0
C      1  0.4869660000000  0.4159960000000  0.5083220000000 1.0
C      1  0.4123040000000  0.5364200000000  0.5422780000000 1.0
C      1  0.5693950000000  0.4406140000000  0.4948500000000 1.0
C      1  0.5415760000000  0.4381910000000  0.4400990000000 1.0
C      1  0.4652640000000  0.5204600000000  0.5919200000000 1.0
C      1  0.4247350000000  0.5195400000000  0.4541070000000 1.0
C      1  0.4311400000000  0.4294510000000  0.5225460000000 1.0
C      1  0.4731450000000  0.5965790000000  0.4980160000000 1.0
C      1  0.5471670000000  0.5827270000000  0.4820970000000 1.0
C      1  0.4831200000000  0.5227450000000  0.5676300000000 1.0
C      1  0.4825660000000  0.4537290000000  0.5916940000000 1.0
C      1  0.4688120000000  0.5226650000000  0.4592500000000 1.0
C      1  0.5516920000000  0.5778170000000  0.4547470000000 1.0
C      1  0.4842580000000  0.4476380000000  0.4167330000000 1.0
C      1  0.4116030000000  0.4728790000000  0.5315530000000 1.0
C      1  0.4874650000000  0.5309380000000  0.4806870000000 1.0
C      1  0.4821620000000  0.5007460000000  0.4455430000000 1.0
C      1  0.5358420000000  0.4177920000000  0.4604680000000 1.0
C      1  0.5070240000000  0.4086350000000  0.4653610000000 1.0
C      1  0.4314620000000  0.5472330000000  0.4454840000000 1.0
C      1  0.4251820000000  0.4621420000000  0.4544440000000 1.0
C      1  0.4286950000000  0.5082140000000  0.5127010000000 1.0
C      1  0.5182780000000  0.4268850000000  0.5713830000000 1.0
C      1  0.4701550000000  0.5056940000000  0.4036500000000 1.0
C      1  0.4668460000000  0.4934280000000  0.6018230000000 1.0
C      1  0.5740660000000  0.4453790000000  0.5235980000000 1.0
C      1  0.5113870000000  0.5628180000000  0.4477460000000 1.0
C      1  0.5501610000000  0.5050520000000  0.5090990000000 1.0
END
