TITL C-951333-8791-475 -1.74611321560059e-06 125000 -618.667223352402 0 0 98 (C1) n - 1
REM
REM in /home/bkarasulu/work/CARBON/AIRSS/Generating-Clusters/EDIP-Nigel-Params/with-SteepDescent/Only-C1/SD-CG/HFTN-CG
REM
REM
REM
REM
REM
REM ./C.cell (11c1c37f851c82e70ff6c80c92926a4b)
REM
REM compiler GCC version 9.2.1 20190827 (Red Hat 9.2.1-1)
REM options -cpp -mtune=generic -march=x86-64 -g -O0 -fpre-include=/usr/include/finclude/math-vector-fortran.h
REM seed -325442942 -1666009039 1544721810 -1107982075 -1085507106 1946187239 -2093728041 -680897891 1742933221 2010487770 -408132501 1454472292 677759783 -1270748261 1495521680 -741789516 571154283 -2101936632 -1316023782 887512218 894349282 1904449629 -190292719 2104746447 -1964276676 1339217130 -74961677 1110900303 -396218735 -350399684 -950234385 -2092508073 751441449
REM
CELL 1.54180   50.00000   50.00000   50.00000   90.00000   90.00000   90.00000
LATT -1
SFAC C  
C      1  0.4004740000000  0.4822190000000  0.5278580000000 1.0
C      1  0.4881660000000  0.4463700000000  0.5398060000000 1.0
C      1  0.4620460000000  0.4375740000000  0.5288780000000 1.0
C      1  0.5077210000000  0.5202400000000  0.4667570000000 1.0
C      1  0.4602850000000  0.5183550000000  0.5222140000000 1.0
C      1  0.5330250000000  0.6003300000000  0.5149170000000 1.0
C      1  0.5060720000000  0.4756950000000  0.4314740000000 1.0
C      1  0.4710720000000  0.5423490000000  0.4413840000000 1.0
C      1  0.4893980000000  0.4572320000000  0.5676940000000 1.0
C      1  0.4222530000000  0.4973070000000  0.4777270000000 1.0
C      1  0.4869610000000  0.5178240000000  0.4870860000000 1.0
C      1  0.5497490000000  0.4645580000000  0.4491400000000 1.0
C      1  0.4646720000000  0.4481520000000  0.4546230000000 1.0
C      1  0.4620770000000  0.4888300000000  0.5100620000000 1.0
C      1  0.4175670000000  0.4576350000000  0.4587380000000 1.0
C      1  0.5401090000000  0.4387360000000  0.4621080000000 1.0
C      1  0.5108660000000  0.4309500000000  0.4629600000000 1.0
C      1  0.5429340000000  0.5034240000000  0.4183660000000 1.0
C      1  0.4495610000000  0.4816470000000  0.5535250000000 1.0
C      1  0.5106550000000  0.5654970000000  0.4527670000000 1.0
C      1  0.5144390000000  0.5907620000000  0.4963160000000 1.0
C      1  0.5297820000000  0.4843220000000  0.5608860000000 1.0
C      1  0.4812770000000  0.5652390000000  0.4567750000000 1.0
C      1  0.4333360000000  0.5063900000000  0.5538540000000 1.0
C      1  0.5184880000000  0.5049210000000  0.5796660000000 1.0
C      1  0.5062670000000  0.4606470000000  0.4971450000000 1.0
C      1  0.5551300000000  0.5473140000000  0.4761180000000 1.0
C      1  0.5790220000000  0.4580540000000  0.4876640000000 1.0
C      1  0.4420100000000  0.4589330000000  0.5354350000000 1.0
C      1  0.5084370000000  0.4235080000000  0.5393740000000 1.0
C      1  0.4905380000000  0.4997280000000  0.4221600000000 1.0
C      1  0.5480460000000  0.4232440000000  0.5119450000000 1.0
C      1  0.5661180000000  0.4637320000000  0.5368470000000 1.0
C      1  0.4871160000000  0.5776820000000  0.5065930000000 1.0
C      1  0.5010760000000  0.4309120000000  0.4930310000000 1.0
C      1  0.5006520000000  0.5118510000000  0.5384250000000 1.0
C      1  0.4420430000000  0.4615080000000  0.4425610000000 1.0
C      1  0.5403880000000  0.5523140000000  0.5571730000000 1.0
C      1  0.4101760000000  0.4398870000000  0.5051930000000 1.0
C      1  0.4890320000000  0.5575180000000  0.5612580000000 1.0
C      1  0.5503000000000  0.5803530000000  0.5207500000000 1.0
C      1  0.5173630000000  0.4904990000000  0.5316460000000 1.0
C      1  0.5395840000000  0.5546840000000  0.5283950000000 1.0
C      1  0.4027730000000  0.4808500000000  0.4651150000000 1.0
C      1  0.5187750000000  0.4158790000000  0.5127330000000 1.0
C      1  0.5409890000000  0.4926080000000  0.4859650000000 1.0
C      1  0.4139510000000  0.4561700000000  0.5277160000000 1.0
C      1  0.4537430000000  0.4363410000000  0.4786970000000 1.0
C      1  0.4954200000000  0.5254420000000  0.4377570000000 1.0
C      1  0.5353500000000  0.4778010000000  0.4271050000000 1.0
C      1  0.5685220000000  0.5028810000000  0.4724160000000 1.0
C      1  0.4286120000000  0.5476900000000  0.4659500000000 1.0
C      1  0.4750830000000  0.4830910000000  0.5683870000000 1.0
C      1  0.5539120000000  0.4368740000000  0.5383190000000 1.0
C      1  0.5751270000000  0.4751720000000  0.4622380000000 1.0
C      1  0.5139860000000  0.5496340000000  0.5107390000000 1.0
C      1  0.5267380000000  0.5812180000000  0.4709560000000 1.0
C      1  0.4494860000000  0.5327590000000  0.5574250000000 1.0
C      1  0.4649280000000  0.4950400000000  0.4129790000000 1.0
C      1  0.5715070000000  0.5102690000000  0.5499150000000 1.0
C      1  0.5872510000000  0.5148020000000  0.4932320000000 1.0
C      1  0.4898570000000  0.5292120000000  0.5164930000000 1.0
C      1  0.4364610000000  0.5404460000000  0.5147200000000 1.0
C      1  0.4308350000000  0.4896190000000  0.5054400000000 1.0
C      1  0.5836620000000  0.4720800000000  0.5148370000000 1.0
C      1  0.4930340000000  0.4479280000000  0.4448680000000 1.0
C      1  0.4707390000000  0.4284300000000  0.5005260000000 1.0
C      1  0.4947470000000  0.4748320000000  0.4732730000000 1.0
C      1  0.4172680000000  0.5084850000000  0.5284390000000 1.0
C      1  0.5262560000000  0.5391290000000  0.4842610000000 1.0
C      1  0.4937240000000  0.4713000000000  0.5216600000000 1.0
C      1  0.4697600000000  0.5674650000000  0.4842030000000 1.0
C      1  0.4466500000000  0.5300560000000  0.4528930000000 1.0
C      1  0.5411670000000  0.5263790000000  0.4342840000000 1.0
C      1  0.5611990000000  0.5274810000000  0.4546680000000 1.0
C      1  0.5188010000000  0.4926700000000  0.4645310000000 1.0
C      1  0.4443430000000  0.4810660000000  0.4228510000000 1.0
C      1  0.5352290000000  0.4665030000000  0.4986420000000 1.0
C      1  0.4427980000000  0.5556410000000  0.4888910000000 1.0
C      1  0.5735700000000  0.5399950000000  0.4988910000000 1.0
C      1  0.4473950000000  0.5571120000000  0.5379060000000 1.0
C      1  0.5194540000000  0.4579420000000  0.5710920000000 1.0
C      1  0.5340040000000  0.5100710000000  0.5095020000000 1.0
C      1  0.4758030000000  0.5667770000000  0.5354910000000 1.0
C      1  0.4252010000000  0.4407200000000  0.4814040000000 1.0
C      1  0.5303020000000  0.4336240000000  0.5564850000000 1.0
C      1  0.4716620000000  0.4940710000000  0.4816840000000 1.0
C      1  0.5519780000000  0.4439680000000  0.4899390000000 1.0
C      1  0.5596250000000  0.4841040000000  0.5567290000000 1.0
C      1  0.5234620000000  0.5497900000000  0.4305440000000 1.0
C      1  0.4470990000000  0.5011240000000  0.4619370000000 1.0
C      1  0.5160650000000  0.5584060000000  0.5680340000000 1.0
C      1  0.5556630000000  0.5299530000000  0.5205240000000 1.0
C      1  0.4755400000000  0.5337110000000  0.5723360000000 1.0
C      1  0.5898300000000  0.5001560000000  0.5174310000000 1.0
C      1  0.4919620000000  0.5087950000000  0.5666300000000 1.0
C      1  0.5577540000000  0.5314470000000  0.5640000000000 1.0
C      1  0.5546630000000  0.5760630000000  0.4690280000000 1.0
END
