TITL C-950530-3293-15 -1.79157636916062e-05 125000 -42.0710432607543 0 0 9 (C1) n - 1
REM
REM in /home/bkarasulu/work/CARBON/AIRSS/Generating-Clusters/EDIP-Nigel-Params/with-SteepDescent/Only-C1/SD-CG/HFTN-CG
REM
REM
REM
REM
REM
REM ./C.cell (11c1c37f851c82e70ff6c80c92926a4b)
REM
REM compiler GCC version 9.2.1 20190827 (Red Hat 9.2.1-1)
REM options -cpp -mtune=generic -march=x86-64 -g -O0 -fpre-include=/usr/include/finclude/math-vector-fortran.h
REM seed -1519455595 -1157342894 325565048 1487217966 1128634952 -82228971 -2079601773 681807818 1496170754 -1460957500 1444134478 -1194034889 1585789114 -1706293655 2006818327 2063847212 1196722163 301395407 -672324104 -1385810878 1663393714 -1630691896 -467310481 -660125963 -1134746521 -872873915 922075910 720154576 -44601638 -434900829 1114533961 1252533972 1772446383
REM
CELL 1.54180   50.00000   50.00000   50.00000   90.00000   90.00000   90.00000
LATT -1
SFAC C  
C      1  0.4951240000000  0.5678050000000  0.5039650000000 1.0
C      1  0.4911250000000  0.4802400000000  0.4653750000000 1.0
C      1  0.5092440000000  0.5465430000000  0.5057500000000 1.0
C      1  0.4767740000000  0.4605780000000  0.5049610000000 1.0
C      1  0.4605950000000  0.4463460000000  0.5187940000000 1.0
C      1  0.5331620000000  0.5066430000000  0.4928560000000 1.0
C      1  0.4931220000000  0.4780360000000  0.4916330000000 1.0
C      1  0.5250180000000  0.5251610000000  0.5117650000000 1.0
C      1  0.5158360000000  0.4886480000000  0.5048990000000 1.0
END
