TITL C-951343-2256-345 2.3866577710664e-08 125000 -680.226804753138 0 0 107 (C1) n - 1
REM
REM in /home/bkarasulu/work/CARBON/AIRSS/Generating-Clusters/EDIP-Nigel-Params/with-SteepDescent/Only-C1/SD-CG/HFTN-CG
REM
REM
REM
REM
REM
REM ./C.cell (11c1c37f851c82e70ff6c80c92926a4b)
REM
REM compiler GCC version 9.2.1 20190827 (Red Hat 9.2.1-1)
REM options -cpp -mtune=generic -march=x86-64 -g -O0 -fpre-include=/usr/include/finclude/math-vector-fortran.h
REM seed -359921915 -1025488440 -1592208805 278634804 1978690406 -235235495 -872740824 -2054171929 1706866253 272230723 1751509357 -994866794 -1931806813 -654050527 1003760886 1452524833 1597663864 696798931 134142905 -371612750 -865171638 351157712 1576651485 1138205424 -1304642521 -5427991 -1277558764 1771083792 -1948278368 1332744561 -518532927 230372484 -275951822
REM
CELL 1.54180   50.00000   50.00000   50.00000   90.00000   90.00000   90.00000
LATT -1
SFAC C  
C      1  0.5094800000000  0.4598570000000  0.5321320000000 1.0
C      1  0.4700430000000  0.5143670000000  0.4551110000000 1.0
C      1  0.5255530000000  0.4679000000000  0.5845080000000 1.0
C      1  0.4443540000000  0.4511600000000  0.4457520000000 1.0
C      1  0.4425740000000  0.5201540000000  0.5518170000000 1.0
C      1  0.5316440000000  0.4934230000000  0.5691730000000 1.0
C      1  0.5904410000000  0.5208550000000  0.5266340000000 1.0
C      1  0.5738680000000  0.5274710000000  0.4809740000000 1.0
C      1  0.4249110000000  0.5438260000000  0.5108940000000 1.0
C      1  0.5074990000000  0.4831020000000  0.4219930000000 1.0
C      1  0.4922560000000  0.5093520000000  0.5466970000000 1.0
C      1  0.4629440000000  0.4615280000000  0.4273670000000 1.0
C      1  0.4329570000000  0.4408540000000  0.5069020000000 1.0
C      1  0.5232840000000  0.5751830000000  0.5141550000000 1.0
C      1  0.5317320000000  0.5424490000000  0.5809460000000 1.0
C      1  0.4608240000000  0.5763850000000  0.5051570000000 1.0
C      1  0.4812910000000  0.4543340000000  0.5259870000000 1.0
C      1  0.5282440000000  0.4342560000000  0.4500480000000 1.0
C      1  0.5019590000000  0.4466380000000  0.4559520000000 1.0
C      1  0.5558980000000  0.4514580000000  0.5069600000000 1.0
C      1  0.4329960000000  0.5285620000000  0.4264880000000 1.0
C      1  0.4639100000000  0.4990800000000  0.5399020000000 1.0
C      1  0.5817480000000  0.5317950000000  0.4524780000000 1.0
C      1  0.4657520000000  0.5689640000000  0.4582610000000 1.0
C      1  0.5551800000000  0.5513510000000  0.5398620000000 1.0
C      1  0.4955700000000  0.5109250000000  0.4192490000000 1.0
C      1  0.4906430000000  0.4613580000000  0.4317830000000 1.0
C      1  0.4671100000000  0.4999030000000  0.5070600000000 1.0
C      1  0.4911960000000  0.4172120000000  0.4921670000000 1.0
C      1  0.4419690000000  0.5451670000000  0.5353360000000 1.0
C      1  0.5195340000000  0.4216190000000  0.4987730000000 1.0
C      1  0.5463580000000  0.4553710000000  0.4403110000000 1.0
C      1  0.5140830000000  0.5343220000000  0.4211220000000 1.0
C      1  0.5671050000000  0.5229360000000  0.5414970000000 1.0
C      1  0.4805860000000  0.5762200000000  0.4832330000000 1.0
C      1  0.4360430000000  0.4417890000000  0.5372970000000 1.0
C      1  0.4168840000000  0.4880110000000  0.5349130000000 1.0
C      1  0.5630570000000  0.4378560000000  0.4813650000000 1.0
C      1  0.4225510000000  0.5022490000000  0.4236490000000 1.0
C      1  0.5328940000000  0.4826980000000  0.4380540000000 1.0
C      1  0.5214480000000  0.4924500000000  0.4655140000000 1.0
C      1  0.5258330000000  0.5807180000000  0.4646670000000 1.0
C      1  0.5595500000000  0.5497470000000  0.4413790000000 1.0
C      1  0.5353000000000  0.5602020000000  0.5596300000000 1.0
C      1  0.4841920000000  0.4234940000000  0.4638960000000 1.0
C      1  0.4124790000000  0.5183530000000  0.4676960000000 1.0
C      1  0.4867630000000  0.5644560000000  0.5476190000000 1.0
C      1  0.5724940000000  0.4749440000000  0.5450820000000 1.0
C      1  0.4380650000000  0.5614860000000  0.4658880000000 1.0
C      1  0.5138390000000  0.5715840000000  0.5421800000000 1.0
C      1  0.4287680000000  0.4909090000000  0.5079380000000 1.0
C      1  0.5686700000000  0.4567160000000  0.4593130000000 1.0
C      1  0.5286400000000  0.5298520000000  0.5215330000000 1.0
C      1  0.5775300000000  0.5034530000000  0.4440020000000 1.0
C      1  0.5732110000000  0.4743650000000  0.5149040000000 1.0
C      1  0.5397930000000  0.5296870000000  0.4330370000000 1.0
C      1  0.4634610000000  0.5288820000000  0.4295290000000 1.0
C      1  0.5552330000000  0.5521660000000  0.4881580000000 1.0
C      1  0.5075870000000  0.4694820000000  0.4799770000000 1.0
C      1  0.4556350000000  0.4278450000000  0.4588690000000 1.0
C      1  0.5600710000000  0.4988460000000  0.5577860000000 1.0
C      1  0.4719980000000  0.5092700000000  0.5901590000000 1.0
C      1  0.4710860000000  0.4796610000000  0.5841500000000 1.0
C      1  0.4300250000000  0.5194080000000  0.4923530000000 1.0
C      1  0.5016210000000  0.5590290000000  0.4254660000000 1.0
C      1  0.4746200000000  0.5569020000000  0.4329420000000 1.0
C      1  0.4202560000000  0.5413520000000  0.4504860000000 1.0
C      1  0.4626060000000  0.4548840000000  0.4855160000000 1.0
C      1  0.4209750000000  0.4636130000000  0.5490700000000 1.0
C      1  0.4709380000000  0.4348420000000  0.5064380000000 1.0
C      1  0.5311780000000  0.5325790000000  0.4920770000000 1.0
C      1  0.5888240000000  0.4878640000000  0.4934780000000 1.0
C      1  0.4986620000000  0.5326460000000  0.5288110000000 1.0
C      1  0.5263510000000  0.4644610000000  0.5061900000000 1.0
C      1  0.5369650000000  0.4988090000000  0.5203740000000 1.0
C      1  0.4815130000000  0.5303500000000  0.5014820000000 1.0
C      1  0.4888160000000  0.4371670000000  0.5674470000000 1.0
C      1  0.4567520000000  0.4747130000000  0.5582870000000 1.0
C      1  0.4493320000000  0.5230030000000  0.5800340000000 1.0
C      1  0.4154360000000  0.5103150000000  0.5509280000000 1.0
C      1  0.5006310000000  0.5152450000000  0.4579910000000 1.0
C      1  0.5095800000000  0.5809860000000  0.4877740000000 1.0
C      1  0.4173140000000  0.4947430000000  0.4504590000000 1.0
C      1  0.5510330000000  0.5684110000000  0.4636820000000 1.0
C      1  0.5765080000000  0.4839330000000  0.4667160000000 1.0
C      1  0.5946860000000  0.5160540000000  0.4996140000000 1.0
C      1  0.5515710000000  0.5670140000000  0.5139100000000 1.0
C      1  0.5156850000000  0.4893140000000  0.5432070000000 1.0
C      1  0.5518640000000  0.5038630000000  0.4291070000000 1.0
C      1  0.5564590000000  0.4311820000000  0.5288310000000 1.0
C      1  0.4284820000000  0.4704170000000  0.4626010000000 1.0
C      1  0.5157530000000  0.4355500000000  0.5508310000000 1.0
C      1  0.4652850000000  0.5609300000000  0.5291220000000 1.0
C      1  0.4338970000000  0.5675560000000  0.4950200000000 1.0
C      1  0.5367550000000  0.4446650000000  0.5700030000000 1.0
C      1  0.5429080000000  0.5047060000000  0.4855420000000 1.0
C      1  0.4227330000000  0.4662620000000  0.4919830000000 1.0
C      1  0.4951250000000  0.4604530000000  0.5858860000000 1.0
C      1  0.5037620000000  0.5333720000000  0.4808580000000 1.0
C      1  0.5387610000000  0.4220180000000  0.4754060000000 1.0
C      1  0.4799770000000  0.4784990000000  0.4890030000000 1.0
C      1  0.4576440000000  0.5300840000000  0.4781860000000 1.0
C      1  0.5203080000000  0.5173820000000  0.5842850000000 1.0
C      1  0.5293680000000  0.4187480000000  0.5273290000000 1.0
C      1  0.5612380000000  0.4478050000000  0.5534610000000 1.0
C      1  0.4657780000000  0.4474650000000  0.5488190000000 1.0
C      1  0.4934520000000  0.5208960000000  0.5741310000000 1.0
END
