TITL C-951333-8791-378 -3.00199875051438e-06 125000 -739.251063153658 0 0 118 (C1) n - 1
REM
REM in /home/bkarasulu/work/CARBON/AIRSS/Generating-Clusters/EDIP-Nigel-Params/with-SteepDescent/Only-C1/SD-CG/HFTN-CG
REM
REM
REM
REM
REM
REM ./C.cell (11c1c37f851c82e70ff6c80c92926a4b)
REM
REM compiler GCC version 9.2.1 20190827 (Red Hat 9.2.1-1)
REM options -cpp -mtune=generic -march=x86-64 -g -O0 -fpre-include=/usr/include/finclude/math-vector-fortran.h
REM seed -87634880 1384541379 2089001395 1109303953 -673315473 1339897764 832628253 1996986321 26539023 1931962654 -310965182 1331788083 -1147613664 438240847 -187202945 -1021905222 -1401437772 -1344835387 2033261645 943810875 -619760896 80041468 -431264118 1493436646 -1039427661 -476884033 403393187 1992268225 -65597918 -1223592109 -1271796375 1349774677 -1145987224
REM
CELL 1.54180   50.00000   50.00000   50.00000   90.00000   90.00000   90.00000
LATT -1
SFAC C  
C      1  0.5408780000000  0.5656320000000  0.5683790000000 1.0
C      1  0.4743150000000  0.5849350000000  0.4835610000000 1.0
C      1  0.4831740000000  0.4198570000000  0.4808290000000 1.0
C      1  0.4375380000000  0.4779340000000  0.4613780000000 1.0
C      1  0.5163810000000  0.4822400000000  0.4550650000000 1.0
C      1  0.4776240000000  0.4824380000000  0.4935000000000 1.0
C      1  0.5764630000000  0.5259840000000  0.5369030000000 1.0
C      1  0.4233290000000  0.5214460000000  0.5154650000000 1.0
C      1  0.5383870000000  0.5110760000000  0.5685230000000 1.0
C      1  0.4622470000000  0.4601200000000  0.5960320000000 1.0
C      1  0.4708940000000  0.5250890000000  0.5357930000000 1.0
C      1  0.5392060000000  0.4147150000000  0.4716020000000 1.0
C      1  0.5028520000000  0.4121730000000  0.5292480000000 1.0
C      1  0.5268040000000  0.5175350000000  0.5396930000000 1.0
C      1  0.5664320000000  0.4795520000000  0.4588490000000 1.0
C      1  0.5250260000000  0.5433590000000  0.4951410000000 1.0
C      1  0.5400410000000  0.4142870000000  0.4989010000000 1.0
C      1  0.5185840000000  0.5881560000000  0.4685420000000 1.0
C      1  0.4549800000000  0.5590180000000  0.4400330000000 1.0
C      1  0.4914160000000  0.4847540000000  0.5493700000000 1.0
C      1  0.4404370000000  0.4789270000000  0.4308920000000 1.0
C      1  0.4975160000000  0.4413940000000  0.4378690000000 1.0
C      1  0.4289730000000  0.5493680000000  0.5071380000000 1.0
C      1  0.4705500000000  0.5563940000000  0.5306500000000 1.0
C      1  0.4406240000000  0.5610810000000  0.5324150000000 1.0
C      1  0.5125000000000  0.4072730000000  0.5027920000000 1.0
C      1  0.5385070000000  0.5273210000000  0.4490420000000 1.0
C      1  0.4324050000000  0.5425150000000  0.5559350000000 1.0
C      1  0.5450790000000  0.5488200000000  0.4724960000000 1.0
C      1  0.5065830000000  0.5854100000000  0.5353920000000 1.0
C      1  0.4857030000000  0.5712630000000  0.5507170000000 1.0
C      1  0.4298170000000  0.4501660000000  0.5265460000000 1.0
C      1  0.4840950000000  0.5629270000000  0.4408310000000 1.0
C      1  0.4966670000000  0.4611250000000  0.4604160000000 1.0
C      1  0.4980800000000  0.5077710000000  0.5335080000000 1.0
C      1  0.4912330000000  0.5847320000000  0.4590270000000 1.0
C      1  0.4612720000000  0.4363860000000  0.4530640000000 1.0
C      1  0.5758740000000  0.5073710000000  0.4614490000000 1.0
C      1  0.5750900000000  0.4357350000000  0.4556360000000 1.0
C      1  0.4716110000000  0.4674980000000  0.5352760000000 1.0
C      1  0.5387870000000  0.4740480000000  0.4727340000000 1.0
C      1  0.5613120000000  0.5054220000000  0.4177750000000 1.0
C      1  0.4818820000000  0.5096030000000  0.4489600000000 1.0
C      1  0.4506630000000  0.4503710000000  0.5501860000000 1.0
C      1  0.5306490000000  0.5123910000000  0.4183190000000 1.0
C      1  0.5454340000000  0.4987940000000  0.5222720000000 1.0
C      1  0.4960770000000  0.5120600000000  0.5927140000000 1.0
C      1  0.4412050000000  0.5231910000000  0.4662430000000 1.0
C      1  0.4125180000000  0.5234370000000  0.5434900000000 1.0
C      1  0.4438470000000  0.4423860000000  0.5012630000000 1.0
C      1  0.5288900000000  0.4843380000000  0.5775090000000 1.0
C      1  0.4740430000000  0.4112920000000  0.5314300000000 1.0
C      1  0.5641320000000  0.4766600000000  0.4274540000000 1.0
C      1  0.5202400000000  0.4839290000000  0.4242560000000 1.0
C      1  0.4554590000000  0.4832110000000  0.5143080000000 1.0
C      1  0.5828270000000  0.4575640000000  0.4723030000000 1.0
C      1  0.5039660000000  0.5231110000000  0.4876300000000 1.0
C      1  0.4801030000000  0.5077810000000  0.4194980000000 1.0
C      1  0.4423620000000  0.4500940000000  0.4722940000000 1.0
C      1  0.5572670000000  0.4565650000000  0.5581430000000 1.0
C      1  0.4180410000000  0.4781740000000  0.5248580000000 1.0
C      1  0.5832790000000  0.4781940000000  0.5186020000000 1.0
C      1  0.4498570000000  0.5711420000000  0.4678270000000 1.0
C      1  0.4891460000000  0.4575970000000  0.5884270000000 1.0
C      1  0.5379550000000  0.5714700000000  0.4544810000000 1.0
C      1  0.4365030000000  0.4921450000000  0.5705980000000 1.0
C      1  0.4853480000000  0.4488630000000  0.5119140000000 1.0
C      1  0.4113280000000  0.4907750000000  0.4713920000000 1.0
C      1  0.5745380000000  0.5217950000000  0.4371270000000 1.0
C      1  0.5786980000000  0.5630110000000  0.5067290000000 1.0
C      1  0.5744140000000  0.4552030000000  0.5014890000000 1.0
C      1  0.5037720000000  0.5553120000000  0.4209720000000 1.0
C      1  0.5448330000000  0.4619180000000  0.5823980000000 1.0
C      1  0.5292710000000  0.5644700000000  0.4285110000000 1.0
C      1  0.4778360000000  0.5373690000000  0.4910140000000 1.0
C      1  0.4062060000000  0.4928410000000  0.5002880000000 1.0
C      1  0.4494250000000  0.5069040000000  0.4190180000000 1.0
C      1  0.4438690000000  0.4648070000000  0.5754790000000 1.0
C      1  0.4941500000000  0.5526210000000  0.5709330000000 1.0
C      1  0.4669140000000  0.4258360000000  0.5562690000000 1.0
C      1  0.5700710000000  0.4804080000000  0.5460020000000 1.0
C      1  0.4154130000000  0.4947080000000  0.5508970000000 1.0
C      1  0.4393820000000  0.5314090000000  0.4365890000000 1.0
C      1  0.5427610000000  0.4392310000000  0.5405040000000 1.0
C      1  0.5738280000000  0.5491780000000  0.4830530000000 1.0
C      1  0.4766270000000  0.5319700000000  0.5818230000000 1.0
C      1  0.5529930000000  0.4363090000000  0.5132150000000 1.0
C      1  0.5023740000000  0.4984130000000  0.5041130000000 1.0
C      1  0.5032630000000  0.5278980000000  0.4102610000000 1.0
C      1  0.5819110000000  0.5214680000000  0.4852960000000 1.0
C      1  0.5157470000000  0.4296460000000  0.5483040000000 1.0
C      1  0.4829760000000  0.4545970000000  0.4141790000000 1.0
C      1  0.5725360000000  0.5556010000000  0.5330480000000 1.0
C      1  0.4486300000000  0.5462760000000  0.4841420000000 1.0
C      1  0.4125890000000  0.5177990000000  0.4610520000000 1.0
C      1  0.4860380000000  0.5617310000000  0.5041840000000 1.0
C      1  0.4997380000000  0.4839600000000  0.5778280000000 1.0
C      1  0.5092180000000  0.5124590000000  0.4597740000000 1.0
C      1  0.5459630000000  0.4383380000000  0.4578360000000 1.0
C      1  0.5239770000000  0.5524970000000  0.5242500000000 1.0
C      1  0.4931500000000  0.4350170000000  0.5683160000000 1.0
C      1  0.4562050000000  0.4529160000000  0.4265800000000 1.0
C      1  0.5236650000000  0.5263990000000  0.5912720000000 1.0
C      1  0.4937240000000  0.4818700000000  0.4105250000000 1.0
C      1  0.5298510000000  0.4392960000000  0.4324420000000 1.0
C      1  0.5296600000000  0.4849920000000  0.5009430000000 1.0
C      1  0.4618870000000  0.4187300000000  0.5039460000000 1.0
C      1  0.5676660000000  0.5084580000000  0.5596780000000 1.0
C      1  0.5186270000000  0.5869670000000  0.4975580000000 1.0
C      1  0.5200910000000  0.5546170000000  0.5835390000000 1.0
C      1  0.4555330000000  0.5226320000000  0.5626230000000 1.0
C      1  0.5459540000000  0.5660060000000  0.5407950000000 1.0
C      1  0.4520590000000  0.5122620000000  0.5168750000000 1.0
C      1  0.5820000000000  0.5087480000000  0.5123870000000 1.0
C      1  0.4995950000000  0.4453760000000  0.4844080000000 1.0
C      1  0.4968930000000  0.6013030000000  0.5111180000000 1.0
C      1  0.5395470000000  0.4625990000000  0.4169250000000 1.0
C      1  0.4616190000000  0.4974420000000  0.4687140000000 1.0
END
