TITL C-951334-9093-306 1.21047051990671e-06 125000 -345.00203004594 0 0 56 (C1) n - 1
REM
REM in /home/bkarasulu/work/CARBON/AIRSS/Generating-Clusters/EDIP-Nigel-Params/with-SteepDescent/Only-C1/SD-CG/HFTN-CG
REM
REM
REM
REM
REM
REM ./C.cell (11c1c37f851c82e70ff6c80c92926a4b)
REM
REM compiler GCC version 9.2.1 20190827 (Red Hat 9.2.1-1)
REM options -cpp -mtune=generic -march=x86-64 -g -O0 -fpre-include=/usr/include/finclude/math-vector-fortran.h
REM seed -2036408908 -1266931196 1905841758 -330226535 -697267483 1706801906 713402891 -2080108916 -215146004 -1092268647 439511748 320603452 1546574098 -1154467055 79722127 -594563549 855242871 -1255658978 -1290387797 -1402067610 -2002473605 715787047 1400086717 1800645138 -2108555697 1571082744 -830214313 -262213563 1426134371 -378951811 853641887 -263938872 148532345
REM
CELL 1.54180   50.00000   50.00000   50.00000   90.00000   90.00000   90.00000
LATT -1
SFAC C  
C      1  0.5456230000000  0.5316170000000  0.5513550000000 1.0
C      1  0.5328670000000  0.4966380000000  0.5754850000000 1.0
C      1  0.5632960000000  0.5063360000000  0.5036020000000 1.0
C      1  0.5081420000000  0.4584050000000  0.5561280000000 1.0
C      1  0.5234910000000  0.4632520000000  0.4408430000000 1.0
C      1  0.5223770000000  0.4469890000000  0.5125130000000 1.0
C      1  0.4805140000000  0.4338390000000  0.4790340000000 1.0
C      1  0.5056530000000  0.4656460000000  0.5281320000000 1.0
C      1  0.4373610000000  0.4549420000000  0.5007330000000 1.0
C      1  0.5154710000000  0.4980150000000  0.4875110000000 1.0
C      1  0.5111540000000  0.4467940000000  0.4848410000000 1.0
C      1  0.5111110000000  0.5060730000000  0.4266400000000 1.0
C      1  0.5628090000000  0.4923290000000  0.4772480000000 1.0
C      1  0.5487270000000  0.4888280000000  0.5232040000000 1.0
C      1  0.4469150000000  0.4780800000000  0.4824780000000 1.0
C      1  0.5110160000000  0.5673200000000  0.5108720000000 1.0
C      1  0.4693310000000  0.5170420000000  0.4495210000000 1.0
C      1  0.4809150000000  0.5130980000000  0.4979100000000 1.0
C      1  0.4743570000000  0.4825670000000  0.4950620000000 1.0
C      1  0.5381880000000  0.5339820000000  0.4613970000000 1.0
C      1  0.5346690000000  0.4489010000000  0.4652000000000 1.0
C      1  0.4837560000000  0.5018700000000  0.5664770000000 1.0
C      1  0.4973630000000  0.5286420000000  0.5675180000000 1.0
C      1  0.5262980000000  0.5264800000000  0.5759450000000 1.0
C      1  0.4955040000000  0.5254900000000  0.4396310000000 1.0
C      1  0.5011190000000  0.5665420000000  0.5369500000000 1.0
C      1  0.4635090000000  0.4387410000000  0.5037630000000 1.0
C      1  0.4751710000000  0.4656580000000  0.5201920000000 1.0
C      1  0.5318100000000  0.4914470000000  0.4386100000000 1.0
C      1  0.5199270000000  0.4914180000000  0.5175610000000 1.0
C      1  0.5501610000000  0.4593630000000  0.5117880000000 1.0
C      1  0.4386740000000  0.4927090000000  0.5339850000000 1.0
C      1  0.4933760000000  0.4719150000000  0.4478480000000 1.0
C      1  0.4911270000000  0.5648200000000  0.4890600000000 1.0
C      1  0.4544410000000  0.5480150000000  0.5184710000000 1.0
C      1  0.5369090000000  0.5435310000000  0.5251930000000 1.0
C      1  0.4280020000000  0.5077640000000  0.5125470000000 1.0
C      1  0.5070840000000  0.4831050000000  0.5689730000000 1.0
C      1  0.4654520000000  0.5025150000000  0.5418620000000 1.0
C      1  0.5379020000000  0.5040880000000  0.4653250000000 1.0
C      1  0.4614210000000  0.4915730000000  0.4384970000000 1.0
C      1  0.5112100000000  0.5434430000000  0.4558840000000 1.0
C      1  0.5576470000000  0.4623720000000  0.4821140000000 1.0
C      1  0.4371170000000  0.4644780000000  0.5286090000000 1.0
C      1  0.4718550000000  0.4474590000000  0.4528230000000 1.0
C      1  0.5541620000000  0.5485560000000  0.4789830000000 1.0
C      1  0.4957120000000  0.5390860000000  0.5407190000000 1.0
C      1  0.4631870000000  0.5530430000000  0.4914680000000 1.0
C      1  0.5532620000000  0.5342370000000  0.5030900000000 1.0
C      1  0.4503100000000  0.4693560000000  0.4540450000000 1.0
C      1  0.4735490000000  0.5264220000000  0.5255250000000 1.0
C      1  0.5534000000000  0.5010720000000  0.5517860000000 1.0
C      1  0.5011810000000  0.5685880000000  0.4630910000000 1.0
C      1  0.4600740000000  0.5242940000000  0.4779850000000 1.0
C      1  0.4984200000000  0.4747320000000  0.4782100000000 1.0
C      1  0.4359190000000  0.5064830000000  0.4857630000000 1.0
END
