TITL C-950525-1983-117 -3.17056870149558e-06 125000 -1205.84563752667 0 0 194 (C1) n - 1
REM
REM in /home/bkarasulu/work/CARBON/AIRSS/Generating-Clusters/EDIP-Nigel-Params/with-SteepDescent/Only-C1/SD-CG/HFTN-CG
REM
REM
REM
REM
REM
REM ./C.cell (11c1c37f851c82e70ff6c80c92926a4b)
REM
REM compiler GCC version 9.2.1 20190827 (Red Hat 9.2.1-1)
REM options -cpp -mtune=generic -march=x86-64 -g -O0 -fpre-include=/usr/include/finclude/math-vector-fortran.h
REM seed 1667828021 371110494 -349688407 798097963 -1100263638 -127155421 1488853273 1865606427 1042612456 104475076 -1051876471 1306984817 -1489137329 -2048793211 1300517325 -1322846840 -1273200875 330286774 573798069 42004682 -502858857 246987593 145341501 -285390192 -1575693501 -562741388 -77315922 -1301806341 -1074778702 -537619670 -1918660314 24206617 513032853
REM
CELL 1.54180   50.00000   50.00000   50.00000   90.00000   90.00000   90.00000
LATT -1
SFAC C  
C      1  0.4917530000000  0.4682060000000  0.4893690000000 1.0
C      1  0.4445120000000  0.4298670000000  0.5870150000000 1.0
C      1  0.5620730000000  0.5738790000000  0.5257390000000 1.0
C      1  0.4096080000000  0.4649090000000  0.5702570000000 1.0
C      1  0.5239470000000  0.5651840000000  0.4661970000000 1.0
C      1  0.5467560000000  0.4833900000000  0.5295350000000 1.0
C      1  0.4850790000000  0.5791840000000  0.5848510000000 1.0
C      1  0.5170750000000  0.5048520000000  0.5996980000000 1.0
C      1  0.4245910000000  0.5702330000000  0.5007070000000 1.0
C      1  0.4615910000000  0.4456870000000  0.5224200000000 1.0
C      1  0.4020890000000  0.5198920000000  0.4404840000000 1.0
C      1  0.4556390000000  0.5255980000000  0.5506530000000 1.0
C      1  0.5386610000000  0.5494020000000  0.5853030000000 1.0
C      1  0.4215950000000  0.5116140000000  0.5748720000000 1.0
C      1  0.4148190000000  0.4930070000000  0.4396740000000 1.0
C      1  0.4738580000000  0.5008960000000  0.5431770000000 1.0
C      1  0.4802200000000  0.5087260000000  0.5132950000000 1.0
C      1  0.5420020000000  0.4146680000000  0.4525460000000 1.0
C      1  0.5318410000000  0.5947880000000  0.5602750000000 1.0
C      1  0.4248280000000  0.4817440000000  0.5224600000000 1.0
C      1  0.5853050000000  0.4695190000000  0.4228530000000 1.0
C      1  0.3798200000000  0.5108300000000  0.5152120000000 1.0
C      1  0.4198460000000  0.5505090000000  0.4804530000000 1.0
C      1  0.5389760000000  0.5532740000000  0.3987580000000 1.0
C      1  0.5086090000000  0.5516420000000  0.5115810000000 1.0
C      1  0.4389380000000  0.4041680000000  0.5356630000000 1.0
C      1  0.4645660000000  0.4829450000000  0.4406840000000 1.0
C      1  0.5722040000000  0.4672320000000  0.5704410000000 1.0
C      1  0.5642030000000  0.5041930000000  0.3951440000000 1.0
C      1  0.5025800000000  0.5708930000000  0.4884200000000 1.0
C      1  0.5148040000000  0.5332420000000  0.5929610000000 1.0
C      1  0.5738660000000  0.5497500000000  0.4867320000000 1.0
C      1  0.5652690000000  0.5922010000000  0.4554800000000 1.0
C      1  0.5064280000000  0.3930460000000  0.4928510000000 1.0
C      1  0.4725140000000  0.5662940000000  0.4768070000000 1.0
C      1  0.5394140000000  0.4627150000000  0.4045200000000 1.0
C      1  0.4610470000000  0.3931390000000  0.4741860000000 1.0
C      1  0.4861000000000  0.4400960000000  0.4817610000000 1.0
C      1  0.5597490000000  0.5098240000000  0.5691250000000 1.0
C      1  0.4709740000000  0.5305730000000  0.5777270000000 1.0
C      1  0.5150800000000  0.5787820000000  0.5792560000000 1.0
C      1  0.4235630000000  0.5131670000000  0.4915700000000 1.0
C      1  0.4406350000000  0.4607100000000  0.5369650000000 1.0
C      1  0.5539890000000  0.4270810000000  0.5713370000000 1.0
C      1  0.5118760000000  0.4114630000000  0.5613260000000 1.0
C      1  0.5269100000000  0.6011810000000  0.5098420000000 1.0
C      1  0.4772940000000  0.5753180000000  0.5379230000000 1.0
C      1  0.5029410000000  0.5015060000000  0.5575710000000 1.0
C      1  0.6177960000000  0.5258630000000  0.4734330000000 1.0
C      1  0.4404090000000  0.4961810000000  0.5914880000000 1.0
C      1  0.4480740000000  0.6063380000000  0.5143800000000 1.0
C      1  0.4658840000000  0.4239990000000  0.4084620000000 1.0
C      1  0.6028940000000  0.4284390000000  0.4994590000000 1.0
C      1  0.5672640000000  0.4707630000000  0.5985620000000 1.0
C      1  0.5815860000000  0.5551840000000  0.5148760000000 1.0
C      1  0.4931590000000  0.4600610000000  0.6069170000000 1.0
C      1  0.4140590000000  0.4767810000000  0.4170720000000 1.0
C      1  0.4373640000000  0.5620620000000  0.5809780000000 1.0
C      1  0.4960970000000  0.5261770000000  0.3980860000000 1.0
C      1  0.4197530000000  0.5403740000000  0.5696670000000 1.0
C      1  0.5786220000000  0.4767570000000  0.4934030000000 1.0
C      1  0.5339400000000  0.4879040000000  0.4671310000000 1.0
C      1  0.5925310000000  0.5892260000000  0.4486620000000 1.0
C      1  0.5430160000000  0.4647900000000  0.6114650000000 1.0
C      1  0.5668510000000  0.4994940000000  0.5108180000000 1.0
C      1  0.5957750000000  0.5613960000000  0.4451900000000 1.0
C      1  0.4399830000000  0.5872040000000  0.5685050000000 1.0
C      1  0.5856900000000  0.5291380000000  0.5276260000000 1.0
C      1  0.5100930000000  0.5526990000000  0.4024980000000 1.0
C      1  0.4119850000000  0.5365310000000  0.5328340000000 1.0
C      1  0.4575690000000  0.5500680000000  0.5293860000000 1.0
C      1  0.5463570000000  0.5241780000000  0.5458810000000 1.0
C      1  0.5257820000000  0.5044370000000  0.5358450000000 1.0
C      1  0.4997520000000  0.5711330000000  0.4228140000000 1.0
C      1  0.4690860000000  0.5196370000000  0.4080370000000 1.0
C      1  0.4177290000000  0.4441400000000  0.5483880000000 1.0
C      1  0.5550890000000  0.5248220000000  0.4914040000000 1.0
C      1  0.5099570000000  0.4540660000000  0.4420180000000 1.0
C      1  0.5044310000000  0.6092630000000  0.4521480000000 1.0
C      1  0.3874210000000  0.4985460000000  0.5394960000000 1.0
C      1  0.5900050000000  0.5427530000000  0.5852590000000 1.0
C      1  0.4293560000000  0.5594920000000  0.5267290000000 1.0
C      1  0.4176070000000  0.4038910000000  0.5165060000000 1.0
C      1  0.4298470000000  0.5393740000000  0.4381860000000 1.0
C      1  0.4401220000000  0.4485430000000  0.4751570000000 1.0
C      1  0.4601130000000  0.4336060000000  0.4954200000000 1.0
C      1  0.5803550000000  0.4281160000000  0.5299840000000 1.0
C      1  0.5873440000000  0.4874280000000  0.5570610000000 1.0
C      1  0.4023160000000  0.4928950000000  0.5629820000000 1.0
C      1  0.4903300000000  0.3977520000000  0.4687210000000 1.0
C      1  0.4843750000000  0.4236580000000  0.5536250000000 1.0
C      1  0.5055480000000  0.4055970000000  0.4441860000000 1.0
C      1  0.4310650000000  0.5133560000000  0.5217520000000 1.0
C      1  0.5054760000000  0.5579110000000  0.5413910000000 1.0
C      1  0.5245050000000  0.4408980000000  0.5245340000000 1.0
C      1  0.5336040000000  0.5387980000000  0.5063240000000 1.0
C      1  0.4449130000000  0.5876820000000  0.4935450000000 1.0
C      1  0.3848700000000  0.5222540000000  0.4658870000000 1.0
C      1  0.4022800000000  0.4393710000000  0.5203380000000 1.0
C      1  0.4679210000000  0.5888480000000  0.5628880000000 1.0
C      1  0.5743930000000  0.5503470000000  0.4281120000000 1.0
C      1  0.4856420000000  0.6058000000000  0.4914450000000 1.0
C      1  0.6097080000000  0.5369600000000  0.5680880000000 1.0
C      1  0.5033610000000  0.4286460000000  0.3994010000000 1.0
C      1  0.4689170000000  0.4898250000000  0.4927840000000 1.0
C      1  0.5572180000000  0.4195270000000  0.5442290000000 1.0
C      1  0.5327940000000  0.4430230000000  0.4592400000000 1.0
C      1  0.4269270000000  0.4539430000000  0.4114820000000 1.0
C      1  0.4403600000000  0.4859870000000  0.4814680000000 1.0
C      1  0.4398630000000  0.4028740000000  0.4587560000000 1.0
C      1  0.5996920000000  0.4784840000000  0.5316950000000 1.0
C      1  0.6113240000000  0.5285780000000  0.5418570000000 1.0
C      1  0.5328450000000  0.4506490000000  0.4976760000000 1.0
C      1  0.5389410000000  0.4916610000000  0.4000390000000 1.0
C      1  0.5116340000000  0.5013120000000  0.3947640000000 1.0
C      1  0.5646400000000  0.5322220000000  0.5884830000000 1.0
C      1  0.5847740000000  0.4968070000000  0.4133990000000 1.0
C      1  0.5380190000000  0.4915940000000  0.5834360000000 1.0
C      1  0.4975200000000  0.4210530000000  0.5263980000000 1.0
C      1  0.5210520000000  0.4488260000000  0.6018540000000 1.0
C      1  0.5115960000000  0.5076310000000  0.5092000000000 1.0
C      1  0.5579040000000  0.5832210000000  0.5528880000000 1.0
C      1  0.4905560000000  0.4109410000000  0.4182420000000 1.0
C      1  0.4937320000000  0.4785930000000  0.3999670000000 1.0
C      1  0.5089280000000  0.4678330000000  0.5641380000000 1.0
C      1  0.6150110000000  0.5008740000000  0.4850500000000 1.0
C      1  0.5111910000000  0.4546890000000  0.4107580000000 1.0
C      1  0.3905920000000  0.5468490000000  0.4834000000000 1.0
C      1  0.4324360000000  0.4209520000000  0.5601140000000 1.0
C      1  0.5560430000000  0.4666140000000  0.4631470000000 1.0
C      1  0.4374390000000  0.4675040000000  0.5832730000000 1.0
C      1  0.5776430000000  0.4260860000000  0.4824460000000 1.0
C      1  0.4752590000000  0.6014010000000  0.5208850000000 1.0
C      1  0.5635030000000  0.4498710000000  0.4949360000000 1.0
C      1  0.4830440000000  0.4649480000000  0.5197910000000 1.0
C      1  0.4676870000000  0.4898750000000  0.4112200000000 1.0
C      1  0.4466540000000  0.5392690000000  0.4120950000000 1.0
C      1  0.5209070000000  0.4803500000000  0.4933870000000 1.0
C      1  0.4800290000000  0.4510900000000  0.5656500000000 1.0
C      1  0.5616930000000  0.5232410000000  0.4283810000000 1.0
C      1  0.5180450000000  0.5843450000000  0.4423740000000 1.0
C      1  0.5609320000000  0.4534640000000  0.4221180000000 1.0
C      1  0.5360970000000  0.4026850000000  0.5323260000000 1.0
C      1  0.5327000000000  0.4032890000000  0.5016250000000 1.0
C      1  0.4858790000000  0.4383850000000  0.4526890000000 1.0
C      1  0.4935340000000  0.5228340000000  0.4624120000000 1.0
C      1  0.4866240000000  0.3963880000000  0.5133280000000 1.0
C      1  0.3941320000000  0.5029430000000  0.4893580000000 1.0
C      1  0.5134580000000  0.6135680000000  0.4882380000000 1.0
C      1  0.5208030000000  0.6060300000000  0.5369320000000 1.0
C      1  0.4888590000000  0.4952450000000  0.4542080000000 1.0
C      1  0.5534110000000  0.4058740000000  0.4800810000000 1.0
C      1  0.5363570000000  0.5512740000000  0.5535820000000 1.0
C      1  0.4590560000000  0.4523920000000  0.4473120000000 1.0
C      1  0.4750120000000  0.6076200000000  0.4612510000000 1.0
C      1  0.5514020000000  0.5887020000000  0.5035780000000 1.0
C      1  0.5210960000000  0.5342290000000  0.4552760000000 1.0
C      1  0.4719100000000  0.4415700000000  0.5924850000000 1.0
C      1  0.4294580000000  0.5655470000000  0.4535480000000 1.0
C      1  0.4573300000000  0.4715750000000  0.5586990000000 1.0
C      1  0.4692860000000  0.5363260000000  0.4746850000000 1.0
C      1  0.4546350000000  0.5649710000000  0.4050830000000 1.0
C      1  0.5990350000000  0.5464690000000  0.4702130000000 1.0
C      1  0.4713630000000  0.5734940000000  0.4257030000000 1.0
C      1  0.6103500000000  0.5012930000000  0.5154990000000 1.0
C      1  0.5988890000000  0.4496950000000  0.5218220000000 1.0
C      1  0.4992820000000  0.5312090000000  0.5682290000000 1.0
C      1  0.4412390000000  0.4965550000000  0.4535230000000 1.0
C      1  0.4918120000000  0.4894350000000  0.5987970000000 1.0
C      1  0.5299940000000  0.5272830000000  0.4247970000000 1.0
C      1  0.4472430000000  0.4394560000000  0.4235320000000 1.0
C      1  0.5540930000000  0.5740450000000  0.4774170000000 1.0
C      1  0.4469110000000  0.5250410000000  0.4570180000000 1.0
C      1  0.5975850000000  0.4626130000000  0.4490530000000 1.0
C      1  0.5469360000000  0.4611520000000  0.5538380000000 1.0
C      1  0.4075900000000  0.4148920000000  0.4919330000000 1.0
C      1  0.4591810000000  0.5812720000000  0.4517380000000 1.0
C      1  0.5123610000000  0.4820650000000  0.4490560000000 1.0
C      1  0.5083200000000  0.4633390000000  0.5339760000000 1.0
C      1  0.4236710000000  0.4235400000000  0.4693410000000 1.0
C      1  0.4642830000000  0.5556990000000  0.5917030000000 1.0
C      1  0.5428310000000  0.5161560000000  0.4658810000000 1.0
C      1  0.5578470000000  0.5695740000000  0.4134760000000 1.0
C      1  0.5954490000000  0.4844330000000  0.4704460000000 1.0
C      1  0.4675890000000  0.5063400000000  0.5949990000000 1.0
C      1  0.3922240000000  0.4744050000000  0.4848900000000 1.0
C      1  0.4588730000000  0.4026520000000  0.5028490000000 1.0
C      1  0.5270480000000  0.4305020000000  0.5787950000000 1.0
C      1  0.4098230000000  0.4636780000000  0.5038540000000 1.0
C      1  0.5648020000000  0.4264110000000  0.4343950000000 1.0
C      1  0.5463540000000  0.5903060000000  0.4321490000000 1.0
C      1  0.3860820000000  0.5395960000000  0.5137280000000 1.0
C      1  0.4661870000000  0.5325590000000  0.5050240000000 1.0
C      1  0.5852740000000  0.4347400000000  0.4544780000000 1.0
END
