TITL C-950531-5884-661 -2.81037022791289e-06 125000 -818.367268274771 0 0 132 (C1) n - 1
REM
REM in /home/bkarasulu/work/CARBON/AIRSS/Generating-Clusters/EDIP-Nigel-Params/with-SteepDescent/Only-C1/SD-CG/HFTN-CG
REM
REM
REM
REM
REM
REM ./C.cell (11c1c37f851c82e70ff6c80c92926a4b)
REM
REM compiler GCC version 9.2.1 20190827 (Red Hat 9.2.1-1)
REM options -cpp -mtune=generic -march=x86-64 -g -O0 -fpre-include=/usr/include/finclude/math-vector-fortran.h
REM seed 710485524 -1276410589 -1839943748 -1035105141 -1525588873 781296143 -813245244 1919009949 819565432 980462412 -2004995444 2107103849 -356429289 -916491152 -1927013681 1078567079 77568445 2066189895 -2049264288 -180813028 -1654209614 2028183667 -1921034761 1803614129 -1908952556 -175460002 160597484 -1975809407 1326245907 1156742521 1077107066 -548458553 1581364996
REM
CELL 1.54180   50.00000   50.00000   50.00000   90.00000   90.00000   90.00000
LATT -1
SFAC C  
C      1  0.4992450000000  0.6001180000000  0.5169320000000 1.0
C      1  0.5210480000000  0.5438180000000  0.5144960000000 1.0
C      1  0.5255820000000  0.4853390000000  0.4972470000000 1.0
C      1  0.4564620000000  0.5498190000000  0.5579840000000 1.0
C      1  0.5084330000000  0.5444090000000  0.4103170000000 1.0
C      1  0.5211130000000  0.4836680000000  0.3999010000000 1.0
C      1  0.5194730000000  0.5388920000000  0.5450000000000 1.0
C      1  0.5311570000000  0.4574920000000  0.5046580000000 1.0
C      1  0.4983240000000  0.5993140000000  0.5460580000000 1.0
C      1  0.5553190000000  0.4489510000000  0.4384020000000 1.0
C      1  0.5431320000000  0.5251370000000  0.5031920000000 1.0
C      1  0.5207390000000  0.4027410000000  0.5017980000000 1.0
C      1  0.4977200000000  0.4881290000000  0.5955250000000 1.0
C      1  0.4578700000000  0.5118140000000  0.4670270000000 1.0
C      1  0.5299260000000  0.4331670000000  0.5510360000000 1.0
C      1  0.5299690000000  0.4392770000000  0.4262860000000 1.0
C      1  0.4365580000000  0.5678110000000  0.5189530000000 1.0
C      1  0.5067870000000  0.4614410000000  0.5841450000000 1.0
C      1  0.4842080000000  0.4204020000000  0.5631300000000 1.0
C      1  0.4377530000000  0.4507540000000  0.4603390000000 1.0
C      1  0.5115680000000  0.6118190000000  0.4701570000000 1.0
C      1  0.5472760000000  0.4888380000000  0.3912130000000 1.0
C      1  0.4029010000000  0.4846020000000  0.5360190000000 1.0
C      1  0.4879920000000  0.4999990000000  0.4752000000000 1.0
C      1  0.5619860000000  0.4939230000000  0.4141310000000 1.0
C      1  0.4919010000000  0.5235260000000  0.4222050000000 1.0
C      1  0.4061580000000  0.5277620000000  0.5104500000000 1.0
C      1  0.5540760000000  0.5042660000000  0.5252390000000 1.0
C      1  0.5625310000000  0.4539730000000  0.5071580000000 1.0
C      1  0.5703870000000  0.4425240000000  0.5338950000000 1.0
C      1  0.4740180000000  0.4026970000000  0.5199760000000 1.0
C      1  0.4414420000000  0.4352980000000  0.5068410000000 1.0
C      1  0.5047450000000  0.4524390000000  0.4770190000000 1.0
C      1  0.5275860000000  0.5577050000000  0.4262630000000 1.0
C      1  0.5619980000000  0.5449380000000  0.4619080000000 1.0
C      1  0.5891970000000  0.4778620000000  0.4507420000000 1.0
C      1  0.4748360000000  0.5897940000000  0.5077600000000 1.0
C      1  0.4425640000000  0.4898980000000  0.4855490000000 1.0
C      1  0.5094590000000  0.4115910000000  0.5510320000000 1.0
C      1  0.4184360000000  0.5271700000000  0.4844680000000 1.0
C      1  0.4703020000000  0.5955250000000  0.5501570000000 1.0
C      1  0.5954990000000  0.4540350000000  0.4643050000000 1.0
C      1  0.5242230000000  0.4924750000000  0.4505240000000 1.0
C      1  0.4435060000000  0.5453800000000  0.4890800000000 1.0
C      1  0.4707620000000  0.5557410000000  0.5838770000000 1.0
C      1  0.4728570000000  0.4157850000000  0.4690890000000 1.0
C      1  0.5018120000000  0.4967950000000  0.5116070000000 1.0
C      1  0.4851870000000  0.5344770000000  0.4491400000000 1.0
C      1  0.4682780000000  0.4848870000000  0.5915350000000 1.0
C      1  0.4287220000000  0.5361730000000  0.5569890000000 1.0
C      1  0.5776990000000  0.5243130000000  0.4490230000000 1.0
C      1  0.5031580000000  0.4233470000000  0.4668420000000 1.0
C      1  0.4573700000000  0.4973470000000  0.5094910000000 1.0
C      1  0.4597090000000  0.4603650000000  0.5782930000000 1.0
C      1  0.4066830000000  0.5065060000000  0.4655050000000 1.0
C      1  0.5045740000000  0.5263200000000  0.4715340000000 1.0
C      1  0.4664370000000  0.5320570000000  0.5979650000000 1.0
C      1  0.4404330000000  0.4601760000000  0.5563780000000 1.0
C      1  0.4554810000000  0.4291240000000  0.4485480000000 1.0
C      1  0.5617780000000  0.4311970000000  0.4863110000000 1.0
C      1  0.5234820000000  0.5693720000000  0.4715950000000 1.0
C      1  0.5186660000000  0.6091740000000  0.4979780000000 1.0
C      1  0.5408770000000  0.4128460000000  0.4873670000000 1.0
C      1  0.4946110000000  0.5388190000000  0.4988000000000 1.0
C      1  0.5123440000000  0.4563740000000  0.4087250000000 1.0
C      1  0.4525210000000  0.5745310000000  0.5428470000000 1.0
C      1  0.4967200000000  0.5673280000000  0.5811690000000 1.0
C      1  0.5829180000000  0.5365780000000  0.5333820000000 1.0
C      1  0.4580840000000  0.4680140000000  0.4720000000000 1.0
C      1  0.5136860000000  0.5795500000000  0.5613970000000 1.0
C      1  0.5391270000000  0.5001230000000  0.4746700000000 1.0
C      1  0.5724950000000  0.4379720000000  0.4601870000000 1.0
C      1  0.5499940000000  0.4737970000000  0.5655350000000 1.0
C      1  0.5330500000000  0.5463340000000  0.4538180000000 1.0
C      1  0.4617010000000  0.4153650000000  0.5445160000000 1.0
C      1  0.4987190000000  0.4772960000000  0.4567140000000 1.0
C      1  0.4705170000000  0.4831250000000  0.4112110000000 1.0
C      1  0.5722790000000  0.5188230000000  0.4218960000000 1.0
C      1  0.4322810000000  0.5086870000000  0.5680000000000 1.0
C      1  0.4450180000000  0.5153440000000  0.4387680000000 1.0
C      1  0.4762550000000  0.5627380000000  0.4496410000000 1.0
C      1  0.5304330000000  0.5946130000000  0.4552600000000 1.0
C      1  0.4530610000000  0.5088180000000  0.5889180000000 1.0
C      1  0.4229970000000  0.4835380000000  0.5550730000000 1.0
C      1  0.5354840000000  0.4838520000000  0.5402870000000 1.0
C      1  0.4923460000000  0.5780280000000  0.4692800000000 1.0
C      1  0.5057660000000  0.5161040000000  0.5846360000000 1.0
C      1  0.4486670000000  0.5570170000000  0.4595500000000 1.0
C      1  0.5077800000000  0.4942990000000  0.5405920000000 1.0
C      1  0.4354800000000  0.5427650000000  0.4389330000000 1.0
C      1  0.5910240000000  0.4863840000000  0.5406480000000 1.0
C      1  0.5822020000000  0.5128500000000  0.5500830000000 1.0
C      1  0.5903260000000  0.5034330000000  0.4934600000000 1.0
C      1  0.5627400000000  0.5606350000000  0.5356860000000 1.0
C      1  0.4671800000000  0.5262810000000  0.5121330000000 1.0
C      1  0.4606450000000  0.4153300000000  0.4967660000000 1.0
C      1  0.4224570000000  0.4467100000000  0.4872340000000 1.0
C      1  0.4214230000000  0.4969610000000  0.4415370000000 1.0
C      1  0.4820320000000  0.5666510000000  0.4934170000000 1.0
C      1  0.5769840000000  0.5003370000000  0.4666190000000 1.0
C      1  0.4245880000000  0.4686710000000  0.4413360000000 1.0
C      1  0.5589790000000  0.5695880000000  0.5075760000000 1.0
C      1  0.4848380000000  0.4601660000000  0.4186780000000 1.0
C      1  0.3942220000000  0.5045890000000  0.5202510000000 1.0
C      1  0.4652280000000  0.5102350000000  0.4160940000000 1.0
C      1  0.5401620000000  0.5374890000000  0.5659210000000 1.0
C      1  0.4137200000000  0.4742900000000  0.4946120000000 1.0
C      1  0.4733750000000  0.5305520000000  0.5420360000000 1.0
C      1  0.4839720000000  0.4457200000000  0.5764360000000 1.0
C      1  0.4701230000000  0.4378990000000  0.4264310000000 1.0
C      1  0.5717650000000  0.4708820000000  0.4284450000000 1.0
C      1  0.5084680000000  0.4973430000000  0.4245200000000 1.0
C      1  0.5766870000000  0.4860770000000  0.5136090000000 1.0
C      1  0.4778510000000  0.4553160000000  0.4912120000000 1.0
C      1  0.4220290000000  0.5439510000000  0.5284320000000 1.0
C      1  0.5158890000000  0.4518640000000  0.5305780000000 1.0
C      1  0.5647740000000  0.5440780000000  0.4921700000000 1.0
C      1  0.5151450000000  0.4207730000000  0.4412680000000 1.0
C      1  0.5302200000000  0.5725400000000  0.5026610000000 1.0
C      1  0.4996630000000  0.5193950000000  0.5538300000000 1.0
C      1  0.5434930000000  0.5740770000000  0.5564480000000 1.0
C      1  0.5550110000000  0.4214740000000  0.5431120000000 1.0
C      1  0.4783520000000  0.4780790000000  0.5124090000000 1.0
C      1  0.5766680000000  0.4637080000000  0.5544590000000 1.0
C      1  0.5268510000000  0.5859360000000  0.4285310000000 1.0
C      1  0.5892600000000  0.5315580000000  0.5037430000000 1.0
C      1  0.5321530000000  0.5254130000000  0.5899480000000 1.0
C      1  0.4844320000000  0.4408750000000  0.5240330000000 1.0
C      1  0.5034450000000  0.4011920000000  0.5237120000000 1.0
C      1  0.4422860000000  0.4373900000000  0.5369950000000 1.0
C      1  0.3924480000000  0.4854040000000  0.4786660000000 1.0
C      1  0.5331860000000  0.4515350000000  0.5756730000000 1.0
END
