TITL C-951337-3020-42 -3.83847731030411e-06 125000 -774.305174481614 0 0 124 (C1) n - 1
REM
REM in /home/bkarasulu/work/CARBON/AIRSS/Generating-Clusters/EDIP-Nigel-Params/with-SteepDescent/Only-C1/SD-CG/HFTN-CG
REM
REM
REM
REM
REM
REM ./C.cell (11c1c37f851c82e70ff6c80c92926a4b)
REM
REM compiler GCC version 9.2.1 20190827 (Red Hat 9.2.1-1)
REM options -cpp -mtune=generic -march=x86-64 -g -O0 -fpre-include=/usr/include/finclude/math-vector-fortran.h
REM seed -1858678966 91952575 -1396591448 -1278451686 168684719 -27026015 1647669320 -1511692208 -239402510 -30425832 -1868039180 1583318559 -475192133 1493352918 -1270432146 2028983925 1765294534 130655795 -1998914350 184747362 1293533032 745501772 1967584433 -2003466657 628162641 -1173023520 1386106734 -764201234 -1058516621 -904403371 -1996035169 697722906 2012985086
REM
CELL 1.54180   50.00000   50.00000   50.00000   90.00000   90.00000   90.00000
LATT -1
SFAC C  
C      1  0.4189080000000  0.4434740000000  0.4894190000000 1.0
C      1  0.4433230000000  0.5029570000000  0.5462010000000 1.0
C      1  0.4969520000000  0.4497120000000  0.5335870000000 1.0
C      1  0.5108120000000  0.4925810000000  0.5501520000000 1.0
C      1  0.5358460000000  0.4794530000000  0.5382720000000 1.0
C      1  0.5624800000000  0.4621020000000  0.4392020000000 1.0
C      1  0.4884970000000  0.5808030000000  0.5808030000000 1.0
C      1  0.4243070000000  0.4819410000000  0.5530170000000 1.0
C      1  0.4504210000000  0.5189920000000  0.4387680000000 1.0
C      1  0.4921880000000  0.4221790000000  0.4939560000000 1.0
C      1  0.5524800000000  0.4247730000000  0.4728170000000 1.0
C      1  0.4423690000000  0.4597180000000  0.5595090000000 1.0
C      1  0.5517070000000  0.4230740000000  0.5025410000000 1.0
C      1  0.5325690000000  0.4846060000000  0.4886670000000 1.0
C      1  0.5543470000000  0.5356550000000  0.5443090000000 1.0
C      1  0.5225350000000  0.4143260000000  0.5384060000000 1.0
C      1  0.4810920000000  0.5535150000000  0.5862350000000 1.0
C      1  0.5329230000000  0.4025320000000  0.5126290000000 1.0
C      1  0.4873420000000  0.5515840000000  0.5102980000000 1.0
C      1  0.4570610000000  0.4199170000000  0.5312970000000 1.0
C      1  0.5263030000000  0.4509500000000  0.5262340000000 1.0
C      1  0.4429110000000  0.4465080000000  0.5315460000000 1.0
C      1  0.4957650000000  0.4564550000000  0.4076220000000 1.0
C      1  0.5847620000000  0.5113200000000  0.5214730000000 1.0
C      1  0.5080780000000  0.5405490000000  0.4918010000000 1.0
C      1  0.4896280000000  0.5052640000000  0.5112650000000 1.0
C      1  0.4692730000000  0.5018060000000  0.4554470000000 1.0
C      1  0.5085840000000  0.4269180000000  0.4418940000000 1.0
C      1  0.4440340000000  0.5626470000000  0.4652090000000 1.0
C      1  0.5415300000000  0.5272270000000  0.4654680000000 1.0
C      1  0.4869410000000  0.4742830000000  0.5465610000000 1.0
C      1  0.4537910000000  0.5155180000000  0.5706210000000 1.0
C      1  0.4238290000000  0.5500410000000  0.5363160000000 1.0
C      1  0.4296940000000  0.4843800000000  0.5023340000000 1.0
C      1  0.4599390000000  0.5430640000000  0.5016050000000 1.0
C      1  0.5112640000000  0.5374320000000  0.4630890000000 1.0
C      1  0.4963130000000  0.5055450000000  0.5947580000000 1.0
C      1  0.5334650000000  0.5872220000000  0.4872280000000 1.0
C      1  0.5396690000000  0.4879130000000  0.4062220000000 1.0
C      1  0.5674630000000  0.4305940000000  0.5477200000000 1.0
C      1  0.5406250000000  0.5319270000000  0.5801790000000 1.0
C      1  0.5464950000000  0.5401180000000  0.4218780000000 1.0
C      1  0.5262810000000  0.4127170000000  0.4630240000000 1.0
C      1  0.4669820000000  0.4719470000000  0.4578750000000 1.0
C      1  0.5194380000000  0.5511430000000  0.4224060000000 1.0
C      1  0.4638260000000  0.4181540000000  0.4875410000000 1.0
C      1  0.4946150000000  0.5415660000000  0.5378860000000 1.0
C      1  0.5703690000000  0.4370160000000  0.5209690000000 1.0
C      1  0.4145600000000  0.4460620000000  0.5192800000000 1.0
C      1  0.4535230000000  0.4673730000000  0.4162500000000 1.0
C      1  0.5872340000000  0.5334650000000  0.4502100000000 1.0
C      1  0.4204960000000  0.5217230000000  0.4802080000000 1.0
C      1  0.4541950000000  0.4670010000000  0.5103860000000 1.0
C      1  0.4851580000000  0.4237080000000  0.5375780000000 1.0
C      1  0.5422820000000  0.4258270000000  0.5583240000000 1.0
C      1  0.5605800000000  0.5449460000000  0.4499120000000 1.0
C      1  0.5398580000000  0.4646300000000  0.4222880000000 1.0
C      1  0.4886590000000  0.5822060000000  0.5097430000000 1.0
C      1  0.4699840000000  0.4957940000000  0.5853940000000 1.0
C      1  0.5021150000000  0.4929470000000  0.4868910000000 1.0
C      1  0.5575070000000  0.4842290000000  0.5604560000000 1.0
C      1  0.4286280000000  0.4708060000000  0.4528880000000 1.0
C      1  0.4263970000000  0.5213380000000  0.5288470000000 1.0
C      1  0.4816820000000  0.5966490000000  0.5560480000000 1.0
C      1  0.4153770000000  0.5605470000000  0.5092280000000 1.0
C      1  0.4710070000000  0.5408200000000  0.4307480000000 1.0
C      1  0.5775040000000  0.4637770000000  0.5129450000000 1.0
C      1  0.4588760000000  0.5897120000000  0.5110150000000 1.0
C      1  0.4861810000000  0.4686580000000  0.4806590000000 1.0
C      1  0.5618110000000  0.4512090000000  0.4657150000000 1.0
C      1  0.4418710000000  0.5186130000000  0.5021730000000 1.0
C      1  0.4696000000000  0.4691680000000  0.5707870000000 1.0
C      1  0.5086010000000  0.5628590000000  0.5533320000000 1.0
C      1  0.5032850000000  0.4458900000000  0.4814560000000 1.0
C      1  0.5178010000000  0.4979300000000  0.4409010000000 1.0
C      1  0.5356000000000  0.5429760000000  0.5004230000000 1.0
C      1  0.5827380000000  0.5277650000000  0.4981390000000 1.0
C      1  0.4154930000000  0.4711000000000  0.4781890000000 1.0
C      1  0.4978000000000  0.5094520000000  0.4612780000000 1.0
C      1  0.5669620000000  0.5695840000000  0.5191630000000 1.0
C      1  0.4689760000000  0.4887830000000  0.5270960000000 1.0
C      1  0.4965010000000  0.5335830000000  0.5992870000000 1.0
C      1  0.5462160000000  0.5140570000000  0.4111280000000 1.0
C      1  0.4883040000000  0.4826850000000  0.4205020000000 1.0
C      1  0.4503230000000  0.4443750000000  0.4807780000000 1.0
C      1  0.4715780000000  0.4418750000000  0.4164580000000 1.0
C      1  0.4310150000000  0.5364670000000  0.4565520000000 1.0
C      1  0.5600140000000  0.5139850000000  0.5666460000000 1.0
C      1  0.5190310000000  0.4446070000000  0.4209190000000 1.0
C      1  0.4093570000000  0.4780940000000  0.5267110000000 1.0
C      1  0.4973070000000  0.5320250000000  0.4216130000000 1.0
C      1  0.5605970000000  0.5661850000000  0.4730560000000 1.0
C      1  0.4590690000000  0.5441600000000  0.5706730000000 1.0
C      1  0.5823920000000  0.4848690000000  0.5328870000000 1.0
C      1  0.4944450000000  0.5776540000000  0.4578970000000 1.0
C      1  0.4471460000000  0.5608380000000  0.5496240000000 1.0
C      1  0.5402840000000  0.4718090000000  0.5830030000000 1.0
C      1  0.4511880000000  0.4040940000000  0.5084290000000 1.0
C      1  0.4556280000000  0.5881720000000  0.5417350000000 1.0
C      1  0.5468590000000  0.4959500000000  0.5141800000000 1.0
C      1  0.5288900000000  0.4538260000000  0.4944890000000 1.0
C      1  0.5036550000000  0.5900070000000  0.4837690000000 1.0
C      1  0.5392610000000  0.5713240000000  0.5114130000000 1.0
C      1  0.4430170000000  0.5666940000000  0.4961310000000 1.0
C      1  0.5435460000000  0.4961990000000  0.4601460000000 1.0
C      1  0.5082550000000  0.5162520000000  0.5318980000000 1.0
C      1  0.5366430000000  0.5551100000000  0.5619880000000 1.0
C      1  0.5863020000000  0.4898240000000  0.4674660000000 1.0
C      1  0.5367440000000  0.5231000000000  0.5223900000000 1.0
C      1  0.5175440000000  0.5702190000000  0.4433080000000 1.0
C      1  0.5756720000000  0.4869660000000  0.4413590000000 1.0
C      1  0.3998680000000  0.5362620000000  0.4965640000000 1.0
C      1  0.4809610000000  0.4221870000000  0.4358020000000 1.0
C      1  0.5128310000000  0.4010500000000  0.4893610000000 1.0
C      1  0.5191130000000  0.4882000000000  0.5929790000000 1.0
C      1  0.5776220000000  0.5567080000000  0.4959860000000 1.0
C      1  0.5031750000000  0.5892300000000  0.5358570000000 1.0
C      1  0.4363270000000  0.4871820000000  0.4301240000000 1.0
C      1  0.5345720000000  0.4450660000000  0.5771380000000 1.0
C      1  0.3983310000000  0.5139850000000  0.5186310000000 1.0
C      1  0.5769230000000  0.4679080000000  0.4841650000000 1.0
C      1  0.4704450000000  0.5611790000000  0.4520980000000 1.0
C      1  0.4996480000000  0.5069600000000  0.4076720000000 1.0
C      1  0.5910340000000  0.5174140000000  0.4729820000000 1.0
END
