TITL C-950533-5798-485 3.84094849241718e-06 125000 -851.444390267201 0 0 138 (C1) n - 1
REM
REM in /home/bkarasulu/work/CARBON/AIRSS/Generating-Clusters/EDIP-Nigel-Params/with-SteepDescent/Only-C1/SD-CG/HFTN-CG
REM
REM
REM
REM
REM
REM ./C.cell (11c1c37f851c82e70ff6c80c92926a4b)
REM
REM compiler GCC version 9.2.1 20190827 (Red Hat 9.2.1-1)
REM options -cpp -mtune=generic -march=x86-64 -g -O0 -fpre-include=/usr/include/finclude/math-vector-fortran.h
REM seed 843685291 -880699546 -622981768 1931701302 838588385 -335492892 1860736572 831647650 212877117 -961731054 -196034046 401708645 880477077 1955616613 1458111738 804896552 -2026048172 1796610593 -1077633195 -1938613961 -1552264855 1460834931 1102671168 336231128 -543957455 1518217538 -780091408 324259411 -52922608 -1024725564 1353451796 -1400652419 -1460930959
REM
CELL 1.54180   50.00000   50.00000   50.00000   90.00000   90.00000   90.00000
LATT -1
SFAC C  
C      1  0.4920800000000  0.4116660000000  0.5131390000000 1.0
C      1  0.4826350000000  0.5559330000000  0.5507870000000 1.0
C      1  0.4393030000000  0.5580560000000  0.5610770000000 1.0
C      1  0.5149990000000  0.4877170000000  0.4977790000000 1.0
C      1  0.5185180000000  0.4179320000000  0.4715590000000 1.0
C      1  0.5455000000000  0.3972860000000  0.4909970000000 1.0
C      1  0.4527340000000  0.4946710000000  0.4326310000000 1.0
C      1  0.6127140000000  0.5232280000000  0.5310310000000 1.0
C      1  0.5642620000000  0.5591270000000  0.4635730000000 1.0
C      1  0.5689000000000  0.4731260000000  0.5790210000000 1.0
C      1  0.5405360000000  0.5104640000000  0.5979460000000 1.0
C      1  0.5354700000000  0.5605170000000  0.5021710000000 1.0
C      1  0.5537320000000  0.4631000000000  0.4901210000000 1.0
C      1  0.5900800000000  0.4405360000000  0.4910650000000 1.0
C      1  0.4269420000000  0.4821020000000  0.4225780000000 1.0
C      1  0.5321240000000  0.4774020000000  0.4789470000000 1.0
C      1  0.5527790000000  0.4946200000000  0.4204250000000 1.0
C      1  0.5642480000000  0.4507790000000  0.4491380000000 1.0
C      1  0.4845860000000  0.5997650000000  0.4972960000000 1.0
C      1  0.5208260000000  0.5125030000000  0.5540900000000 1.0
C      1  0.5644970000000  0.5261760000000  0.5343480000000 1.0
C      1  0.5720240000000  0.5686050000000  0.5800140000000 1.0
C      1  0.5197080000000  0.4584930000000  0.5947300000000 1.0
C      1  0.4554830000000  0.5641360000000  0.4239190000000 1.0
C      1  0.4948810000000  0.4443200000000  0.5832050000000 1.0
C      1  0.5177560000000  0.4634750000000  0.4595120000000 1.0
C      1  0.5056900000000  0.4212820000000  0.5370830000000 1.0
C      1  0.4717150000000  0.5298190000000  0.4591010000000 1.0
C      1  0.5318830000000  0.5101600000000  0.4493400000000 1.0
C      1  0.5059390000000  0.5016090000000  0.4350150000000 1.0
C      1  0.4906920000000  0.4932120000000  0.4828830000000 1.0
C      1  0.4736330000000  0.5418360000000  0.5248190000000 1.0
C      1  0.4391190000000  0.5802570000000  0.5165630000000 1.0
C      1  0.5309890000000  0.4620590000000  0.5371910000000 1.0
C      1  0.5372490000000  0.5317650000000  0.4953820000000 1.0
C      1  0.4941890000000  0.5733050000000  0.4562030000000 1.0
C      1  0.5915210000000  0.4707230000000  0.4839520000000 1.0
C      1  0.5555840000000  0.4805180000000  0.5359290000000 1.0
C      1  0.4540780000000  0.4517840000000  0.5479920000000 1.0
C      1  0.5641530000000  0.5800270000000  0.5571430000000 1.0
C      1  0.4487760000000  0.5096590000000  0.4589040000000 1.0
C      1  0.4788970000000  0.5853880000000  0.5469550000000 1.0
C      1  0.4184990000000  0.5515450000000  0.4898130000000 1.0
C      1  0.5001350000000  0.4692310000000  0.5352100000000 1.0
C      1  0.4144300000000  0.5665330000000  0.5132260000000 1.0
C      1  0.4313980000000  0.4517470000000  0.4275260000000 1.0
C      1  0.5763750000000  0.5759190000000  0.5071750000000 1.0
C      1  0.4420810000000  0.4405050000000  0.4751280000000 1.0
C      1  0.5364150000000  0.5735730000000  0.4742250000000 1.0
C      1  0.4579220000000  0.4394490000000  0.5206820000000 1.0
C      1  0.5746340000000  0.4406610000000  0.5438840000000 1.0
C      1  0.4447880000000  0.5043900000000  0.5895300000000 1.0
C      1  0.5649250000000  0.4869690000000  0.5075040000000 1.0
C      1  0.4648320000000  0.4213610000000  0.4714310000000 1.0
C      1  0.5621900000000  0.5032980000000  0.5779010000000 1.0
C      1  0.4088840000000  0.4565580000000  0.5092080000000 1.0
C      1  0.5308880000000  0.5332710000000  0.4120450000000 1.0
C      1  0.5194270000000  0.5570640000000  0.4551740000000 1.0
C      1  0.4696940000000  0.4181330000000  0.4410780000000 1.0
C      1  0.4496310000000  0.5799420000000  0.4674800000000 1.0
C      1  0.4710560000000  0.5057990000000  0.5507400000000 1.0
C      1  0.4288770000000  0.5362570000000  0.5422070000000 1.0
C      1  0.4967010000000  0.5288000000000  0.5126780000000 1.0
C      1  0.5495670000000  0.5064390000000  0.5502670000000 1.0
C      1  0.4104360000000  0.5246510000000  0.4843500000000 1.0
C      1  0.4075820000000  0.4946180000000  0.4422550000000 1.0
C      1  0.5731700000000  0.4324980000000  0.5153760000000 1.0
C      1  0.4067640000000  0.4722320000000  0.4619540000000 1.0
C      1  0.4635620000000  0.4092720000000  0.5153180000000 1.0
C      1  0.4927420000000  0.5099430000000  0.5942650000000 1.0
C      1  0.4922700000000  0.5225240000000  0.4812790000000 1.0
C      1  0.4229260000000  0.4488410000000  0.4551590000000 1.0
C      1  0.5297410000000  0.5593350000000  0.4259830000000 1.0
C      1  0.4718290000000  0.4714180000000  0.4373240000000 1.0
C      1  0.4133510000000  0.5018580000000  0.5040710000000 1.0
C      1  0.5633120000000  0.5190850000000  0.5051190000000 1.0
C      1  0.5171840000000  0.5195430000000  0.5820950000000 1.0
C      1  0.4921670000000  0.4290160000000  0.4870790000000 1.0
C      1  0.4239010000000  0.5656600000000  0.4650040000000 1.0
C      1  0.5226880000000  0.3898240000000  0.4775240000000 1.0
C      1  0.5220050000000  0.4231790000000  0.4416900000000 1.0
C      1  0.4817080000000  0.4586820000000  0.5585520000000 1.0
C      1  0.6108620000000  0.5252300000000  0.5042150000000 1.0
C      1  0.4855940000000  0.4639500000000  0.4117180000000 1.0
C      1  0.5823050000000  0.5461950000000  0.5908140000000 1.0
C      1  0.4118440000000  0.5148420000000  0.5542940000000 1.0
C      1  0.3983670000000  0.4993500000000  0.5321410000000 1.0
C      1  0.5013330000000  0.4882550000000  0.6112990000000 1.0
C      1  0.4015050000000  0.4778040000000  0.4904070000000 1.0
C      1  0.4475490000000  0.5400350000000  0.4110940000000 1.0
C      1  0.5870230000000  0.5307210000000  0.4890680000000 1.0
C      1  0.5351800000000  0.4716330000000  0.4147800000000 1.0
C      1  0.5339790000000  0.4163070000000  0.5372860000000 1.0
C      1  0.4249170000000  0.5468340000000  0.4412700000000 1.0
C      1  0.4820010000000  0.4571670000000  0.5098540000000 1.0
C      1  0.5635130000000  0.5802830000000  0.5303390000000 1.0
C      1  0.5841470000000  0.5606470000000  0.4851050000000 1.0
C      1  0.5488050000000  0.4164010000000  0.5118540000000 1.0
C      1  0.4825610000000  0.5773510000000  0.4279760000000 1.0
C      1  0.5203270000000  0.5297430000000  0.4699140000000 1.0
C      1  0.4584770000000  0.4383930000000  0.4221470000000 1.0
C      1  0.5044500000000  0.5703720000000  0.4088310000000 1.0
C      1  0.5351400000000  0.4515510000000  0.4386820000000 1.0
C      1  0.4715180000000  0.5593920000000  0.4675150000000 1.0
C      1  0.4680740000000  0.5167840000000  0.5780860000000 1.0
C      1  0.5904730000000  0.5296140000000  0.5471150000000 1.0
C      1  0.4862700000000  0.5244580000000  0.4325360000000 1.0
C      1  0.4649650000000  0.5472700000000  0.5738210000000 1.0
C      1  0.4963280000000  0.4165670000000  0.4333630000000 1.0
C      1  0.4966800000000  0.5886940000000  0.5223710000000 1.0
C      1  0.5075630000000  0.5426380000000  0.3984410000000 1.0
C      1  0.5727030000000  0.4999540000000  0.4412250000000 1.0
C      1  0.5452460000000  0.4397420000000  0.5530070000000 1.0
C      1  0.5114300000000  0.5636990000000  0.5177600000000 1.0
C      1  0.4480780000000  0.5831430000000  0.5443800000000 1.0
C      1  0.4539970000000  0.5934370000000  0.4941420000000 1.0
C      1  0.5662920000000  0.5272920000000  0.4560710000000 1.0
C      1  0.5294120000000  0.4896740000000  0.6148530000000 1.0
C      1  0.4353590000000  0.4457120000000  0.5023900000000 1.0
C      1  0.4677030000000  0.4814040000000  0.4981930000000 1.0
C      1  0.4564250000000  0.3991460000000  0.4891340000000 1.0
C      1  0.5462530000000  0.4520720000000  0.5814490000000 1.0
C      1  0.5080620000000  0.4828880000000  0.4102440000000 1.0
C      1  0.5031180000000  0.5947410000000  0.4744840000000 1.0
C      1  0.4642780000000  0.5166470000000  0.4142330000000 1.0
C      1  0.4307940000000  0.4952110000000  0.5665820000000 1.0
C      1  0.4209290000000  0.5192240000000  0.4564020000000 1.0
C      1  0.4080040000000  0.4697660000000  0.5356990000000 1.0
C      1  0.4944370000000  0.4221790000000  0.5636150000000 1.0
C      1  0.4368000000000  0.4764950000000  0.5425550000000 1.0
C      1  0.5798070000000  0.4684030000000  0.5514480000000 1.0
C      1  0.4450150000000  0.4954550000000  0.5151510000000 1.0
C      1  0.5696200000000  0.4333570000000  0.4711000000000 1.0
C      1  0.4947940000000  0.4814360000000  0.4545590000000 1.0
C      1  0.5862850000000  0.5227110000000  0.5761290000000 1.0
C      1  0.4982680000000  0.5030850000000  0.5364290000000 1.0
C      1  0.4538700000000  0.5208300000000  0.5319310000000 1.0
C      1  0.5791590000000  0.4750580000000  0.4564320000000 1.0
END
