TITL C-951333-8791-641 1.83049780612777e-06 125000 -1251.80507396269 0 0 200 (C1) n - 1
REM
REM in /home/bkarasulu/work/CARBON/AIRSS/Generating-Clusters/EDIP-Nigel-Params/with-SteepDescent/Only-C1/SD-CG/HFTN-CG
REM
REM
REM
REM
REM
REM ./C.cell (11c1c37f851c82e70ff6c80c92926a4b)
REM
REM compiler GCC version 9.2.1 20190827 (Red Hat 9.2.1-1)
REM options -cpp -mtune=generic -march=x86-64 -g -O0 -fpre-include=/usr/include/finclude/math-vector-fortran.h
REM seed 534191851 -405775601 1911220947 1873661132 -700507693 575658500 1136609918 1423018077 -1685440299 480944997 -199540400 1361230216 1231295771 1302901449 360480512 -883274638 276201364 1267274820 732831102 975772213 -240540216 -231393007 -1584667368 -1073570958 1790693155 -205159576 -1882508373 15623451 2142127613 115621111 -679752316 -546889203 152215328
REM
CELL 1.54180   50.00000   50.00000   50.00000   90.00000   90.00000   90.00000
LATT -1
SFAC C  
C      1  0.6085750000000  0.4856180000000  0.4954670000000 1.0
C      1  0.5540510000000  0.4259800000000  0.5760740000000 1.0
C      1  0.5113480000000  0.5208060000000  0.4812040000000 1.0
C      1  0.4273250000000  0.4698610000000  0.4289900000000 1.0
C      1  0.4798900000000  0.6119530000000  0.5576990000000 1.0
C      1  0.6078550000000  0.4643440000000  0.4740330000000 1.0
C      1  0.4272340000000  0.4928260000000  0.5725180000000 1.0
C      1  0.3912820000000  0.4630910000000  0.4635610000000 1.0
C      1  0.5471290000000  0.5831630000000  0.5758380000000 1.0
C      1  0.3798840000000  0.5072970000000  0.4884320000000 1.0
C      1  0.4276880000000  0.4303360000000  0.4568720000000 1.0
C      1  0.4612130000000  0.5737860000000  0.5695290000000 1.0
C      1  0.5199840000000  0.4866400000000  0.3965040000000 1.0
C      1  0.4522000000000  0.4031270000000  0.5726050000000 1.0
C      1  0.5190490000000  0.5906770000000  0.5116610000000 1.0
C      1  0.5571200000000  0.5923960000000  0.4599190000000 1.0
C      1  0.4238030000000  0.4923780000000  0.4852290000000 1.0
C      1  0.4456630000000  0.5345640000000  0.5930190000000 1.0
C      1  0.5951620000000  0.4422560000000  0.5153950000000 1.0
C      1  0.4536480000000  0.3924190000000  0.4991820000000 1.0
C      1  0.5853690000000  0.4241130000000  0.5372590000000 1.0
C      1  0.4606080000000  0.6010370000000  0.4711560000000 1.0
C      1  0.5845970000000  0.5608010000000  0.4336550000000 1.0
C      1  0.5071590000000  0.4196810000000  0.4071430000000 1.0
C      1  0.4178100000000  0.5428250000000  0.4179150000000 1.0
C      1  0.4582410000000  0.5466920000000  0.5521750000000 1.0
C      1  0.5100410000000  0.5123670000000  0.3845390000000 1.0
C      1  0.4795280000000  0.4730060000000  0.4827120000000 1.0
C      1  0.4452470000000  0.5957260000000  0.4957820000000 1.0
C      1  0.4209190000000  0.4984160000000  0.4266330000000 1.0
C      1  0.6058780000000  0.5124370000000  0.5602610000000 1.0
C      1  0.4446390000000  0.5120430000000  0.4709980000000 1.0
C      1  0.4887630000000  0.5511730000000  0.6019590000000 1.0
C      1  0.3814580000000  0.4610770000000  0.5114750000000 1.0
C      1  0.5388460000000  0.6091310000000  0.4995820000000 1.0
C      1  0.4685320000000  0.5166480000000  0.5102390000000 1.0
C      1  0.5513280000000  0.4153940000000  0.5107800000000 1.0
C      1  0.5605340000000  0.5769270000000  0.4346780000000 1.0
C      1  0.4955860000000  0.6232400000000  0.5375270000000 1.0
C      1  0.5299740000000  0.3890130000000  0.4748770000000 1.0
C      1  0.4626370000000  0.4841160000000  0.6030220000000 1.0
C      1  0.5136380000000  0.5083710000000  0.6139950000000 1.0
C      1  0.5457300000000  0.5461660000000  0.5118010000000 1.0
C      1  0.4278540000000  0.4037140000000  0.4989270000000 1.0
C      1  0.4754360000000  0.4842210000000  0.3979090000000 1.0
C      1  0.5830290000000  0.5328190000000  0.4283000000000 1.0
C      1  0.5247520000000  0.4960480000000  0.5646650000000 1.0
C      1  0.4569930000000  0.4331280000000  0.5367270000000 1.0
C      1  0.5468390000000  0.4202200000000  0.4315000000000 1.0
C      1  0.4683190000000  0.5147330000000  0.4298260000000 1.0
C      1  0.4422030000000  0.5538560000000  0.5288330000000 1.0
C      1  0.4859170000000  0.5620950000000  0.5074970000000 1.0
C      1  0.5248150000000  0.4896040000000  0.4273160000000 1.0
C      1  0.5728400000000  0.4803170000000  0.4705240000000 1.0
C      1  0.4974650000000  0.4654840000000  0.3930670000000 1.0
C      1  0.5981460000000  0.4712210000000  0.5197830000000 1.0
C      1  0.4630050000000  0.5974580000000  0.5193730000000 1.0
C      1  0.5171410000000  0.5438930000000  0.5460360000000 1.0
C      1  0.3954350000000  0.5055310000000  0.4394660000000 1.0
C      1  0.5905740000000  0.4856150000000  0.4458050000000 1.0
C      1  0.4905330000000  0.5580020000000  0.5409120000000 1.0
C      1  0.5727240000000  0.4774530000000  0.4214740000000 1.0
C      1  0.5503880000000  0.4613080000000  0.4630990000000 1.0
C      1  0.4102120000000  0.4509800000000  0.4438670000000 1.0
C      1  0.4587360000000  0.4402200000000  0.5065870000000 1.0
C      1  0.5392900000000  0.5215760000000  0.4651410000000 1.0
C      1  0.5672930000000  0.5410620000000  0.5598860000000 1.0
C      1  0.5168490000000  0.5852470000000  0.5816250000000 1.0
C      1  0.5344810000000  0.6081050000000  0.4699220000000 1.0
C      1  0.5752010000000  0.5430760000000  0.5890560000000 1.0
C      1  0.4783390000000  0.4144980000000  0.4613170000000 1.0
C      1  0.5084650000000  0.5714440000000  0.6057370000000 1.0
C      1  0.4056150000000  0.4831320000000  0.5560970000000 1.0
C      1  0.5666010000000  0.5173190000000  0.6033300000000 1.0
C      1  0.4401420000000  0.4464490000000  0.5826970000000 1.0
C      1  0.5468410000000  0.4796580000000  0.3847290000000 1.0
C      1  0.4918290000000  0.5126190000000  0.5277820000000 1.0
C      1  0.4553040000000  0.4655360000000  0.4373020000000 1.0
C      1  0.4920720000000  0.6052750000000  0.5157460000000 1.0
C      1  0.5005500000000  0.4092000000000  0.5455100000000 1.0
C      1  0.4594850000000  0.5457100000000  0.5055070000000 1.0
C      1  0.4421350000000  0.5143800000000  0.4412100000000 1.0
C      1  0.4854460000000  0.5817730000000  0.4248300000000 1.0
C      1  0.5920930000000  0.5314610000000  0.5455710000000 1.0
C      1  0.4650670000000  0.3806170000000  0.5219270000000 1.0
C      1  0.4029970000000  0.5457120000000  0.4635950000000 1.0
C      1  0.5816930000000  0.5469340000000  0.4695510000000 1.0
C      1  0.4938990000000  0.5852740000000  0.5607260000000 1.0
C      1  0.5288000000000  0.4195080000000  0.4726190000000 1.0
C      1  0.4154200000000  0.5433160000000  0.5290660000000 1.0
C      1  0.5332560000000  0.5181020000000  0.4348700000000 1.0
C      1  0.5471430000000  0.4432830000000  0.5976780000000 1.0
C      1  0.5244730000000  0.5361860000000  0.3826120000000 1.0
C      1  0.5340430000000  0.5277650000000  0.5652720000000 1.0
C      1  0.5340640000000  0.3611990000000  0.4698700000000 1.0
C      1  0.4481610000000  0.5039060000000  0.5266290000000 1.0
C      1  0.3981880000000  0.5350670000000  0.4374410000000 1.0
C      1  0.4546940000000  0.4216470000000  0.4438960000000 1.0
C      1  0.5685680000000  0.4926530000000  0.5869370000000 1.0
C      1  0.5337950000000  0.5616230000000  0.4900910000000 1.0
C      1  0.5804190000000  0.4542730000000  0.4045270000000 1.0
C      1  0.4647460000000  0.4407700000000  0.4231370000000 1.0
C      1  0.5792500000000  0.5945940000000  0.4794770000000 1.0
C      1  0.4955720000000  0.4468310000000  0.6081740000000 1.0
C      1  0.5953870000000  0.5153920000000  0.4501120000000 1.0
C      1  0.4639790000000  0.4281410000000  0.5833620000000 1.0
C      1  0.5573510000000  0.4606450000000  0.5445900000000 1.0
C      1  0.4822210000000  0.5038970000000  0.5553270000000 1.0
C      1  0.5281630000000  0.4080880000000  0.5545140000000 1.0
C      1  0.4993580000000  0.4965870000000  0.5804560000000 1.0
C      1  0.4044730000000  0.4550980000000  0.5489180000000 1.0
C      1  0.5452760000000  0.4684920000000  0.4330610000000 1.0
C      1  0.4534710000000  0.5130970000000  0.5551400000000 1.0
C      1  0.5076390000000  0.5488870000000  0.4895090000000 1.0
C      1  0.5108100000000  0.3734350000000  0.4581230000000 1.0
C      1  0.4457680000000  0.5487530000000  0.4132130000000 1.0
C      1  0.5950730000000  0.5699460000000  0.4834840000000 1.0
C      1  0.5875200000000  0.4917180000000  0.5642360000000 1.0
C      1  0.5295880000000  0.4329540000000  0.4994060000000 1.0
C      1  0.4189350000000  0.4357170000000  0.5652090000000 1.0
C      1  0.5070650000000  0.6032930000000  0.4617340000000 1.0
C      1  0.4975370000000  0.4573060000000  0.5357070000000 1.0
C      1  0.5717660000000  0.4391930000000  0.5578610000000 1.0
C      1  0.4894890000000  0.5243660000000  0.6123570000000 1.0
C      1  0.4682150000000  0.5544150000000  0.4581250000000 1.0
C      1  0.4846720000000  0.4340410000000  0.5510500000000 1.0
C      1  0.4145480000000  0.4222320000000  0.4822590000000 1.0
C      1  0.5932470000000  0.5334050000000  0.5154770000000 1.0
C      1  0.5245160000000  0.4732960000000  0.5421310000000 1.0
C      1  0.5347680000000  0.5629080000000  0.5331430000000 1.0
C      1  0.4452540000000  0.5438780000000  0.4764750000000 1.0
C      1  0.5632070000000  0.5087070000000  0.4795000000000 1.0
C      1  0.3963750000000  0.4924560000000  0.4677860000000 1.0
C      1  0.4590190000000  0.5676510000000  0.4324130000000 1.0
C      1  0.5571660000000  0.5243750000000  0.4151340000000 1.0
C      1  0.5183920000000  0.4077090000000  0.4309370000000 1.0
C      1  0.4365920000000  0.4155310000000  0.5510870000000 1.0
C      1  0.5014690000000  0.4819630000000  0.4422520000000 1.0
C      1  0.6030920000000  0.5153610000000  0.4870860000000 1.0
C      1  0.5679350000000  0.6023360000000  0.5060030000000 1.0
C      1  0.5221430000000  0.4403100000000  0.6081760000000 1.0
C      1  0.4618130000000  0.5589210000000  0.5948280000000 1.0
C      1  0.3888620000000  0.5372960000000  0.4874090000000 1.0
C      1  0.4797440000000  0.5785620000000  0.4741030000000 1.0
C      1  0.5315760000000  0.5434080000000  0.5945490000000 1.0
C      1  0.4386920000000  0.4741060000000  0.5907770000000 1.0
C      1  0.5574060000000  0.4994560000000  0.5227630000000 1.0
C      1  0.5686650000000  0.4020430000000  0.4925170000000 1.0
C      1  0.5989790000000  0.4381750000000  0.4861970000000 1.0
C      1  0.4891610000000  0.3896030000000  0.4492310000000 1.0
C      1  0.4541670000000  0.6038480000000  0.5465310000000 1.0
C      1  0.4647040000000  0.5134300000000  0.6021250000000 1.0
C      1  0.5379250000000  0.5700800000000  0.4154530000000 1.0
C      1  0.3973770000000  0.4483860000000  0.4883350000000 1.0
C      1  0.4812270000000  0.4597640000000  0.5102800000000 1.0
C      1  0.5320830000000  0.4856240000000  0.5143610000000 1.0
C      1  0.5110820000000  0.5650380000000  0.4292090000000 1.0
C      1  0.4754060000000  0.4862010000000  0.4275680000000 1.0
C      1  0.4859020000000  0.5290220000000  0.4504950000000 1.0
C      1  0.4044210000000  0.5345320000000  0.5544850000000 1.0
C      1  0.5368220000000  0.4437160000000  0.4148760000000 1.0
C      1  0.4223970000000  0.5353240000000  0.5763760000000 1.0
C      1  0.4223960000000  0.5020940000000  0.5145200000000 1.0
C      1  0.4927550000000  0.4432940000000  0.4120200000000 1.0
C      1  0.5456230000000  0.5463140000000  0.3978810000000 1.0
C      1  0.3996590000000  0.5029130000000  0.5345010000000 1.0
C      1  0.5796780000000  0.4191790000000  0.4731000000000 1.0
C      1  0.5293650000000  0.4626930000000  0.4871870000000 1.0
C      1  0.3819890000000  0.4464570000000  0.5352310000000 1.0
C      1  0.4213160000000  0.5766350000000  0.4927590000000 1.0
C      1  0.5547640000000  0.4507350000000  0.3910910000000 1.0
C      1  0.5035370000000  0.4320350000000  0.4575520000000 1.0
C      1  0.4647430000000  0.5338510000000  0.3962830000000 1.0
C      1  0.4859790000000  0.6059100000000  0.4420470000000 1.0
C      1  0.5384010000000  0.5232980000000  0.6155930000000 1.0
C      1  0.5584800000000  0.5697670000000  0.5500260000000 1.0
C      1  0.3789040000000  0.4917380000000  0.5145950000000 1.0
C      1  0.4569700000000  0.4617330000000  0.4677890000000 1.0
C      1  0.5956160000000  0.5635260000000  0.5118900000000 1.0
C      1  0.5584040000000  0.4687150000000  0.5974200000000 1.0
C      1  0.4861250000000  0.3864510000000  0.5379330000000 1.0
C      1  0.4345450000000  0.4601840000000  0.4880150000000 1.0
C      1  0.4734420000000  0.5038590000000  0.4820190000000 1.0
C      1  0.5515100000000  0.4054010000000  0.5378110000000 1.0
C      1  0.5648170000000  0.5229410000000  0.5077790000000 1.0
C      1  0.5552330000000  0.5640110000000  0.5970780000000 1.0
C      1  0.4180770000000  0.5691620000000  0.4656640000000 1.0
C      1  0.4811950000000  0.5113310000000  0.3875820000000 1.0
C      1  0.5652110000000  0.4983900000000  0.4010190000000 1.0
C      1  0.5503310000000  0.5493340000000  0.4677900000000 1.0
C      1  0.4870490000000  0.4703800000000  0.5933370000000 1.0
C      1  0.5115130000000  0.5049870000000  0.5073340000000 1.0
C      1  0.5035580000000  0.4638400000000  0.4666660000000 1.0
C      1  0.5778780000000  0.5824720000000  0.5276110000000 1.0
C      1  0.4701220000000  0.4148650000000  0.4910880000000 1.0
C      1  0.5765100000000  0.4819510000000  0.5377620000000 1.0
C      1  0.5546690000000  0.4302260000000  0.4589410000000 1.0
C      1  0.5084320000000  0.5361800000000  0.4322480000000 1.0
C      1  0.4013290000000  0.5565300000000  0.5074300000000 1.0
C      1  0.4771850000000  0.4258900000000  0.6091080000000 1.0
END
