TITL C-950529-3362-638 -1.06297823528932e-06 125000 -896.586513273994 0 0 143 (C1) n - 1
REM
REM in /home/bkarasulu/work/CARBON/AIRSS/Generating-Clusters/EDIP-Nigel-Params/with-SteepDescent/Only-C1/SD-CG/HFTN-CG
REM
REM
REM
REM
REM
REM ./C.cell (11c1c37f851c82e70ff6c80c92926a4b)
REM
REM compiler GCC version 9.2.1 20190827 (Red Hat 9.2.1-1)
REM options -cpp -mtune=generic -march=x86-64 -g -O0 -fpre-include=/usr/include/finclude/math-vector-fortran.h
REM seed -945108867 -666954085 139375471 -1898137361 211985630 -2063447998 1344617157 -1547137141 -654665439 -427956626 1582078527 544515347 -1985681238 -1669787874 -145164438 -262776697 -1642018579 -255265795 97974811 -69740089 2136805747 -1716583345 937087454 -1835136756 -485212578 1756348902 866564356 -1952928772 -841532489 150261726 -384006156 -1302379694 -279507433
REM
CELL 1.54180   50.00000   50.00000   50.00000   90.00000   90.00000   90.00000
LATT -1
SFAC C  
C      1  0.5126880000000  0.4699310000000  0.4449000000000 1.0
C      1  0.4892980000000  0.5962690000000  0.5183370000000 1.0
C      1  0.5782330000000  0.4315680000000  0.5425040000000 1.0
C      1  0.5647120000000  0.4945620000000  0.5792090000000 1.0
C      1  0.5109870000000  0.5541570000000  0.5299230000000 1.0
C      1  0.5633610000000  0.4195920000000  0.4733480000000 1.0
C      1  0.5299290000000  0.5263540000000  0.5650030000000 1.0
C      1  0.5212330000000  0.4232750000000  0.5313310000000 1.0
C      1  0.4435280000000  0.5297240000000  0.5657430000000 1.0
C      1  0.5188710000000  0.5266200000000  0.5379030000000 1.0
C      1  0.4934730000000  0.4888080000000  0.5886580000000 1.0
C      1  0.4453510000000  0.4822770000000  0.4135650000000 1.0
C      1  0.4824280000000  0.4500470000000  0.4156090000000 1.0
C      1  0.5001180000000  0.4654720000000  0.5398120000000 1.0
C      1  0.4884950000000  0.5472690000000  0.5734110000000 1.0
C      1  0.4327040000000  0.4152820000000  0.5276040000000 1.0
C      1  0.4191370000000  0.5658240000000  0.5055210000000 1.0
C      1  0.4693060000000  0.4951370000000  0.4411670000000 1.0
C      1  0.4767290000000  0.4226440000000  0.5516040000000 1.0
C      1  0.5060810000000  0.4781000000000  0.4158890000000 1.0
C      1  0.4890870000000  0.5071280000000  0.4212590000000 1.0
C      1  0.5854780000000  0.5357960000000  0.5512240000000 1.0
C      1  0.5422860000000  0.4094480000000  0.5145140000000 1.0
C      1  0.4178140000000  0.4976790000000  0.5320450000000 1.0
C      1  0.5119890000000  0.5355880000000  0.5875610000000 1.0
C      1  0.4146770000000  0.4854270000000  0.5784220000000 1.0
C      1  0.4596330000000  0.3882580000000  0.5010550000000 1.0
C      1  0.5290570000000  0.5296380000000  0.4162590000000 1.0
C      1  0.4457530000000  0.4243070000000  0.4571840000000 1.0
C      1  0.5219600000000  0.5112280000000  0.4622110000000 1.0
C      1  0.4117470000000  0.5318300000000  0.4533510000000 1.0
C      1  0.4134960000000  0.4687500000000  0.5304330000000 1.0
C      1  0.5181960000000  0.4506140000000  0.5217930000000 1.0
C      1  0.4719870000000  0.5295530000000  0.5267550000000 1.0
C      1  0.5733520000000  0.5614540000000  0.5516040000000 1.0
C      1  0.5676650000000  0.4648100000000  0.5741800000000 1.0
C      1  0.4306290000000  0.5311360000000  0.4779620000000 1.0
C      1  0.4467220000000  0.4515040000000  0.4487500000000 1.0
C      1  0.4933840000000  0.4104130000000  0.5303490000000 1.0
C      1  0.5798790000000  0.4312030000000  0.4950440000000 1.0
C      1  0.4745940000000  0.4156300000000  0.4560210000000 1.0
C      1  0.5583480000000  0.4398540000000  0.4540800000000 1.0
C      1  0.5153550000000  0.4333890000000  0.4770390000000 1.0
C      1  0.4923720000000  0.4282600000000  0.4335080000000 1.0
C      1  0.6007810000000  0.5014990000000  0.4887310000000 1.0
C      1  0.4333600000000  0.4755460000000  0.5979070000000 1.0
C      1  0.5763500000000  0.4772060000000  0.5248190000000 1.0
C      1  0.4958220000000  0.4445240000000  0.5630460000000 1.0
C      1  0.4261580000000  0.5239920000000  0.4287790000000 1.0
C      1  0.5024620000000  0.4610370000000  0.5884770000000 1.0
C      1  0.4037090000000  0.4973890000000  0.4877820000000 1.0
C      1  0.4047650000000  0.4600220000000  0.4594780000000 1.0
C      1  0.4902530000000  0.5599340000000  0.4181400000000 1.0
C      1  0.5190180000000  0.6022460000000  0.5217320000000 1.0
C      1  0.5220390000000  0.5535900000000  0.4840210000000 1.0
C      1  0.4789320000000  0.4982730000000  0.5654620000000 1.0
C      1  0.4483070000000  0.5375460000000  0.4186870000000 1.0
C      1  0.5572280000000  0.5485600000000  0.4533520000000 1.0
C      1  0.4720630000000  0.5264910000000  0.5579940000000 1.0
C      1  0.4600430000000  0.5203810000000  0.4570620000000 1.0
C      1  0.5607800000000  0.5829360000000  0.5376270000000 1.0
C      1  0.5807620000000  0.5764260000000  0.4885880000000 1.0
C      1  0.5792440000000  0.5289320000000  0.4510940000000 1.0
C      1  0.4751090000000  0.5354390000000  0.4114060000000 1.0
C      1  0.5991450000000  0.5297340000000  0.5262660000000 1.0
C      1  0.5190630000000  0.5857060000000  0.5676820000000 1.0
C      1  0.4792850000000  0.5850430000000  0.4918750000000 1.0
C      1  0.5706640000000  0.5038770000000  0.4403200000000 1.0
C      1  0.5279340000000  0.4783700000000  0.5554370000000 1.0
C      1  0.5473400000000  0.4666680000000  0.4798230000000 1.0
C      1  0.5434940000000  0.5081080000000  0.4056880000000 1.0
C      1  0.5940250000000  0.5279610000000  0.4767090000000 1.0
C      1  0.5283570000000  0.4275370000000  0.5605250000000 1.0
C      1  0.3957440000000  0.5079390000000  0.4618560000000 1.0
C      1  0.5074060000000  0.5099660000000  0.6023770000000 1.0
C      1  0.4516690000000  0.4618430000000  0.5802360000000 1.0
C      1  0.4471870000000  0.5761400000000  0.5438980000000 1.0
C      1  0.4075350000000  0.5139210000000  0.5111100000000 1.0
C      1  0.4092640000000  0.4687040000000  0.4860020000000 1.0
C      1  0.5922500000000  0.4764310000000  0.4760380000000 1.0
C      1  0.4860550000000  0.4265430000000  0.4813230000000 1.0
C      1  0.5831190000000  0.4793180000000  0.4475840000000 1.0
C      1  0.5537810000000  0.4636450000000  0.4130130000000 1.0
C      1  0.4952190000000  0.5443540000000  0.4856180000000 1.0
C      1  0.4543780000000  0.5086830000000  0.4850430000000 1.0
C      1  0.5631630000000  0.5454360000000  0.5145160000000 1.0
C      1  0.4039480000000  0.4848120000000  0.4449570000000 1.0
C      1  0.5704440000000  0.4563390000000  0.4344960000000 1.0
C      1  0.5334410000000  0.5627380000000  0.5095130000000 1.0
C      1  0.4828870000000  0.5418280000000  0.4579930000000 1.0
C      1  0.4557870000000  0.4605570000000  0.5043990000000 1.0
C      1  0.4266950000000  0.4956060000000  0.4301430000000 1.0
C      1  0.4912110000000  0.5909800000000  0.4630680000000 1.0
C      1  0.5488740000000  0.4900540000000  0.5350090000000 1.0
C      1  0.5369490000000  0.4119450000000  0.4851930000000 1.0
C      1  0.4488270000000  0.4290540000000  0.5456320000000 1.0
C      1  0.5374270000000  0.4540040000000  0.5733880000000 1.0
C      1  0.5977620000000  0.5003990000000  0.5181550000000 1.0
C      1  0.4869530000000  0.4788130000000  0.4618760000000 1.0
C      1  0.5320840000000  0.5078370000000  0.5174480000000 1.0
C      1  0.5209780000000  0.4607820000000  0.4945130000000 1.0
C      1  0.4493180000000  0.5772330000000  0.4682320000000 1.0
C      1  0.5391540000000  0.5332900000000  0.4743960000000 1.0
C      1  0.4702150000000  0.4542680000000  0.4783590000000 1.0
C      1  0.5155520000000  0.5913710000000  0.4490240000000 1.0
C      1  0.5737570000000  0.5102070000000  0.5569530000000 1.0
C      1  0.5399380000000  0.4861780000000  0.4550890000000 1.0
C      1  0.5402160000000  0.5537130000000  0.4281930000000 1.0
C      1  0.4262550000000  0.4523600000000  0.5060490000000 1.0
C      1  0.5084410000000  0.5244790000000  0.4381430000000 1.0
C      1  0.5742770000000  0.4617020000000  0.4952680000000 1.0
C      1  0.4562700000000  0.4822800000000  0.5566380000000 1.0
C      1  0.4360930000000  0.4030810000000  0.5029810000000 1.0
C      1  0.4350290000000  0.4421950000000  0.5668670000000 1.0
C      1  0.5125060000000  0.4896500000000  0.5020580000000 1.0
C      1  0.4760990000000  0.5844170000000  0.5424370000000 1.0
C      1  0.5707820000000  0.4176800000000  0.5194860000000 1.0
C      1  0.4726670000000  0.5053240000000  0.5094440000000 1.0
C      1  0.4696610000000  0.4779230000000  0.5252740000000 1.0
C      1  0.5822760000000  0.4583990000000  0.5485960000000 1.0
C      1  0.4067400000000  0.5417890000000  0.5126170000000 1.0
C      1  0.4553660000000  0.4575740000000  0.4222570000000 1.0
C      1  0.4985630000000  0.5688870000000  0.5552890000000 1.0
C      1  0.5342440000000  0.4817580000000  0.4044980000000 1.0
C      1  0.5911360000000  0.5498260000000  0.4983150000000 1.0
C      1  0.4979880000000  0.5010310000000  0.4800840000000 1.0
C      1  0.4803340000000  0.4071490000000  0.5040480000000 1.0
C      1  0.4311910000000  0.5018620000000  0.5583150000000 1.0
C      1  0.5341830000000  0.5933340000000  0.5452650000000 1.0
C      1  0.5675440000000  0.5733480000000  0.4641570000000 1.0
C      1  0.5382130000000  0.5993680000000  0.5001210000000 1.0
C      1  0.5505950000000  0.5229840000000  0.4997580000000 1.0
C      1  0.5654130000000  0.5921090000000  0.5090150000000 1.0
C      1  0.4380050000000  0.5585230000000  0.4859490000000 1.0
C      1  0.4725190000000  0.5710620000000  0.4507180000000 1.0
C      1  0.5347420000000  0.4993650000000  0.5772580000000 1.0
C      1  0.4122800000000  0.4602760000000  0.5595500000000 1.0
C      1  0.4855030000000  0.5528160000000  0.5128610000000 1.0
C      1  0.4314910000000  0.4228200000000  0.4829450000000 1.0
C      1  0.5147080000000  0.5681560000000  0.4329900000000 1.0
C      1  0.4374310000000  0.5566470000000  0.5615230000000 1.0
C      1  0.4285260000000  0.5837900000000  0.5246920000000 1.0
C      1  0.5151310000000  0.4403240000000  0.4477420000000 1.0
END
