TITL C-951336-9012-362 3.05289962472253e-07 125000 -106.964625636081 0 0 19 (C1) n - 1
REM
REM in /home/bkarasulu/work/CARBON/AIRSS/Generating-Clusters/EDIP-Nigel-Params/with-SteepDescent/Only-C1/SD-CG/HFTN-CG
REM
REM
REM
REM
REM
REM ./C.cell (11c1c37f851c82e70ff6c80c92926a4b)
REM
REM compiler GCC version 9.2.1 20190827 (Red Hat 9.2.1-1)
REM options -cpp -mtune=generic -march=x86-64 -g -O0 -fpre-include=/usr/include/finclude/math-vector-fortran.h
REM seed 1185853878 -1010530800 1105387639 -822935248 -1229793179 -818035178 -1326634138 -701314364 -1211677823 -471105695 405450159 1854561241 1471292325 -246157976 1192813482 1423077887 183594444 231200876 173196330 619715841 -1757785220 50667827 1412577673 -1499129284 -835855238 2056015928 721431355 -959645780 -395326178 1924201141 -291227092 -432147754 -625826206
REM
CELL 1.54180   50.00000   50.00000   50.00000   90.00000   90.00000   90.00000
LATT -1
SFAC C  
C      1  0.4819880000000  0.4620850000000  0.4740670000000 1.0
C      1  0.5351090000000  0.5451350000000  0.5082440000000 1.0
C      1  0.4964360000000  0.4540170000000  0.4992550000000 1.0
C      1  0.4826430000000  0.4964990000000  0.4388640000000 1.0
C      1  0.4690490000000  0.5029350000000  0.4621260000000 1.0
C      1  0.5108270000000  0.4953390000000  0.5326180000000 1.0
C      1  0.5326620000000  0.4848280000000  0.5155780000000 1.0
C      1  0.4624700000000  0.4864580000000  0.5107570000000 1.0
C      1  0.4959060000000  0.4769150000000  0.4532870000000 1.0
C      1  0.5237520000000  0.4621310000000  0.5012470000000 1.0
C      1  0.4660670000000  0.5127660000000  0.5215130000000 1.0
C      1  0.4957180000000  0.4740290000000  0.5440770000000 1.0
C      1  0.5146500000000  0.5683420000000  0.5004290000000 1.0
C      1  0.4616510000000  0.4822490000000  0.4810850000000 1.0
C      1  0.4939550000000  0.5163720000000  0.5204150000000 1.0
C      1  0.4800610000000  0.4649750000000  0.5221520000000 1.0
C      1  0.5427250000000  0.5706310000000  0.4985650000000 1.0
C      1  0.5055940000000  0.5413340000000  0.5112100000000 1.0
C      1  0.5487380000000  0.5029610000000  0.5045110000000 1.0
END
