TITL C-951340-9809-130 -1.70553780625166e-06 125000 -817.235131761706 0 0 131 (C1) n - 1
REM
REM in /home/bkarasulu/work/CARBON/AIRSS/Generating-Clusters/EDIP-Nigel-Params/with-SteepDescent/Only-C1/SD-CG/HFTN-CG
REM
REM
REM
REM
REM
REM ./C.cell (11c1c37f851c82e70ff6c80c92926a4b)
REM
REM compiler GCC version 9.2.1 20190827 (Red Hat 9.2.1-1)
REM options -cpp -mtune=generic -march=x86-64 -g -O0 -fpre-include=/usr/include/finclude/math-vector-fortran.h
REM seed 260822249 1509713923 1436293614 -1823841876 642569309 162269555 1194842271 -857406761 1542476654 -138403937 -33210337 -663667004 777413893 1742544885 -1993863443 -1002948311 -123621532 1129456198 759553678 -475174317 112803879 1648662864 -1819454401 -1803183364 791297668 2121808774 2020036453 334575096 947662126 1345109184 -2083895595 1924854761 -1215992098
REM
CELL 1.54180   50.00000   50.00000   50.00000   90.00000   90.00000   90.00000
LATT -1
SFAC C  
C      1  0.5652170000000  0.5609900000000  0.5306290000000 1.0
C      1  0.5202540000000  0.5489380000000  0.4386900000000 1.0
C      1  0.4613010000000  0.5201330000000  0.5210790000000 1.0
C      1  0.4948750000000  0.4776300000000  0.5295550000000 1.0
C      1  0.5247570000000  0.5242200000000  0.4846510000000 1.0
C      1  0.4863960000000  0.5662990000000  0.4437190000000 1.0
C      1  0.4463440000000  0.4260350000000  0.4564760000000 1.0
C      1  0.4925620000000  0.4365760000000  0.4462050000000 1.0
C      1  0.4902590000000  0.5229280000000  0.4005250000000 1.0
C      1  0.4513670000000  0.4345910000000  0.5446410000000 1.0
C      1  0.4503120000000  0.4859310000000  0.5674500000000 1.0
C      1  0.4623180000000  0.4837760000000  0.4816370000000 1.0
C      1  0.5430510000000  0.5426440000000  0.5721430000000 1.0
C      1  0.4772950000000  0.4754000000000  0.4136420000000 1.0
C      1  0.4973700000000  0.5059970000000  0.4476300000000 1.0
C      1  0.5131310000000  0.4022140000000  0.4738470000000 1.0
C      1  0.5608030000000  0.4567220000000  0.4258340000000 1.0
C      1  0.5020090000000  0.4842850000000  0.4248740000000 1.0
C      1  0.4506760000000  0.5142080000000  0.4885920000000 1.0
C      1  0.4913470000000  0.4223440000000  0.4729480000000 1.0
C      1  0.4152590000000  0.5086820000000  0.5515350000000 1.0
C      1  0.4084440000000  0.5109290000000  0.5218300000000 1.0
C      1  0.4615130000000  0.5855800000000  0.4837470000000 1.0
C      1  0.4310020000000  0.5497960000000  0.5334630000000 1.0
C      1  0.5396390000000  0.4158500000000  0.4347170000000 1.0
C      1  0.5461410000000  0.5602920000000  0.4465250000000 1.0
C      1  0.4623770000000  0.5192650000000  0.4099090000000 1.0
C      1  0.5915100000000  0.5003020000000  0.4999870000000 1.0
C      1  0.4899430000000  0.4191680000000  0.5214760000000 1.0
C      1  0.5811920000000  0.4658960000000  0.4426170000000 1.0
C      1  0.5387310000000  0.4994550000000  0.4971910000000 1.0
C      1  0.5431330000000  0.5075690000000  0.4343870000000 1.0
C      1  0.5136700000000  0.5223450000000  0.5377520000000 1.0
C      1  0.4357470000000  0.5313190000000  0.5552220000000 1.0
C      1  0.5852750000000  0.5245450000000  0.5568320000000 1.0
C      1  0.4245730000000  0.4324850000000  0.5555010000000 1.0
C      1  0.4183310000000  0.5599200000000  0.4902770000000 1.0
C      1  0.4884440000000  0.4405790000000  0.4999020000000 1.0
C      1  0.4308060000000  0.4712010000000  0.4620950000000 1.0
C      1  0.5413930000000  0.4332280000000  0.5109880000000 1.0
C      1  0.5945180000000  0.4766620000000  0.5203060000000 1.0
C      1  0.4596670000000  0.4353930000000  0.5720040000000 1.0
C      1  0.5646480000000  0.5419040000000  0.4584780000000 1.0
C      1  0.5371500000000  0.4419080000000  0.4247070000000 1.0
C      1  0.5600990000000  0.5925230000000  0.4918270000000 1.0
C      1  0.5391620000000  0.4077660000000  0.4616030000000 1.0
C      1  0.5068090000000  0.5680970000000  0.4826560000000 1.0
C      1  0.5084310000000  0.4720770000000  0.6001970000000 1.0
C      1  0.5467640000000  0.5647850000000  0.5530960000000 1.0
C      1  0.4648880000000  0.5641620000000  0.5751530000000 1.0
C      1  0.4787350000000  0.5606210000000  0.4892980000000 1.0
C      1  0.5508880000000  0.4950660000000  0.5752700000000 1.0
C      1  0.4447730000000  0.5066020000000  0.4298410000000 1.0
C      1  0.6229970000000  0.4715350000000  0.4718640000000 1.0
C      1  0.4348930000000  0.5829550000000  0.4994210000000 1.0
C      1  0.5285410000000  0.4585930000000  0.4670600000000 1.0
C      1  0.4621270000000  0.4129340000000  0.5280070000000 1.0
C      1  0.4798280000000  0.5536000000000  0.5194190000000 1.0
C      1  0.5726190000000  0.5458470000000  0.4866740000000 1.0
C      1  0.6082780000000  0.4965490000000  0.4728870000000 1.0
C      1  0.4195310000000  0.4803580000000  0.5651690000000 1.0
C      1  0.5212420000000  0.5743150000000  0.5432330000000 1.0
C      1  0.5204190000000  0.5425830000000  0.4098060000000 1.0
C      1  0.4602590000000  0.5810680000000  0.4535700000000 1.0
C      1  0.5806750000000  0.4926090000000  0.4576270000000 1.0
C      1  0.4173480000000  0.5380620000000  0.5111730000000 1.0
C      1  0.5187540000000  0.4922300000000  0.5793600000000 1.0
C      1  0.4366850000000  0.4784380000000  0.4330370000000 1.0
C      1  0.4134620000000  0.4868560000000  0.5063710000000 1.0
C      1  0.4470230000000  0.4940260000000  0.5338970000000 1.0
C      1  0.5684780000000  0.4409930000000  0.5190110000000 1.0
C      1  0.5558470000000  0.5648850000000  0.5019780000000 1.0
C      1  0.4650890000000  0.4436080000000  0.4432720000000 1.0
C      1  0.5360710000000  0.6027310000000  0.4643170000000 1.0
C      1  0.5176810000000  0.4459550000000  0.5942750000000 1.0
C      1  0.4649490000000  0.4683890000000  0.5305690000000 1.0
C      1  0.4446310000000  0.5562400000000  0.4547740000000 1.0
C      1  0.4772550000000  0.5836360000000  0.5602480000000 1.0
C      1  0.4624040000000  0.4104170000000  0.4763450000000 1.0
C      1  0.5172920000000  0.4771970000000  0.4864940000000 1.0
C      1  0.4407380000000  0.5773340000000  0.5284280000000 1.0
C      1  0.4244660000000  0.5192100000000  0.4446390000000 1.0
C      1  0.5153990000000  0.4555420000000  0.4401760000000 1.0
C      1  0.4613800000000  0.4580510000000  0.5016700000000 1.0
C      1  0.4787400000000  0.4719740000000  0.5998910000000 1.0
C      1  0.5694460000000  0.5166250000000  0.4431850000000 1.0
C      1  0.5877370000000  0.5292940000000  0.5059460000000 1.0
C      1  0.4479890000000  0.4156120000000  0.5023720000000 1.0
C      1  0.5865760000000  0.4551530000000  0.4989890000000 1.0
C      1  0.5109760000000  0.5512220000000  0.5258820000000 1.0
C      1  0.4209100000000  0.4618010000000  0.5182470000000 1.0
C      1  0.6002400000000  0.4466920000000  0.4523350000000 1.0
C      1  0.5384870000000  0.5057870000000  0.5271840000000 1.0
C      1  0.4696970000000  0.5795850000000  0.5323120000000 1.0
C      1  0.5658780000000  0.4918700000000  0.4855040000000 1.0
C      1  0.5350740000000  0.5163520000000  0.4071080000000 1.0
C      1  0.5226540000000  0.5216180000000  0.4520650000000 1.0
C      1  0.5047670000000  0.5855620000000  0.5626620000000 1.0
C      1  0.5633730000000  0.5218890000000  0.5744380000000 1.0
C      1  0.4671420000000  0.4983300000000  0.6004460000000 1.0
C      1  0.5200400000000  0.4453270000000  0.5664170000000 1.0
C      1  0.4255090000000  0.4427740000000  0.4693050000000 1.0
C      1  0.5074740000000  0.4614580000000  0.5081890000000 1.0
C      1  0.4793980000000  0.5311760000000  0.4426170000000 1.0
C      1  0.4755950000000  0.5182670000000  0.5819890000000 1.0
C      1  0.5131870000000  0.5860170000000  0.4612980000000 1.0
C      1  0.4645840000000  0.5379020000000  0.4708510000000 1.0
C      1  0.4967840000000  0.5160520000000  0.4927990000000 1.0
C      1  0.5713100000000  0.4650010000000  0.5391170000000 1.0
C      1  0.4167930000000  0.5589280000000  0.4620630000000 1.0
C      1  0.5838080000000  0.5390600000000  0.5329070000000 1.0
C      1  0.5107720000000  0.5008570000000  0.4008100000000 1.0
C      1  0.5262450000000  0.5527810000000  0.4985880000000 1.0
C      1  0.5470260000000  0.4839130000000  0.5460210000000 1.0
C      1  0.4133660000000  0.4574050000000  0.5464170000000 1.0
C      1  0.4281300000000  0.4384550000000  0.4988600000000 1.0
C      1  0.5274960000000  0.4143380000000  0.5276950000000 1.0
C      1  0.4919100000000  0.4930220000000  0.4751450000000 1.0
C      1  0.4221260000000  0.5163720000000  0.4729170000000 1.0
C      1  0.5176500000000  0.4722740000000  0.5541070000000 1.0
C      1  0.6081420000000  0.4477610000000  0.4804050000000 1.0
C      1  0.5192900000000  0.5402430000000  0.5868810000000 1.0
C      1  0.4135170000000  0.4896410000000  0.4777310000000 1.0
C      1  0.5418390000000  0.6132070000000  0.4894440000000 1.0
C      1  0.5138860000000  0.4218400000000  0.5514770000000 1.0
C      1  0.4918010000000  0.5087430000000  0.5212630000000 1.0
C      1  0.5051970000000  0.5195000000000  0.5722960000000 1.0
C      1  0.4684760000000  0.4623540000000  0.5744770000000 1.0
C      1  0.4550210000000  0.5383500000000  0.5762720000000 1.0
C      1  0.4563070000000  0.4605210000000  0.4223910000000 1.0
C      1  0.5359750000000  0.4325150000000  0.4807570000000 1.0
END
