TITL C-950533-5798-444 1.80415335299029e-08 125000 -243.4057185059 0 0 40 (C1) n - 1
REM
REM in /home/bkarasulu/work/CARBON/AIRSS/Generating-Clusters/EDIP-Nigel-Params/with-SteepDescent/Only-C1/SD-CG/HFTN-CG
REM
REM
REM
REM
REM
REM ./C.cell (11c1c37f851c82e70ff6c80c92926a4b)
REM
REM compiler GCC version 9.2.1 20190827 (Red Hat 9.2.1-1)
REM options -cpp -mtune=generic -march=x86-64 -g -O0 -fpre-include=/usr/include/finclude/math-vector-fortran.h
REM seed -169962905 2080799739 1222318092 -2009144695 -92146872 759887419 -780044971 -1834731641 -51732079 1174550272 1292653626 1786564146 -781014809 -396013241 2068617181 -1492907066 146034457 -1013185461 -1311045762 -581596936 -1996057430 -105571736 1847257693 -747699990 1993767545 2091392474 -1761760787 473356386 1010815678 -1109718571 -2010379570 2053985314 -697840899
REM
CELL 1.54180   50.00000   50.00000   50.00000   90.00000   90.00000   90.00000
LATT -1
SFAC C  
C      1  0.4463690000000  0.4961060000000  0.4837000000000 1.0
C      1  0.4847030000000  0.4632310000000  0.5395840000000 1.0
C      1  0.4852840000000  0.4526020000000  0.4711710000000 1.0
C      1  0.4977290000000  0.5264160000000  0.4585950000000 1.0
C      1  0.5280860000000  0.4763400000000  0.5138950000000 1.0
C      1  0.4970260000000  0.5597540000000  0.4953230000000 1.0
C      1  0.5021680000000  0.5499890000000  0.5204450000000 1.0
C      1  0.5640870000000  0.5055620000000  0.5168340000000 1.0
C      1  0.4388370000000  0.4871750000000  0.4581520000000 1.0
C      1  0.4904360000000  0.4434410000000  0.5181970000000 1.0
C      1  0.4622850000000  0.5403010000000  0.4679430000000 1.0
C      1  0.4832400000000  0.5562720000000  0.5401940000000 1.0
C      1  0.4775230000000  0.5096900000000  0.5471600000000 1.0
C      1  0.5166490000000  0.5237080000000  0.5236460000000 1.0
C      1  0.4880080000000  0.5532390000000  0.4701300000000 1.0
C      1  0.5458450000000  0.4911790000000  0.4713390000000 1.0
C      1  0.5005880000000  0.4654170000000  0.5626160000000 1.0
C      1  0.5145080000000  0.4491840000000  0.4758610000000 1.0
C      1  0.5460070000000  0.5288330000000  0.5142270000000 1.0
C      1  0.5191530000000  0.4866980000000  0.5611990000000 1.0
C      1  0.5397240000000  0.5201250000000  0.4677250000000 1.0
C      1  0.5176110000000  0.4489480000000  0.5056860000000 1.0
C      1  0.5398920000000  0.4786900000000  0.5422830000000 1.0
C      1  0.4648240000000  0.5349330000000  0.5390160000000 1.0
C      1  0.4811440000000  0.4804270000000  0.4618590000000 1.0
C      1  0.4791850000000  0.4885560000000  0.5246610000000 1.0
C      1  0.5532070000000  0.4838310000000  0.4987700000000 1.0
C      1  0.4531920000000  0.4847430000000  0.4347390000000 1.0
C      1  0.4974330000000  0.5016630000000  0.4767280000000 1.0
C      1  0.4807590000000  0.4831590000000  0.4328280000000 1.0
C      1  0.4504610000000  0.5326250000000  0.5152520000000 1.0
C      1  0.5301290000000  0.4692250000000  0.4625600000000 1.0
C      1  0.5480670000000  0.5379890000000  0.4877030000000 1.0
C      1  0.5074220000000  0.5133460000000  0.5524270000000 1.0
C      1  0.5241090000000  0.5294070000000  0.4462000000000 1.0
C      1  0.5049580000000  0.4980040000000  0.5080340000000 1.0
C      1  0.4578790000000  0.4782240000000  0.5046020000000 1.0
C      1  0.4698690000000  0.4507280000000  0.4968630000000 1.0
C      1  0.4486380000000  0.5249280000000  0.4885170000000 1.0
C      1  0.5629670000000  0.4953130000000  0.5433350000000 1.0
END
