TITL C-950528-5794-52 -2.66239719754873e-06 125000 -801.794713949026 0 0 130 (C1) n - 1
REM
REM in /home/bkarasulu/work/CARBON/AIRSS/Generating-Clusters/EDIP-Nigel-Params/with-SteepDescent/Only-C1/SD-CG/HFTN-CG
REM
REM
REM
REM
REM
REM ./C.cell (11c1c37f851c82e70ff6c80c92926a4b)
REM
REM compiler GCC version 9.2.1 20190827 (Red Hat 9.2.1-1)
REM options -cpp -mtune=generic -march=x86-64 -g -O0 -fpre-include=/usr/include/finclude/math-vector-fortran.h
REM seed -1647346304 220268215 -1000006954 1200587428 300827762 1670922318 568089421 432029188 1517392663 1549241950 570469001 -555981209 -1264809204 1256391455 145742096 93113868 -1093552504 1201228120 -1051256154 994060679 -1101252420 1251387485 -1050682058 1362679431 -1423278199 -214905512 1359507938 1038603828 -844354495 825991396 -1552044734 1174707720 1180089064
REM
CELL 1.54180   50.00000   50.00000   50.00000   90.00000   90.00000   90.00000
LATT -1
SFAC C  
C      1  0.4595150000000  0.5208810000000  0.5822900000000 1.0
C      1  0.5063870000000  0.5775750000000  0.5204640000000 1.0
C      1  0.4825630000000  0.5105550000000  0.5433710000000 1.0
C      1  0.5537260000000  0.4650510000000  0.5810030000000 1.0
C      1  0.5306350000000  0.5719090000000  0.4652000000000 1.0
C      1  0.5892390000000  0.4646330000000  0.5486430000000 1.0
C      1  0.5469990000000  0.4462670000000  0.5376310000000 1.0
C      1  0.4649010000000  0.4971530000000  0.4842700000000 1.0
C      1  0.5273590000000  0.4258930000000  0.5424690000000 1.0
C      1  0.4793650000000  0.5916070000000  0.5200640000000 1.0
C      1  0.3965850000000  0.4924360000000  0.5194790000000 1.0
C      1  0.4005430000000  0.4936770000000  0.5473490000000 1.0
C      1  0.4231030000000  0.5388850000000  0.5534350000000 1.0
C      1  0.4273130000000  0.4902560000000  0.4249720000000 1.0
C      1  0.4834760000000  0.5792880000000  0.4734580000000 1.0
C      1  0.4429940000000  0.5606040000000  0.4496920000000 1.0
C      1  0.5574260000000  0.5167880000000  0.5618390000000 1.0
C      1  0.5060180000000  0.4112130000000  0.4892190000000 1.0
C      1  0.4596460000000  0.4398890000000  0.5583990000000 1.0
C      1  0.4355180000000  0.5568270000000  0.4774300000000 1.0
C      1  0.4517890000000  0.4629000000000  0.5159770000000 1.0
C      1  0.4470550000000  0.5439400000000  0.5685990000000 1.0
C      1  0.4609240000000  0.5674600000000  0.5597960000000 1.0
C      1  0.5512490000000  0.4320500000000  0.4886750000000 1.0
C      1  0.5668860000000  0.5048420000000  0.5139940000000 1.0
C      1  0.5652460000000  0.5289120000000  0.4910940000000 1.0
C      1  0.4843510000000  0.5342330000000  0.4540870000000 1.0
C      1  0.5153860000000  0.5361750000000  0.5821950000000 1.0
C      1  0.5530310000000  0.4716820000000  0.4134750000000 1.0
C      1  0.4564160000000  0.5778260000000  0.5332670000000 1.0
C      1  0.5755430000000  0.5184760000000  0.4641310000000 1.0
C      1  0.4205510000000  0.4752730000000  0.5560210000000 1.0
C      1  0.4899710000000  0.5195270000000  0.5860360000000 1.0
C      1  0.4707310000000  0.5699580000000  0.4468520000000 1.0
C      1  0.4450000000000  0.5182040000000  0.5209320000000 1.0
C      1  0.4838440000000  0.4864030000000  0.4434990000000 1.0
C      1  0.4882450000000  0.5496500000000  0.4817550000000 1.0
C      1  0.4695870000000  0.4256680000000  0.4584990000000 1.0
C      1  0.4661450000000  0.5931050000000  0.4930590000000 1.0
C      1  0.5258030000000  0.5128310000000  0.4213580000000 1.0
C      1  0.4408310000000  0.5376870000000  0.4304770000000 1.0
C      1  0.4828970000000  0.4210950000000  0.5569190000000 1.0
C      1  0.4687100000000  0.4535440000000  0.6122830000000 1.0
C      1  0.4966120000000  0.4589410000000  0.5308040000000 1.0
C      1  0.5302430000000  0.4936430000000  0.5924960000000 1.0
C      1  0.5223440000000  0.4336220000000  0.4817490000000 1.0
C      1  0.5692070000000  0.4921180000000  0.4546120000000 1.0
C      1  0.5044460000000  0.4801820000000  0.5066540000000 1.0
C      1  0.4703230000000  0.4516180000000  0.4942370000000 1.0
C      1  0.4609800000000  0.4916750000000  0.5489750000000 1.0
C      1  0.5658110000000  0.4505180000000  0.5596260000000 1.0
C      1  0.5649020000000  0.5780550000000  0.4810440000000 1.0
C      1  0.4448150000000  0.4928080000000  0.5750040000000 1.0
C      1  0.4115220000000  0.5319800000000  0.5086320000000 1.0
C      1  0.5910470000000  0.5110050000000  0.5309490000000 1.0
C      1  0.4389810000000  0.4285280000000  0.5407430000000 1.0
C      1  0.4112510000000  0.4515260000000  0.5054610000000 1.0
C      1  0.4879740000000  0.4475540000000  0.4144740000000 1.0
C      1  0.4771760000000  0.4145270000000  0.4848030000000 1.0
C      1  0.5777450000000  0.5608880000000  0.5249940000000 1.0
C      1  0.5197170000000  0.5583220000000  0.5636920000000 1.0
C      1  0.4458600000000  0.4407540000000  0.4673810000000 1.0
C      1  0.4991950000000  0.5076730000000  0.5181370000000 1.0
C      1  0.4676180000000  0.4643400000000  0.5404820000000 1.0
C      1  0.4809820000000  0.5153990000000  0.4032730000000 1.0
C      1  0.5236280000000  0.5247480000000  0.5221870000000 1.0
C      1  0.4053230000000  0.5183030000000  0.5588080000000 1.0
C      1  0.4667270000000  0.5075190000000  0.4566230000000 1.0
C      1  0.4425940000000  0.5760570000000  0.4983500000000 1.0
C      1  0.5095250000000  0.4328910000000  0.5644480000000 1.0
C      1  0.4924380000000  0.4344240000000  0.4401560000000 1.0
C      1  0.5079880000000  0.5522850000000  0.5371090000000 1.0
C      1  0.5571280000000  0.4776440000000  0.4973940000000 1.0
C      1  0.5008590000000  0.4952810000000  0.5979000000000 1.0
C      1  0.4821840000000  0.5615780000000  0.4199710000000 1.0
C      1  0.4371370000000  0.5114390000000  0.4439370000000 1.0
C      1  0.6117740000000  0.4618410000000  0.5044150000000 1.0
C      1  0.4656150000000  0.5381890000000  0.4142160000000 1.0
C      1  0.4709800000000  0.5339110000000  0.5079520000000 1.0
C      1  0.5276490000000  0.4835450000000  0.4849880000000 1.0
C      1  0.5404930000000  0.5203950000000  0.5858810000000 1.0
C      1  0.4550580000000  0.4732490000000  0.5961200000000 1.0
C      1  0.4795940000000  0.5413370000000  0.5388880000000 1.0
C      1  0.5774270000000  0.5564370000000  0.4961150000000 1.0
C      1  0.4498730000000  0.4189820000000  0.5135520000000 1.0
C      1  0.4793220000000  0.4858320000000  0.4140950000000 1.0
C      1  0.5335040000000  0.4797710000000  0.5631750000000 1.0
C      1  0.5178800000000  0.4438940000000  0.4537440000000 1.0
C      1  0.5082660000000  0.5263590000000  0.4016350000000 1.0
C      1  0.5083100000000  0.4626480000000  0.5588930000000 1.0
C      1  0.5454410000000  0.4383290000000  0.4416980000000 1.0
C      1  0.4129120000000  0.4812500000000  0.4991450000000 1.0
C      1  0.5038810000000  0.4702470000000  0.4041640000000 1.0
C      1  0.5460570000000  0.5682350000000  0.5626660000000 1.0
C      1  0.5451620000000  0.5946550000000  0.4930980000000 1.0
C      1  0.4154710000000  0.5372480000000  0.4814350000000 1.0
C      1  0.4409860000000  0.4661130000000  0.4181410000000 1.0
C      1  0.5108700000000  0.5550760000000  0.4148480000000 1.0
C      1  0.5907310000000  0.4533350000000  0.5207610000000 1.0
C      1  0.5612950000000  0.4498890000000  0.5119100000000 1.0
C      1  0.5254480000000  0.5115720000000  0.4743800000000 1.0
C      1  0.4312980000000  0.4321120000000  0.4919200000000 1.0
C      1  0.5287820000000  0.5527840000000  0.4418310000000 1.0
C      1  0.5181090000000  0.5541520000000  0.4851310000000 1.0
C      1  0.5549320000000  0.4439950000000  0.4159220000000 1.0
C      1  0.5134830000000  0.4748590000000  0.4525720000000 1.0
C      1  0.5907360000000  0.5386260000000  0.5365260000000 1.0
C      1  0.5750400000000  0.4870020000000  0.4266640000000 1.0
C      1  0.4169190000000  0.5157170000000  0.4640010000000 1.0
C      1  0.5743760000000  0.4702450000000  0.4728650000000 1.0
C      1  0.4424160000000  0.4905510000000  0.5041860000000 1.0
C      1  0.4227760000000  0.5493580000000  0.5274050000000 1.0
C      1  0.5079140000000  0.4065110000000  0.5172800000000 1.0
C      1  0.5446530000000  0.5067560000000  0.5367510000000 1.0
C      1  0.5150380000000  0.5253750000000  0.4489290000000 1.0
C      1  0.4841800000000  0.4754930000000  0.4860090000000 1.0
C      1  0.4860150000000  0.4253980000000  0.5260110000000 1.0
C      1  0.4201900000000  0.4510330000000  0.5358910000000 1.0
C      1  0.5257490000000  0.4817890000000  0.4224050000000 1.0
C      1  0.5339200000000  0.5309390000000  0.4935210000000 1.0
C      1  0.6017860000000  0.4691740000000  0.4807570000000 1.0
C      1  0.5511490000000  0.5261970000000  0.4141280000000 1.0
C      1  0.5870880000000  0.4939180000000  0.5535680000000 1.0
C      1  0.5776500000000  0.5151370000000  0.4167510000000 1.0
C      1  0.5517620000000  0.5701340000000  0.5352280000000 1.0
C      1  0.4386710000000  0.4854910000000  0.3992320000000 1.0
C      1  0.5789880000000  0.5333840000000  0.4400990000000 1.0
C      1  0.5645830000000  0.4420350000000  0.4641770000000 1.0
C      1  0.4855670000000  0.4705320000000  0.5962360000000 1.0
C      1  0.5344450000000  0.5882890000000  0.5193260000000 1.0
END
