TITL C-951343-2256-646 -1.9606862732474e-07 125000 -528.89770211666 0 0 86 (C1) n - 1
REM
REM in /home/bkarasulu/work/CARBON/AIRSS/Generating-Clusters/EDIP-Nigel-Params/with-SteepDescent/Only-C1/SD-CG/HFTN-CG
REM
REM
REM
REM
REM
REM ./C.cell (11c1c37f851c82e70ff6c80c92926a4b)
REM
REM compiler GCC version 9.2.1 20190827 (Red Hat 9.2.1-1)
REM options -cpp -mtune=generic -march=x86-64 -g -O0 -fpre-include=/usr/include/finclude/math-vector-fortran.h
REM seed 599950913 172614985 -1890272951 276570728 1633919444 1696694776 -1204554724 -451836331 -1386990758 1989928436 -1137672904 -1934150134 -813637617 770010098 -356752300 -1189616327 389969958 1633075900 2017309895 -947983585 -1974754722 -1972995746 -612507283 411710446 -183915592 -1248390814 -1974694891 -264158595 578476531 1350904260 -1554389899 1178666749 -1359355847
REM
CELL 1.54180   50.00000   50.00000   50.00000   90.00000   90.00000   90.00000
LATT -1
SFAC C  
C      1  0.5202410000000  0.4832590000000  0.4710280000000 1.0
C      1  0.5365130000000  0.5611300000000  0.5149540000000 1.0
C      1  0.5448970000000  0.5662160000000  0.4661270000000 1.0
C      1  0.4682450000000  0.5495400000000  0.5525300000000 1.0
C      1  0.5159280000000  0.5355480000000  0.4781000000000 1.0
C      1  0.5250240000000  0.4412790000000  0.4586160000000 1.0
C      1  0.5317690000000  0.5106200000000  0.4261380000000 1.0
C      1  0.5389050000000  0.4454800000000  0.5360040000000 1.0
C      1  0.4873500000000  0.4610120000000  0.4320340000000 1.0
C      1  0.5781860000000  0.5373150000000  0.5054850000000 1.0
C      1  0.4757950000000  0.5267580000000  0.5129050000000 1.0
C      1  0.4745670000000  0.4447780000000  0.5654610000000 1.0
C      1  0.5430040000000  0.4774820000000  0.5731400000000 1.0
C      1  0.4895920000000  0.4846670000000  0.4734610000000 1.0
C      1  0.5467470000000  0.4283120000000  0.5115710000000 1.0
C      1  0.4633920000000  0.5250970000000  0.4246340000000 1.0
C      1  0.4464410000000  0.5601680000000  0.4793780000000 1.0
C      1  0.4884960000000  0.5729270000000  0.5131990000000 1.0
C      1  0.5643840000000  0.4436260000000  0.4913590000000 1.0
C      1  0.4369390000000  0.5338130000000  0.4682510000000 1.0
C      1  0.5346480000000  0.5105510000000  0.4698440000000 1.0
C      1  0.5511540000000  0.5285090000000  0.4356330000000 1.0
C      1  0.4195220000000  0.4912580000000  0.5479640000000 1.0
C      1  0.5248260000000  0.5352320000000  0.5060780000000 1.0
C      1  0.5443310000000  0.5767840000000  0.4921100000000 1.0
C      1  0.5024680000000  0.4466750000000  0.5678560000000 1.0
C      1  0.5758100000000  0.5259810000000  0.4775230000000 1.0
C      1  0.4918670000000  0.4542460000000  0.5181200000000 1.0
C      1  0.4911000000000  0.5618790000000  0.4523750000000 1.0
C      1  0.5194620000000  0.5654490000000  0.4531290000000 1.0
C      1  0.4190320000000  0.5225170000000  0.4884830000000 1.0
C      1  0.4671610000000  0.5542790000000  0.5226210000000 1.0
C      1  0.5359840000000  0.4820170000000  0.4354220000000 1.0
C      1  0.4993740000000  0.5181120000000  0.5304950000000 1.0
C      1  0.4877850000000  0.5033430000000  0.5537160000000 1.0
C      1  0.4753320000000  0.5674940000000  0.4777790000000 1.0
C      1  0.5182300000000  0.4202770000000  0.5035160000000 1.0
C      1  0.5081110000000  0.4951990000000  0.5150460000000 1.0
C      1  0.5120270000000  0.5702820000000  0.5303650000000 1.0
C      1  0.5292220000000  0.5357480000000  0.5643750000000 1.0
C      1  0.5535160000000  0.5289570000000  0.5477020000000 1.0
C      1  0.4530520000000  0.5052800000000  0.5189680000000 1.0
C      1  0.5172670000000  0.4304180000000  0.5495720000000 1.0
C      1  0.4460600000000  0.5304880000000  0.5585680000000 1.0
C      1  0.5070360000000  0.5219430000000  0.4159920000000 1.0
C      1  0.4854170000000  0.4815950000000  0.5019470000000 1.0
C      1  0.5680770000000  0.4823380000000  0.5311140000000 1.0
C      1  0.4637960000000  0.4890660000000  0.5457770000000 1.0
C      1  0.5608910000000  0.4746420000000  0.4517360000000 1.0
C      1  0.4727920000000  0.4645720000000  0.4577920000000 1.0
C      1  0.4427780000000  0.4944120000000  0.5679310000000 1.0
C      1  0.4196790000000  0.5392180000000  0.5132210000000 1.0
C      1  0.4304930000000  0.5197270000000  0.5341270000000 1.0
C      1  0.4254420000000  0.4952160000000  0.4940330000000 1.0
C      1  0.4498660000000  0.4421590000000  0.4972720000000 1.0
C      1  0.4794320000000  0.5106110000000  0.4660280000000 1.0
C      1  0.5163040000000  0.4579770000000  0.4357380000000 1.0
C      1  0.5256800000000  0.5109080000000  0.5798700000000 1.0
C      1  0.5062220000000  0.4350350000000  0.4812110000000 1.0
C      1  0.4823850000000  0.5080570000000  0.4092780000000 1.0
C      1  0.4266370000000  0.4760920000000  0.4728370000000 1.0
C      1  0.5337790000000  0.4664600000000  0.4938630000000 1.0
C      1  0.5052960000000  0.5530920000000  0.5536020000000 1.0
C      1  0.5479320000000  0.5028580000000  0.5329700000000 1.0
C      1  0.5549270000000  0.4462250000000  0.4619170000000 1.0
C      1  0.4865410000000  0.5314420000000  0.4837160000000 1.0
C      1  0.4992130000000  0.5009330000000  0.5798270000000 1.0
C      1  0.4543760000000  0.5130960000000  0.4516170000000 1.0
C      1  0.4815760000000  0.5480910000000  0.4286090000000 1.0
C      1  0.4278000000000  0.4494070000000  0.4813410000000 1.0
C      1  0.4450930000000  0.4501730000000  0.5262170000000 1.0
C      1  0.5616410000000  0.5430400000000  0.4575970000000 1.0
C      1  0.5019090000000  0.4189350000000  0.5276140000000 1.0
C      1  0.5695470000000  0.4930340000000  0.4755550000000 1.0
C      1  0.5618480000000  0.5502150000000  0.5275450000000 1.0
C      1  0.4696160000000  0.4587630000000  0.5402640000000 1.0
C      1  0.5224170000000  0.4681010000000  0.5221720000000 1.0
C      1  0.4399750000000  0.5605570000000  0.5086000000000 1.0
C      1  0.4809850000000  0.4804850000000  0.4133690000000 1.0
C      1  0.5465750000000  0.5148330000000  0.5060400000000 1.0
C      1  0.4760670000000  0.4419680000000  0.4794100000000 1.0
C      1  0.5170990000000  0.4676740000000  0.5817260000000 1.0
C      1  0.5707710000000  0.4737120000000  0.5010720000000 1.0
C      1  0.5577470000000  0.4634880000000  0.5515630000000 1.0
C      1  0.4234610000000  0.4672900000000  0.5331990000000 1.0
C      1  0.4471230000000  0.4825540000000  0.4530550000000 1.0
END
