TITL C-951334-9093-264 1.87004958997143e-06 125000 -275.255374116904 0 0 45 (C1) n - 1
REM
REM in /home/bkarasulu/work/CARBON/AIRSS/Generating-Clusters/EDIP-Nigel-Params/with-SteepDescent/Only-C1/SD-CG/HFTN-CG
REM
REM
REM
REM
REM
REM ./C.cell (11c1c37f851c82e70ff6c80c92926a4b)
REM
REM compiler GCC version 9.2.1 20190827 (Red Hat 9.2.1-1)
REM options -cpp -mtune=generic -march=x86-64 -g -O0 -fpre-include=/usr/include/finclude/math-vector-fortran.h
REM seed -1968209230 -1955665324 -2104887477 1672076676 682153571 -272250712 -1429128926 -421215582 -551501219 1649264439 -1705875771 1884700970 -1629603751 -1676666114 495836935 -932207206 1755330912 -2011686304 1412316950 -1768176650 -1948238047 -630387956 -1639654506 -934804654 -1155159449 542748730 1694070606 1700616988 -323045091 -1933820208 1539401935 -1528227863 -2090943385
REM
CELL 1.54180   50.00000   50.00000   50.00000   90.00000   90.00000   90.00000
LATT -1
SFAC C  
C      1  0.4706910000000  0.5552470000000  0.5329920000000 1.0
C      1  0.5089130000000  0.5599330000000  0.4975640000000 1.0
C      1  0.4464120000000  0.4633500000000  0.4997790000000 1.0
C      1  0.4845060000000  0.4407170000000  0.5014950000000 1.0
C      1  0.5627680000000  0.5105100000000  0.5253750000000 1.0
C      1  0.4647840000000  0.5455160000000  0.4799220000000 1.0
C      1  0.5130440000000  0.4985430000000  0.4435300000000 1.0
C      1  0.4751450000000  0.4640950000000  0.4571230000000 1.0
C      1  0.5287150000000  0.4399790000000  0.5059100000000 1.0
C      1  0.5169870000000  0.5051600000000  0.5452380000000 1.0
C      1  0.5298230000000  0.5428490000000  0.5105650000000 1.0
C      1  0.5372750000000  0.5389320000000  0.4644100000000 1.0
C      1  0.4430380000000  0.5258090000000  0.4843270000000 1.0
C      1  0.4554000000000  0.4646850000000  0.5272230000000 1.0
C      1  0.5522000000000  0.5395030000000  0.4909550000000 1.0
C      1  0.4510340000000  0.5328370000000  0.5347750000000 1.0
C      1  0.5475930000000  0.4978550000000  0.5451270000000 1.0
C      1  0.5426230000000  0.4655490000000  0.4664670000000 1.0
C      1  0.5464310000000  0.4931460000000  0.4807390000000 1.0
C      1  0.5107900000000  0.5533110000000  0.4680850000000 1.0
C      1  0.5155290000000  0.5155580000000  0.5163120000000 1.0
C      1  0.4816120000000  0.5493820000000  0.5051060000000 1.0
C      1  0.5451310000000  0.4442160000000  0.4839490000000 1.0
C      1  0.4653560000000  0.4506400000000  0.4819840000000 1.0
C      1  0.5356850000000  0.5102250000000  0.4583210000000 1.0
C      1  0.4363610000000  0.5275280000000  0.5114550000000 1.0
C      1  0.4945410000000  0.5234620000000  0.5579230000000 1.0
C      1  0.5066280000000  0.4241820000000  0.4993910000000 1.0
C      1  0.4910570000000  0.5509850000000  0.5524390000000 1.0
C      1  0.4863100000000  0.5200710000000  0.5108960000000 1.0
C      1  0.4696820000000  0.4405220000000  0.5253000000000 1.0
C      1  0.4850320000000  0.5396250000000  0.4589140000000 1.0
C      1  0.4988850000000  0.4787220000000  0.4847230000000 1.0
C      1  0.4759040000000  0.4845480000000  0.5332140000000 1.0
C      1  0.5132090000000  0.4716660000000  0.4568340000000 1.0
C      1  0.4698150000000  0.5113410000000  0.5454750000000 1.0
C      1  0.5643320000000  0.5129360000000  0.4973750000000 1.0
C      1  0.4816190000000  0.5042630000000  0.4849210000000 1.0
C      1  0.5231100000000  0.4889870000000  0.5009980000000 1.0
C      1  0.4617740000000  0.4903720000000  0.4497680000000 1.0
C      1  0.4857990000000  0.5112900000000  0.4470260000000 1.0
C      1  0.5260280000000  0.4660240000000  0.5224640000000 1.0
C      1  0.5496610000000  0.4703310000000  0.5391350000000 1.0
C      1  0.4457890000000  0.4990000000000  0.4729910000000 1.0
C      1  0.5029800000000  0.4765960000000  0.5414860000000 1.0
END
