TITL C-950531-5884-495 -1.59950945592873e-06 125000 -1165.16292722659 0 0 183 (C1) n - 1
REM
REM in /home/bkarasulu/work/CARBON/AIRSS/Generating-Clusters/EDIP-Nigel-Params/with-SteepDescent/Only-C1/SD-CG/HFTN-CG
REM
REM
REM
REM
REM
REM ./C.cell (11c1c37f851c82e70ff6c80c92926a4b)
REM
REM compiler GCC version 9.2.1 20190827 (Red Hat 9.2.1-1)
REM options -cpp -mtune=generic -march=x86-64 -g -O0 -fpre-include=/usr/include/finclude/math-vector-fortran.h
REM seed 1035954146 -52125108 1123805424 -1836295170 942890343 -2041487131 -978949615 1042512750 -1681150851 462093745 99728159 -1121878394 1095151113 -8734965 -1786407371 -2144652237 1174222496 -1237582693 -514010083 -1353508633 1113145747 892683543 409210221 2142578225 -367743218 571885216 -295177584 1201058014 875980497 -892526450 1865567323 370454129 -1525310996
REM
CELL 1.54180   50.00000   50.00000   50.00000   90.00000   90.00000   90.00000
LATT -1
SFAC C  
C      1  0.5968110000000  0.5313900000000  0.5246650000000 1.0
C      1  0.5000340000000  0.5870020000000  0.5672740000000 1.0
C      1  0.5123890000000  0.5458420000000  0.4511390000000 1.0
C      1  0.5522360000000  0.5163950000000  0.4505460000000 1.0
C      1  0.4816170000000  0.5748580000000  0.5893770000000 1.0
C      1  0.5003780000000  0.4765190000000  0.3847470000000 1.0
C      1  0.5096260000000  0.6062460000000  0.5004260000000 1.0
C      1  0.4156730000000  0.5384310000000  0.4409290000000 1.0
C      1  0.4485500000000  0.4406240000000  0.5731700000000 1.0
C      1  0.5706540000000  0.4315410000000  0.5125180000000 1.0
C      1  0.4849850000000  0.4066050000000  0.5706690000000 1.0
C      1  0.4824120000000  0.5070530000000  0.4503100000000 1.0
C      1  0.5256870000000  0.4776050000000  0.6069160000000 1.0
C      1  0.5076200000000  0.5564510000000  0.4238640000000 1.0
C      1  0.4331550000000  0.4946700000000  0.5398130000000 1.0
C      1  0.5840820000000  0.5536680000000  0.4539530000000 1.0
C      1  0.5506840000000  0.4383810000000  0.4139130000000 1.0
C      1  0.5021030000000  0.5285620000000  0.6028560000000 1.0
C      1  0.4343740000000  0.4258730000000  0.5523750000000 1.0
C      1  0.4746750000000  0.4662740000000  0.3942810000000 1.0
C      1  0.4753990000000  0.4982640000000  0.5681890000000 1.0
C      1  0.5029130000000  0.4690830000000  0.4274650000000 1.0
C      1  0.5233950000000  0.4178880000000  0.4955570000000 1.0
C      1  0.4421170000000  0.4486350000000  0.4693930000000 1.0
C      1  0.4726150000000  0.4288170000000  0.5845590000000 1.0
C      1  0.4333010000000  0.5114050000000  0.5968510000000 1.0
C      1  0.5356970000000  0.6041490000000  0.5137900000000 1.0
C      1  0.4568680000000  0.5928540000000  0.5543180000000 1.0
C      1  0.4783410000000  0.5520380000000  0.4173390000000 1.0
C      1  0.5637730000000  0.4859930000000  0.5737950000000 1.0
C      1  0.5423890000000  0.5814330000000  0.4445080000000 1.0
C      1  0.4054310000000  0.5034520000000  0.5194570000000 1.0
C      1  0.5931540000000  0.5639840000000  0.4824450000000 1.0
C      1  0.4499970000000  0.5360490000000  0.5892370000000 1.0
C      1  0.4925380000000  0.5371310000000  0.5600870000000 1.0
C      1  0.5143730000000  0.5181100000000  0.3977380000000 1.0
C      1  0.4718130000000  0.5282260000000  0.4025050000000 1.0
C      1  0.3989500000000  0.4640850000000  0.5480980000000 1.0
C      1  0.5560720000000  0.4693830000000  0.5305790000000 1.0
C      1  0.4955080000000  0.3948170000000  0.5293900000000 1.0
C      1  0.4375650000000  0.4666890000000  0.5804080000000 1.0
C      1  0.5295080000000  0.5010060000000  0.4595480000000 1.0
C      1  0.4953960000000  0.5636720000000  0.4922560000000 1.0
C      1  0.4837630000000  0.4774840000000  0.4928110000000 1.0
C      1  0.4895050000000  0.4990880000000  0.4197020000000 1.0
C      1  0.6008910000000  0.4612160000000  0.4324800000000 1.0
C      1  0.4824800000000  0.5061920000000  0.5060520000000 1.0
C      1  0.3884250000000  0.5478680000000  0.5178220000000 1.0
C      1  0.4494870000000  0.5158520000000  0.5560460000000 1.0
C      1  0.5280020000000  0.5664720000000  0.4933260000000 1.0
C      1  0.4115240000000  0.5082820000000  0.5773940000000 1.0
C      1  0.5397080000000  0.4536490000000  0.4568290000000 1.0
C      1  0.5944390000000  0.5038860000000  0.5344730000000 1.0
C      1  0.5215380000000  0.5041140000000  0.5502430000000 1.0
C      1  0.4093190000000  0.5334280000000  0.5608220000000 1.0
C      1  0.5242920000000  0.4457130000000  0.4051630000000 1.0
C      1  0.5463680000000  0.4981370000000  0.5955930000000 1.0
C      1  0.6014550000000  0.4800170000000  0.5196560000000 1.0
C      1  0.5358110000000  0.4944840000000  0.4883150000000 1.0
C      1  0.5652820000000  0.4626280000000  0.4059220000000 1.0
C      1  0.5530940000000  0.5964780000000  0.4910360000000 1.0
C      1  0.5922990000000  0.4918600000000  0.4759110000000 1.0
C      1  0.5773490000000  0.4303470000000  0.4616720000000 1.0
C      1  0.4562960000000  0.5900620000000  0.4727590000000 1.0
C      1  0.5658490000000  0.5010390000000  0.4899500000000 1.0
C      1  0.4878310000000  0.3859250000000  0.4736910000000 1.0
C      1  0.4566130000000  0.5210620000000  0.5084840000000 1.0
C      1  0.5591410000000  0.5400800000000  0.4655010000000 1.0
C      1  0.5056950000000  0.5060280000000  0.5800980000000 1.0
C      1  0.5057620000000  0.5198550000000  0.4621890000000 1.0
C      1  0.4778770000000  0.4265250000000  0.4894260000000 1.0
C      1  0.4336880000000  0.5632840000000  0.4400750000000 1.0
C      1  0.6027620000000  0.5299280000000  0.4483520000000 1.0
C      1  0.5518030000000  0.4416930000000  0.5820070000000 1.0
C      1  0.4239070000000  0.4898400000000  0.4438070000000 1.0
C      1  0.5993040000000  0.4370880000000  0.4459240000000 1.0
C      1  0.5795940000000  0.4450320000000  0.4884450000000 1.0
C      1  0.5421140000000  0.5412840000000  0.5098680000000 1.0
C      1  0.5268210000000  0.4081300000000  0.4486410000000 1.0
C      1  0.4365210000000  0.4696730000000  0.4265270000000 1.0
C      1  0.4861170000000  0.5890880000000  0.5102460000000 1.0
C      1  0.4979090000000  0.4967480000000  0.5308770000000 1.0
C      1  0.4533550000000  0.5368890000000  0.5338370000000 1.0
C      1  0.5503310000000  0.4300190000000  0.4440760000000 1.0
C      1  0.4721560000000  0.3954500000000  0.5465860000000 1.0
C      1  0.3979860000000  0.4600570000000  0.4785300000000 1.0
C      1  0.4944910000000  0.4345040000000  0.4640280000000 1.0
C      1  0.4058780000000  0.5351390000000  0.4704110000000 1.0
C      1  0.4132030000000  0.5587470000000  0.5111740000000 1.0
C      1  0.4810900000000  0.5446840000000  0.5879130000000 1.0
C      1  0.5429200000000  0.5855390000000  0.5352650000000 1.0
C      1  0.5486440000000  0.5277560000000  0.5936600000000 1.0
C      1  0.5911050000000  0.5089520000000  0.4303200000000 1.0
C      1  0.5028090000000  0.4285930000000  0.4093530000000 1.0
C      1  0.5337280000000  0.4538430000000  0.5196490000000 1.0
C      1  0.4497470000000  0.5343760000000  0.4841160000000 1.0
C      1  0.5560760000000  0.5429380000000  0.4122050000000 1.0
C      1  0.4926540000000  0.4470220000000  0.5351060000000 1.0
C      1  0.5936400000000  0.4608130000000  0.4056180000000 1.0
C      1  0.5151340000000  0.6099670000000  0.4704160000000 1.0
C      1  0.4800350000000  0.4753950000000  0.5422690000000 1.0
C      1  0.4757800000000  0.4374700000000  0.4040130000000 1.0
C      1  0.5463150000000  0.4860220000000  0.4138130000000 1.0
C      1  0.4163930000000  0.4371500000000  0.4768260000000 1.0
C      1  0.4336740000000  0.5868510000000  0.5387990000000 1.0
C      1  0.4355240000000  0.5162760000000  0.4366900000000 1.0
C      1  0.5738290000000  0.5772190000000  0.4997550000000 1.0
C      1  0.5684780000000  0.5722500000000  0.5280520000000 1.0
C      1  0.4254130000000  0.5523300000000  0.4844910000000 1.0
C      1  0.4754770000000  0.4899540000000  0.6061950000000 1.0
C      1  0.5238180000000  0.4918620000000  0.3929130000000 1.0
C      1  0.5299060000000  0.4766200000000  0.4401640000000 1.0
C      1  0.4198110000000  0.4234660000000  0.5032580000000 1.0
C      1  0.5408690000000  0.4034930000000  0.5381360000000 1.0
C      1  0.4879720000000  0.4443460000000  0.6018930000000 1.0
C      1  0.4337530000000  0.5580120000000  0.5785590000000 1.0
C      1  0.5004660000000  0.5262850000000  0.4915330000000 1.0
C      1  0.4967650000000  0.4207710000000  0.5129260000000 1.0
C      1  0.5273450000000  0.5414430000000  0.6074780000000 1.0
C      1  0.4818450000000  0.5805120000000  0.5413570000000 1.0
C      1  0.5758310000000  0.4566270000000  0.5729440000000 1.0
C      1  0.3883440000000  0.4789500000000  0.5251050000000 1.0
C      1  0.5210470000000  0.4450380000000  0.4777760000000 1.0
C      1  0.5992230000000  0.4680430000000  0.4933590000000 1.0
C      1  0.4824680000000  0.4584530000000  0.4484230000000 1.0
C      1  0.5192250000000  0.5488870000000  0.5554010000000 1.0
C      1  0.4517950000000  0.4827160000000  0.4054180000000 1.0
C      1  0.5792010000000  0.5067340000000  0.5595680000000 1.0
C      1  0.4288030000000  0.5568020000000  0.5361740000000 1.0
C      1  0.5044060000000  0.4086660000000  0.4299850000000 1.0
C      1  0.5277550000000  0.4569070000000  0.5684190000000 1.0
C      1  0.5335410000000  0.5903240000000  0.5624510000000 1.0
C      1  0.5392020000000  0.4520070000000  0.6056890000000 1.0
C      1  0.4305900000000  0.5766840000000  0.4664950000000 1.0
C      1  0.5161920000000  0.3982340000000  0.5496780000000 1.0
C      1  0.4584630000000  0.5261100000000  0.4553140000000 1.0
C      1  0.4779600000000  0.5508990000000  0.5395130000000 1.0
C      1  0.4513760000000  0.4108490000000  0.5337930000000 1.0
C      1  0.4800470000000  0.5743100000000  0.4637010000000 1.0
C      1  0.4182900000000  0.4817430000000  0.5630140000000 1.0
C      1  0.4530420000000  0.4497020000000  0.4412590000000 1.0
C      1  0.5804150000000  0.5492740000000  0.5414050000000 1.0
C      1  0.5352250000000  0.5589080000000  0.4642290000000 1.0
C      1  0.4488800000000  0.5121760000000  0.4093460000000 1.0
C      1  0.5164280000000  0.3968430000000  0.4744840000000 1.0
C      1  0.5777880000000  0.4528200000000  0.5432140000000 1.0
C      1  0.4635990000000  0.5542340000000  0.4431260000000 1.0
C      1  0.5441710000000  0.6047910000000  0.4635790000000 1.0
C      1  0.3946260000000  0.5267840000000  0.5351250000000 1.0
C      1  0.5251810000000  0.5181440000000  0.5035500000000 1.0
C      1  0.5411700000000  0.4803810000000  0.5545670000000 1.0
C      1  0.5380630000000  0.5304550000000  0.5439910000000 1.0
C      1  0.6044020000000  0.5389870000000  0.4958630000000 1.0
C      1  0.4435940000000  0.4508820000000  0.5176620000000 1.0
C      1  0.4477830000000  0.4859790000000  0.5999830000000 1.0
C      1  0.6098410000000  0.5172750000000  0.4750790000000 1.0
C      1  0.4981130000000  0.5952880000000  0.4503940000000 1.0
C      1  0.4121630000000  0.4392820000000  0.5377210000000 1.0
C      1  0.4599460000000  0.5992710000000  0.4995640000000 1.0
C      1  0.5662120000000  0.5663590000000  0.4299430000000 1.0
C      1  0.5160470000000  0.5844680000000  0.4291230000000 1.0
C      1  0.4632740000000  0.4013720000000  0.4836320000000 1.0
C      1  0.4963230000000  0.4707780000000  0.6048470000000 1.0
C      1  0.4369080000000  0.6008440000000  0.5150510000000 1.0
C      1  0.5483740000000  0.4127370000000  0.5127430000000 1.0
C      1  0.4042560000000  0.5084420000000  0.4858070000000 1.0
C      1  0.5267050000000  0.5431300000000  0.4048110000000 1.0
C      1  0.5640410000000  0.5325280000000  0.5616310000000 1.0
C      1  0.4606450000000  0.4506260000000  0.4928110000000 1.0
C      1  0.5664600000000  0.5309770000000  0.4934590000000 1.0
C      1  0.4781170000000  0.4066640000000  0.4425040000000 1.0
C      1  0.3842940000000  0.4624630000000  0.5028790000000 1.0
C      1  0.4532910000000  0.4761380000000  0.5285820000000 1.0
C      1  0.5906230000000  0.4843190000000  0.4464240000000 1.0
C      1  0.4099810000000  0.4852780000000  0.4692860000000 1.0
C      1  0.4417150000000  0.4026300000000  0.5065170000000 1.0
C      1  0.4529780000000  0.5809080000000  0.5809240000000 1.0
C      1  0.4788550000000  0.4818050000000  0.4647610000000 1.0
C      1  0.5306530000000  0.5645910000000  0.5767540000000 1.0
C      1  0.5622350000000  0.5141930000000  0.4232380000000 1.0
C      1  0.4588200000000  0.4243400000000  0.4260780000000 1.0
C      1  0.5199570000000  0.4418210000000  0.5440380000000 1.0
C      1  0.5171390000000  0.4684060000000  0.4970260000000 1.0
END
