TITL C-950525-1983-228 2.91168592793728e-06 125000 -678.82719528252 0 0 109 (C1) n - 1
REM
REM in /home/bkarasulu/work/CARBON/AIRSS/Generating-Clusters/EDIP-Nigel-Params/with-SteepDescent/Only-C1/SD-CG/HFTN-CG
REM
REM
REM
REM
REM
REM ./C.cell (11c1c37f851c82e70ff6c80c92926a4b)
REM
REM compiler GCC version 9.2.1 20190827 (Red Hat 9.2.1-1)
REM options -cpp -mtune=generic -march=x86-64 -g -O0 -fpre-include=/usr/include/finclude/math-vector-fortran.h
REM seed 1039783781 -1971268185 -1220709710 -2040472582 1855994324 1887140336 -483109924 1963461494 1592002078 1411813703 150850967 -1589421247 965428013 -1105298906 1106232688 -129688160 -392739602 1722660003 1789469837 -1426082846 1822984092 -183134315 2143367966 1109535286 321985099 -280024309 1342429553 -194466830 -100258159 -1286739272 -270138222 662314172 -1716358194
REM
CELL 1.54180   50.00000   50.00000   50.00000   90.00000   90.00000   90.00000
LATT -1
SFAC C  
C      1  0.5869900000000  0.4996130000000  0.4630390000000 1.0
C      1  0.4715130000000  0.4890080000000  0.4267840000000 1.0
C      1  0.4769070000000  0.4541230000000  0.5400390000000 1.0
C      1  0.5506380000000  0.5748680000000  0.4794680000000 1.0
C      1  0.5948430000000  0.4903030000000  0.4891000000000 1.0
C      1  0.5217530000000  0.4808150000000  0.4227950000000 1.0
C      1  0.4596500000000  0.5419340000000  0.4982660000000 1.0
C      1  0.4983360000000  0.4800350000000  0.4596750000000 1.0
C      1  0.4548710000000  0.4847990000000  0.5719460000000 1.0
C      1  0.4108140000000  0.4972850000000  0.5145750000000 1.0
C      1  0.4280700000000  0.4967100000000  0.4523650000000 1.0
C      1  0.4911890000000  0.4444990000000  0.4416960000000 1.0
C      1  0.5421100000000  0.4381070000000  0.4449570000000 1.0
C      1  0.5398620000000  0.5628160000000  0.4556250000000 1.0
C      1  0.4947890000000  0.4974840000000  0.5250580000000 1.0
C      1  0.5554190000000  0.5372710000000  0.4475230000000 1.0
C      1  0.5319190000000  0.5377260000000  0.5174540000000 1.0
C      1  0.5483580000000  0.4935730000000  0.4260670000000 1.0
C      1  0.4463850000000  0.5576310000000  0.5420690000000 1.0
C      1  0.4497200000000  0.4310570000000  0.4877670000000 1.0
C      1  0.5274690000000  0.4666250000000  0.5421810000000 1.0
C      1  0.4705550000000  0.5829760000000  0.4527050000000 1.0
C      1  0.4518550000000  0.4201670000000  0.5156670000000 1.0
C      1  0.5299320000000  0.4872990000000  0.4651140000000 1.0
C      1  0.4721750000000  0.5143110000000  0.5381920000000 1.0
C      1  0.5733590000000  0.5283870000000  0.4941500000000 1.0
C      1  0.4968450000000  0.5486240000000  0.5626650000000 1.0
C      1  0.4359210000000  0.5620040000000  0.4960050000000 1.0
C      1  0.4929660000000  0.4276780000000  0.5704120000000 1.0
C      1  0.5422820000000  0.4230070000000  0.4868030000000 1.0
C      1  0.5781360000000  0.4824370000000  0.5123160000000 1.0
C      1  0.4668020000000  0.5491060000000  0.5646300000000 1.0
C      1  0.4919330000000  0.5847580000000  0.5019680000000 1.0
C      1  0.5064220000000  0.4495180000000  0.5282600000000 1.0
C      1  0.5163780000000  0.5654790000000  0.5473560000000 1.0
C      1  0.5353790000000  0.4718730000000  0.4909010000000 1.0
C      1  0.4506170000000  0.5075020000000  0.4356190000000 1.0
C      1  0.4686300000000  0.4608520000000  0.4328020000000 1.0
C      1  0.5093800000000  0.5280250000000  0.5796220000000 1.0
C      1  0.5215940000000  0.4204350000000  0.5073890000000 1.0
C      1  0.4022940000000  0.5196490000000  0.4953910000000 1.0
C      1  0.4944650000000  0.5849580000000  0.4723230000000 1.0
C      1  0.5616170000000  0.4493780000000  0.5381660000000 1.0
C      1  0.5557650000000  0.4491210000000  0.4869680000000 1.0
C      1  0.4679170000000  0.4786800000000  0.5239260000000 1.0
C      1  0.5094750000000  0.5628720000000  0.4571450000000 1.0
C      1  0.4289870000000  0.4605480000000  0.5352410000000 1.0
C      1  0.5652030000000  0.4829050000000  0.4494810000000 1.0
C      1  0.4341670000000  0.4842020000000  0.5515050000000 1.0
C      1  0.5154050000000  0.5782840000000  0.5189930000000 1.0
C      1  0.5486830000000  0.5231800000000  0.4226100000000 1.0
C      1  0.5552090000000  0.5328730000000  0.5649050000000 1.0
C      1  0.5028860000000  0.5370990000000  0.5080190000000 1.0
C      1  0.5313700000000  0.4604370000000  0.5713400000000 1.0
C      1  0.5232130000000  0.4311770000000  0.5714620000000 1.0
C      1  0.4460820000000  0.5172060000000  0.4965870000000 1.0
C      1  0.5355070000000  0.4154450000000  0.4606340000000 1.0
C      1  0.4951180000000  0.4131010000000  0.4956610000000 1.0
C      1  0.4570880000000  0.4987970000000  0.4783800000000 1.0
C      1  0.5604180000000  0.5629370000000  0.5275130000000 1.0
C      1  0.5338750000000  0.5161770000000  0.5728050000000 1.0
C      1  0.4672240000000  0.5125660000000  0.5701160000000 1.0
C      1  0.4874370000000  0.4612680000000  0.4825300000000 1.0
C      1  0.5508180000000  0.4923690000000  0.5061580000000 1.0
C      1  0.5684160000000  0.5184840000000  0.5418650000000 1.0
C      1  0.5417910000000  0.5107110000000  0.5274320000000 1.0
C      1  0.5643720000000  0.4538610000000  0.4575530000000 1.0
C      1  0.4624300000000  0.4740490000000  0.4937810000000 1.0
C      1  0.4852490000000  0.5729390000000  0.4287610000000 1.0
C      1  0.5801860000000  0.5391110000000  0.5215120000000 1.0
C      1  0.4924430000000  0.5053870000000  0.5838470000000 1.0
C      1  0.5188220000000  0.4531140000000  0.4336780000000 1.0
C      1  0.5030460000000  0.4772580000000  0.5787190000000 1.0
C      1  0.4936950000000  0.4106520000000  0.5456030000000 1.0
C      1  0.5237900000000  0.4140640000000  0.5453220000000 1.0
C      1  0.4774910000000  0.4629340000000  0.5703680000000 1.0
C      1  0.4116030000000  0.5458410000000  0.5095390000000 1.0
C      1  0.5090550000000  0.4625510000000  0.5019250000000 1.0
C      1  0.4430560000000  0.4531510000000  0.4404640000000 1.0
C      1  0.5454060000000  0.5378690000000  0.4903710000000 1.0
C      1  0.4505140000000  0.5599990000000  0.4590920000000 1.0
C      1  0.4287670000000  0.4671190000000  0.4597050000000 1.0
C      1  0.5202060000000  0.4960240000000  0.5429290000000 1.0
C      1  0.4369260000000  0.4586830000000  0.4874600000000 1.0
C      1  0.4685160000000  0.5933320000000  0.5138910000000 1.0
C      1  0.4821230000000  0.5103560000000  0.4667890000000 1.0
C      1  0.4554010000000  0.5368460000000  0.4359330000000 1.0
C      1  0.5673290000000  0.4689940000000  0.5587800000000 1.0
C      1  0.5798640000000  0.5283940000000  0.4641420000000 1.0
C      1  0.4978460000000  0.4982680000000  0.4196360000000 1.0
C      1  0.5010620000000  0.5264310000000  0.4155090000000 1.0
C      1  0.4429750000000  0.4358360000000  0.5378950000000 1.0
C      1  0.5268250000000  0.5341730000000  0.4086200000000 1.0
C      1  0.5432260000000  0.5785080000000  0.5073480000000 1.0
C      1  0.5454040000000  0.5590120000000  0.5531170000000 1.0
C      1  0.5032470000000  0.5130340000000  0.4901520000000 1.0
C      1  0.4182390000000  0.5180610000000  0.4709430000000 1.0
C      1  0.4794420000000  0.4312980000000  0.4761580000000 1.0
C      1  0.4170410000000  0.4674590000000  0.5094220000000 1.0
C      1  0.4235600000000  0.5083970000000  0.5384860000000 1.0
C      1  0.5737610000000  0.4528580000000  0.5117050000000 1.0
C      1  0.4231520000000  0.5384370000000  0.5366150000000 1.0
C      1  0.5286140000000  0.5158470000000  0.4756260000000 1.0
C      1  0.4783440000000  0.5440840000000  0.4718530000000 1.0
C      1  0.4457700000000  0.5787700000000  0.5193450000000 1.0
C      1  0.4771810000000  0.5412870000000  0.5238420000000 1.0
C      1  0.4797330000000  0.5454050000000  0.4221960000000 1.0
C      1  0.4797310000000  0.4148040000000  0.5201460000000 1.0
C      1  0.5813600000000  0.4903570000000  0.5430410000000 1.0
END
