TITL C-950522-5749-529 2.44951098837384e-06 125000 -1133.19272785891 0 0 181 (C1) n - 1
REM
REM in /home/bkarasulu/work/CARBON/AIRSS/Generating-Clusters/EDIP-Nigel-Params/with-SteepDescent/Only-C1/SD-CG/HFTN-CG
REM
REM
REM
REM
REM
REM ./C.cell (11c1c37f851c82e70ff6c80c92926a4b)
REM
REM compiler GCC version 9.2.1 20190827 (Red Hat 9.2.1-1)
REM options -cpp -mtune=generic -march=x86-64 -g -O0 -fpre-include=/usr/include/finclude/math-vector-fortran.h
REM seed 2014945363 -37907663 -837028046 -182846804 28771622 -315692654 -726256022 926808711 -1829380605 1604128899 437486879 1107537058 -1543979542 -402257534 1676805758 -1763978027 -1938387183 -871838559 558246224 1992577427 1443690617 1903959724 1430584096 1869328641 -501880291 1326786544 -1878980225 2084740836 2125229980 797496028 1066822341 2067492147 768276722
REM
CELL 1.54180   50.00000   50.00000   50.00000   90.00000   90.00000   90.00000
LATT -1
SFAC C  
C      1  0.5510970000000  0.5237610000000  0.5822070000000 1.0
C      1  0.4383500000000  0.6015160000000  0.4758400000000 1.0
C      1  0.5259610000000  0.5253730000000  0.3888400000000 1.0
C      1  0.5928300000000  0.4722840000000  0.5393100000000 1.0
C      1  0.5217060000000  0.4393790000000  0.6011330000000 1.0
C      1  0.5901690000000  0.5027430000000  0.4429930000000 1.0
C      1  0.4598690000000  0.5152760000000  0.4164060000000 1.0
C      1  0.5943440000000  0.5272930000000  0.5732240000000 1.0
C      1  0.5165030000000  0.4263670000000  0.5081570000000 1.0
C      1  0.3908180000000  0.5019930000000  0.4762600000000 1.0
C      1  0.4983480000000  0.5158770000000  0.4927370000000 1.0
C      1  0.5149860000000  0.5940410000000  0.4308260000000 1.0
C      1  0.4525160000000  0.5242640000000  0.4878790000000 1.0
C      1  0.4278090000000  0.5083900000000  0.4874720000000 1.0
C      1  0.5240340000000  0.3756340000000  0.5307310000000 1.0
C      1  0.5245340000000  0.5584320000000  0.5570970000000 1.0
C      1  0.5830100000000  0.5660790000000  0.5480990000000 1.0
C      1  0.4842750000000  0.5783570000000  0.5801000000000 1.0
C      1  0.5767900000000  0.5201570000000  0.3992300000000 1.0
C      1  0.5242630000000  0.4891210000000  0.4645990000000 1.0
C      1  0.5643780000000  0.4577980000000  0.4366000000000 1.0
C      1  0.4824970000000  0.5873520000000  0.4867040000000 1.0
C      1  0.4097020000000  0.4576680000000  0.4769360000000 1.0
C      1  0.4977670000000  0.4694750000000  0.4991960000000 1.0
C      1  0.5876970000000  0.5271930000000  0.4246810000000 1.0
C      1  0.4932790000000  0.6136690000000  0.4954640000000 1.0
C      1  0.5692710000000  0.4430210000000  0.4607690000000 1.0
C      1  0.5159010000000  0.5457490000000  0.6034110000000 1.0
C      1  0.5403850000000  0.6128700000000  0.5028560000000 1.0
C      1  0.4354570000000  0.5817270000000  0.4958070000000 1.0
C      1  0.3982570000000  0.5269490000000  0.5146070000000 1.0
C      1  0.4332650000000  0.4110320000000  0.4698690000000 1.0
C      1  0.4967220000000  0.4902500000000  0.4763310000000 1.0
C      1  0.5983510000000  0.4748980000000  0.4880830000000 1.0
C      1  0.4769430000000  0.4227010000000  0.5850550000000 1.0
C      1  0.4954040000000  0.5629580000000  0.5592370000000 1.0
C      1  0.4811840000000  0.5124830000000  0.3964310000000 1.0
C      1  0.5425420000000  0.4901280000000  0.4887710000000 1.0
C      1  0.5518820000000  0.5589150000000  0.5111530000000 1.0
C      1  0.4011720000000  0.4601480000000  0.5350000000000 1.0
C      1  0.5604850000000  0.4234940000000  0.5046490000000 1.0
C      1  0.4053570000000  0.4716810000000  0.5063350000000 1.0
C      1  0.5145040000000  0.5107190000000  0.5572010000000 1.0
C      1  0.5017460000000  0.4040600000000  0.4964930000000 1.0
C      1  0.4943240000000  0.6101180000000  0.5253480000000 1.0
C      1  0.4953510000000  0.5384870000000  0.4727140000000 1.0
C      1  0.5143430000000  0.4122090000000  0.5585060000000 1.0
C      1  0.4593390000000  0.4725220000000  0.4919510000000 1.0
C      1  0.4630200000000  0.5779690000000  0.5093850000000 1.0
C      1  0.4653100000000  0.5818560000000  0.4421630000000 1.0
C      1  0.4372920000000  0.4895300000000  0.5362380000000 1.0
C      1  0.5362570000000  0.5496550000000  0.5842830000000 1.0
C      1  0.5238670000000  0.5542110000000  0.4457180000000 1.0
C      1  0.5378780000000  0.4098990000000  0.4452110000000 1.0
C      1  0.5603420000000  0.5318480000000  0.4732150000000 1.0
C      1  0.4486140000000  0.4524920000000  0.6078980000000 1.0
C      1  0.4411140000000  0.4439350000000  0.5585120000000 1.0
C      1  0.5229170000000  0.4840820000000  0.4353920000000 1.0
C      1  0.5242060000000  0.4632290000000  0.5389010000000 1.0
C      1  0.5222890000000  0.4970330000000  0.3834530000000 1.0
C      1  0.5524310000000  0.5332910000000  0.5255040000000 1.0
C      1  0.4613250000000  0.4029880000000  0.5381030000000 1.0
C      1  0.4622590000000  0.4433050000000  0.5041600000000 1.0
C      1  0.4674870000000  0.5331920000000  0.4623470000000 1.0
C      1  0.4951820000000  0.4240700000000  0.4216440000000 1.0
C      1  0.5378340000000  0.5845570000000  0.5459370000000 1.0
C      1  0.4205780000000  0.4396810000000  0.4328010000000 1.0
C      1  0.4624820000000  0.4095540000000  0.4621940000000 1.0
C      1  0.4585520000000  0.4671670000000  0.5478890000000 1.0
C      1  0.5526520000000  0.4051790000000  0.4834630000000 1.0
C      1  0.4244790000000  0.4999340000000  0.4442410000000 1.0
C      1  0.4526290000000  0.5548940000000  0.4439210000000 1.0
C      1  0.5533560000000  0.5905300000000  0.4608750000000 1.0
C      1  0.4056230000000  0.4818720000000  0.4595820000000 1.0
C      1  0.5088700000000  0.4426130000000  0.4625490000000 1.0
C      1  0.4206170000000  0.4384800000000  0.5368900000000 1.0
C      1  0.5986440000000  0.5427100000000  0.5504520000000 1.0
C      1  0.5454470000000  0.4804240000000  0.3891520000000 1.0
C      1  0.6067780000000  0.4757500000000  0.5149440000000 1.0
C      1  0.5303320000000  0.5008990000000  0.5802490000000 1.0
C      1  0.4159540000000  0.4800770000000  0.5800560000000 1.0
C      1  0.4920810000000  0.4393580000000  0.3983480000000 1.0
C      1  0.5449120000000  0.4515840000000  0.5843430000000 1.0
C      1  0.4916240000000  0.4800770000000  0.4358000000000 1.0
C      1  0.4300640000000  0.4076860000000  0.4997070000000 1.0
C      1  0.4796310000000  0.4645060000000  0.3970770000000 1.0
C      1  0.5769770000000  0.5212640000000  0.5927150000000 1.0
C      1  0.4733840000000  0.4131750000000  0.4911710000000 1.0
C      1  0.4826640000000  0.4540370000000  0.4539430000000 1.0
C      1  0.4679430000000  0.4749270000000  0.6071430000000 1.0
C      1  0.5186360000000  0.4490770000000  0.4899260000000 1.0
C      1  0.5324280000000  0.5121620000000  0.4236960000000 1.0
C      1  0.5003030000000  0.4707200000000  0.6089140000000 1.0
C      1  0.5883030000000  0.5891470000000  0.4974550000000 1.0
C      1  0.5389820000000  0.4539840000000  0.3963800000000 1.0
C      1  0.5780290000000  0.4817080000000  0.4275440000000 1.0
C      1  0.4314880000000  0.4358360000000  0.5087870000000 1.0
C      1  0.4559860000000  0.3970640000000  0.5107590000000 1.0
C      1  0.5672090000000  0.4939050000000  0.4037750000000 1.0
C      1  0.4595160000000  0.4201530000000  0.5608500000000 1.0
C      1  0.4955660000000  0.4883830000000  0.3928740000000 1.0
C      1  0.5603620000000  0.4156700000000  0.4595930000000 1.0
C      1  0.5070650000000  0.3800410000000  0.5100930000000 1.0
C      1  0.5253620000000  0.5320750000000  0.5386250000000 1.0
C      1  0.4567390000000  0.5714510000000  0.5787080000000 1.0
C      1  0.4817240000000  0.5589490000000  0.4068190000000 1.0
C      1  0.5196390000000  0.6178100000000  0.4819250000000 1.0
C      1  0.5662500000000  0.4407150000000  0.5696680000000 1.0
C      1  0.6096440000000  0.5445500000000  0.5048680000000 1.0
C      1  0.3979690000000  0.5456940000000  0.4915490000000 1.0
C      1  0.4902480000000  0.5775910000000  0.4284770000000 1.0
C      1  0.4291750000000  0.4533220000000  0.5849930000000 1.0
C      1  0.4270260000000  0.5331360000000  0.5829710000000 1.0
C      1  0.4443280000000  0.5178180000000  0.5412740000000 1.0
C      1  0.4106450000000  0.4839180000000  0.5506240000000 1.0
C      1  0.4701800000000  0.4297630000000  0.4393770000000 1.0
C      1  0.5234210000000  0.6001460000000  0.5251100000000 1.0
C      1  0.4554960000000  0.5453810000000  0.4159730000000 1.0
C      1  0.4635250000000  0.4290280000000  0.6087680000000 1.0
C      1  0.5639540000000  0.6013190000000  0.4864940000000 1.0
C      1  0.5497170000000  0.5344570000000  0.4452230000000 1.0
C      1  0.4566750000000  0.5013000000000  0.6031830000000 1.0
C      1  0.5059070000000  0.4183110000000  0.5855780000000 1.0
C      1  0.5976540000000  0.5631110000000  0.4883860000000 1.0
C      1  0.5684230000000  0.4884840000000  0.5341120000000 1.0
C      1  0.4729760000000  0.5150910000000  0.5073670000000 1.0
C      1  0.5677460000000  0.5580130000000  0.4852790000000 1.0
C      1  0.4118050000000  0.5290150000000  0.4454440000000 1.0
C      1  0.4758180000000  0.4481530000000  0.5303730000000 1.0
C      1  0.4854130000000  0.5093230000000  0.5604830000000 1.0
C      1  0.4732180000000  0.5237810000000  0.5945110000000 1.0
C      1  0.5884580000000  0.4488030000000  0.4813480000000 1.0
C      1  0.5523300000000  0.4127450000000  0.5302690000000 1.0
C      1  0.4595430000000  0.4791450000000  0.4612650000000 1.0
C      1  0.4643420000000  0.5975650000000  0.4659550000000 1.0
C      1  0.5087070000000  0.4827700000000  0.5235410000000 1.0
C      1  0.4216810000000  0.4365090000000  0.4603160000000 1.0
C      1  0.5246760000000  0.5630190000000  0.5015810000000 1.0
C      1  0.4236000000000  0.5573290000000  0.4831350000000 1.0
C      1  0.4306650000000  0.5042670000000  0.5910920000000 1.0
C      1  0.5352570000000  0.3964060000000  0.5458460000000 1.0
C      1  0.5369980000000  0.4560030000000  0.4253250000000 1.0
C      1  0.5519740000000  0.4618810000000  0.5260190000000 1.0
C      1  0.3888940000000  0.4990210000000  0.5060640000000 1.0
C      1  0.6003340000000  0.5274760000000  0.5248840000000 1.0
C      1  0.4754500000000  0.5540060000000  0.5384140000000 1.0
C      1  0.4681710000000  0.5963290000000  0.5324010000000 1.0
C      1  0.4553610000000  0.4673670000000  0.4138080000000 1.0
C      1  0.4488910000000  0.5668380000000  0.5496230000000 1.0
C      1  0.5631180000000  0.5783190000000  0.5322660000000 1.0
C      1  0.4336220000000  0.4853700000000  0.5055770000000 1.0
C      1  0.5683820000000  0.5071820000000  0.4876360000000 1.0
C      1  0.5480460000000  0.4597180000000  0.4951020000000 1.0
C      1  0.5733490000000  0.5135290000000  0.5180320000000 1.0
C      1  0.4757460000000  0.4806470000000  0.5689980000000 1.0
C      1  0.5370510000000  0.5781830000000  0.4193960000000 1.0
C      1  0.5088770000000  0.5308030000000  0.4317160000000 1.0
C      1  0.3907420000000  0.5298250000000  0.4668500000000 1.0
C      1  0.5057760000000  0.4386190000000  0.5336420000000 1.0
C      1  0.5070030000000  0.5657360000000  0.4787710000000 1.0
C      1  0.5000890000000  0.5346450000000  0.4028530000000 1.0
C      1  0.4395850000000  0.4928040000000  0.4190140000000 1.0
C      1  0.4467760000000  0.4415230000000  0.4237850000000 1.0
C      1  0.4515460000000  0.5465230000000  0.5939600000000 1.0
C      1  0.5205170000000  0.4317910000000  0.4376530000000 1.0
C      1  0.5770680000000  0.4464720000000  0.5443470000000 1.0
C      1  0.4983410000000  0.4610710000000  0.5788430000000 1.0
C      1  0.4729360000000  0.5082920000000  0.4438670000000 1.0
C      1  0.4250440000000  0.5548590000000  0.4535740000000 1.0
C      1  0.5888600000000  0.4295610000000  0.5022250000000 1.0
C      1  0.4715280000000  0.5237100000000  0.5361660000000 1.0
C      1  0.5263500000000  0.4695450000000  0.5689680000000 1.0
C      1  0.4989400000000  0.5243820000000  0.6100850000000 1.0
C      1  0.5809490000000  0.5545160000000  0.4336420000000 1.0
C      1  0.6009440000000  0.4970410000000  0.4695290000000 1.0
C      1  0.4281720000000  0.5395430000000  0.5532080000000 1.0
C      1  0.5258980000000  0.5997470000000  0.4584420000000 1.0
C      1  0.5609360000000  0.5761310000000  0.4360920000000 1.0
C      1  0.5222460000000  0.5056640000000  0.5106700000000 1.0
C      1  0.5139920000000  0.4987310000000  0.6062110000000 1.0
C      1  0.4020800000000  0.5383570000000  0.5403240000000 1.0
END
