TITL C-951337-3020-451 7.93794648362731e-07 125000 -491.710141690166 0 0 80 (C1) n - 1
REM
REM in /home/bkarasulu/work/CARBON/AIRSS/Generating-Clusters/EDIP-Nigel-Params/with-SteepDescent/Only-C1/SD-CG/HFTN-CG
REM
REM
REM
REM
REM
REM ./C.cell (11c1c37f851c82e70ff6c80c92926a4b)
REM
REM compiler GCC version 9.2.1 20190827 (Red Hat 9.2.1-1)
REM options -cpp -mtune=generic -march=x86-64 -g -O0 -fpre-include=/usr/include/finclude/math-vector-fortran.h
REM seed 572841971 1400815590 -41274707 494028245 -2126302148 -453176922 -1341643497 1327599822 -276432847 -1630664884 -2045658160 755866121 1162289696 1449136905 -1304336985 -821807488 -982661682 -472455397 -119897710 1669362904 740242742 332861990 144947995 -2061664963 377523490 1645761444 1588491395 -1467954755 37357036 1203011197 1819464697 615514613 -2132954142
REM
CELL 1.54180   50.00000   50.00000   50.00000   90.00000   90.00000   90.00000
LATT -1
SFAC C  
C      1  0.4140330000000  0.5056980000000  0.5274780000000 1.0
C      1  0.5455090000000  0.4900240000000  0.5570910000000 1.0
C      1  0.4386700000000  0.4900550000000  0.4643760000000 1.0
C      1  0.5015180000000  0.4217340000000  0.5125400000000 1.0
C      1  0.4278090000000  0.4966880000000  0.5515150000000 1.0
C      1  0.4184530000000  0.5097040000000  0.4631580000000 1.0
C      1  0.5557260000000  0.5395470000000  0.4580290000000 1.0
C      1  0.5438310000000  0.4351930000000  0.5186780000000 1.0
C      1  0.5186160000000  0.4441330000000  0.4662570000000 1.0
C      1  0.4781010000000  0.4430080000000  0.5459320000000 1.0
C      1  0.5026760000000  0.4603780000000  0.5141870000000 1.0
C      1  0.4943440000000  0.4592260000000  0.4404140000000 1.0
C      1  0.5058870000000  0.5152510000000  0.5734600000000 1.0
C      1  0.4866470000000  0.4867790000000  0.5225680000000 1.0
C      1  0.5289220000000  0.5409630000000  0.5008610000000 1.0
C      1  0.5356360000000  0.5439350000000  0.5442740000000 1.0
C      1  0.5203880000000  0.4701720000000  0.5628190000000 1.0
C      1  0.4187500000000  0.5318610000000  0.5184910000000 1.0
C      1  0.5431650000000  0.4277180000000  0.4909920000000 1.0
C      1  0.5526570000000  0.5693340000000  0.4608680000000 1.0
C      1  0.4753830000000  0.4264620000000  0.5215290000000 1.0
C      1  0.5262210000000  0.5703210000000  0.4963220000000 1.0
C      1  0.4497840000000  0.4767750000000  0.4406970000000 1.0
C      1  0.4346250000000  0.4686300000000  0.5473200000000 1.0
C      1  0.5209390000000  0.5728230000000  0.4646650000000 1.0
C      1  0.5716920000000  0.4690570000000  0.4951810000000 1.0
C      1  0.5145300000000  0.5063550000000  0.4312260000000 1.0
C      1  0.5633840000000  0.5447340000000  0.5331760000000 1.0
C      1  0.4557730000000  0.4542330000000  0.5607530000000 1.0
C      1  0.4665920000000  0.4953790000000  0.5015150000000 1.0
C      1  0.4145500000000  0.4833450000000  0.5086470000000 1.0
C      1  0.4982880000000  0.4868380000000  0.5717750000000 1.0
C      1  0.4469480000000  0.4771580000000  0.4898560000000 1.0
C      1  0.4777650000000  0.5069900000000  0.4757390000000 1.0
C      1  0.4672600000000  0.4958610000000  0.4255960000000 1.0
C      1  0.4821640000000  0.5314290000000  0.5648040000000 1.0
C      1  0.5315700000000  0.5287720000000  0.4729180000000 1.0
C      1  0.4714330000000  0.5222840000000  0.4409470000000 1.0
C      1  0.5710370000000  0.4937540000000  0.4800170000000 1.0
C      1  0.5652750000000  0.5135120000000  0.5319670000000 1.0
C      1  0.5128410000000  0.5643090000000  0.5423490000000 1.0
C      1  0.4998310000000  0.5319140000000  0.4350980000000 1.0
C      1  0.4656610000000  0.4529840000000  0.4805790000000 1.0
C      1  0.4522170000000  0.5434720000000  0.4540660000000 1.0
C      1  0.5846310000000  0.4689540000000  0.5205860000000 1.0
C      1  0.4949630000000  0.4843880000000  0.4246760000000 1.0
C      1  0.4344230000000  0.5434040000000  0.4985730000000 1.0
C      1  0.5609240000000  0.4465740000000  0.4789300000000 1.0
C      1  0.5079780000000  0.5071490000000  0.5203640000000 1.0
C      1  0.5561270000000  0.5756870000000  0.4919130000000 1.0
C      1  0.5000990000000  0.4868520000000  0.4678830000000 1.0
C      1  0.5625720000000  0.4700680000000  0.5384290000000 1.0
C      1  0.5452010000000  0.4573880000000  0.4569100000000 1.0
C      1  0.4562110000000  0.4306860000000  0.4994370000000 1.0
C      1  0.5207570000000  0.4249090000000  0.5335370000000 1.0
C      1  0.4314910000000  0.5332220000000  0.4715120000000 1.0
C      1  0.4967950000000  0.4601860000000  0.4844820000000 1.0
C      1  0.5588850000000  0.5288790000000  0.4324470000000 1.0
C      1  0.5653270000000  0.5168070000000  0.4991170000000 1.0
C      1  0.5704170000000  0.5543900000000  0.5058980000000 1.0
C      1  0.5271760000000  0.4987890000000  0.4732730000000 1.0
C      1  0.4309620000000  0.4363910000000  0.5095520000000 1.0
C      1  0.4231600000000  0.4597460000000  0.5223350000000 1.0
C      1  0.4750110000000  0.4863250000000  0.5526640000000 1.0
C      1  0.4611300000000  0.5122010000000  0.5584350000000 1.0
C      1  0.5075970000000  0.4434220000000  0.5541570000000 1.0
C      1  0.5323990000000  0.5195200000000  0.5610420000000 1.0
C      1  0.5087050000000  0.5442450000000  0.4608140000000 1.0
C      1  0.5496310000000  0.4874830000000  0.4587080000000 1.0
C      1  0.4686150000000  0.5580920000000  0.4743310000000 1.0
C      1  0.5452400000000  0.5042360000000  0.4330810000000 1.0
C      1  0.5359880000000  0.4651310000000  0.5216810000000 1.0
C      1  0.5361520000000  0.4975320000000  0.5157660000000 1.0
C      1  0.4878940000000  0.5361360000000  0.4825140000000 1.0
C      1  0.4781520000000  0.5789060000000  0.5124970000000 1.0
C      1  0.5065680000000  0.5809140000000  0.5179440000000 1.0
C      1  0.5016070000000  0.5346390000000  0.5120800000000 1.0
C      1  0.4876680000000  0.5504620000000  0.5439910000000 1.0
C      1  0.4661840000000  0.4532520000000  0.4495740000000 1.0
C      1  0.4562650000000  0.5642480000000  0.5001350000000 1.0
END
