TITL C-951342-2639-560 -8.19011808861241e-07 125000 -1229.71309534419 0 0 196 (C1) n - 1
REM
REM in /home/bkarasulu/work/CARBON/AIRSS/Generating-Clusters/EDIP-Nigel-Params/with-SteepDescent/Only-C1/SD-CG/HFTN-CG
REM
REM
REM
REM
REM
REM ./C.cell (11c1c37f851c82e70ff6c80c92926a4b)
REM
REM compiler GCC version 9.2.1 20190827 (Red Hat 9.2.1-1)
REM options -cpp -mtune=generic -march=x86-64 -g -O0 -fpre-include=/usr/include/finclude/math-vector-fortran.h
REM seed 746327725 863306454 -995997358 708491139 848208402 1709048859 -132806490 1073836199 7381350 1614372523 1433940154 1273786001 491352772 45060372 -475378875 1638407119 -512541463 1214925989 1932476930 -812866235 734278640 1451605585 675821906 -637458482 209700042 -1711958627 1758264031 -2110488251 -322232766 -985150 -1449386072 -1841677613 1830640632
REM
CELL 1.54180   50.00000   50.00000   50.00000   90.00000   90.00000   90.00000
LATT -1
SFAC C  
C      1  0.5429100000000  0.4338040000000  0.4418510000000 1.0
C      1  0.5895260000000  0.4447080000000  0.4941670000000 1.0
C      1  0.3960320000000  0.4437930000000  0.4892880000000 1.0
C      1  0.4903570000000  0.5190630000000  0.3940980000000 1.0
C      1  0.5447130000000  0.5880910000000  0.5351790000000 1.0
C      1  0.5396840000000  0.4579180000000  0.5985190000000 1.0
C      1  0.3849430000000  0.4919350000000  0.5471070000000 1.0
C      1  0.5614640000000  0.4851120000000  0.5346590000000 1.0
C      1  0.5751090000000  0.4378210000000  0.5444660000000 1.0
C      1  0.4831400000000  0.4363270000000  0.4941380000000 1.0
C      1  0.3794920000000  0.4949660000000  0.4862560000000 1.0
C      1  0.5485370000000  0.5365950000000  0.5253190000000 1.0
C      1  0.4654910000000  0.5568930000000  0.4227330000000 1.0
C      1  0.4651830000000  0.4724260000000  0.4523540000000 1.0
C      1  0.4253980000000  0.4940180000000  0.4378640000000 1.0
C      1  0.3870930000000  0.5197340000000  0.5481390000000 1.0
C      1  0.4883380000000  0.5416330000000  0.4707250000000 1.0
C      1  0.5296370000000  0.4529880000000  0.5231220000000 1.0
C      1  0.5685600000000  0.5759590000000  0.5477450000000 1.0
C      1  0.5304450000000  0.4817950000000  0.4051190000000 1.0
C      1  0.5612720000000  0.5373500000000  0.4971000000000 1.0
C      1  0.4974330000000  0.5918930000000  0.4084270000000 1.0
C      1  0.4393230000000  0.5100340000000  0.5816640000000 1.0
C      1  0.5268790000000  0.4262350000000  0.5121430000000 1.0
C      1  0.5712310000000  0.5199900000000  0.4156070000000 1.0
C      1  0.4283360000000  0.4954870000000  0.5554150000000 1.0
C      1  0.5414420000000  0.5894120000000  0.4244120000000 1.0
C      1  0.6055830000000  0.4915540000000  0.4760210000000 1.0
C      1  0.5339220000000  0.5216980000000  0.4629120000000 1.0
C      1  0.4776770000000  0.6043670000000  0.4632290000000 1.0
C      1  0.5598830000000  0.4560720000000  0.4916090000000 1.0
C      1  0.5394120000000  0.5481740000000  0.4749680000000 1.0
C      1  0.4623230000000  0.5231800000000  0.3897170000000 1.0
C      1  0.5007780000000  0.3872490000000  0.4868270000000 1.0
C      1  0.4994300000000  0.4099170000000  0.5076170000000 1.0
C      1  0.6118530000000  0.5158710000000  0.5221320000000 1.0
C      1  0.6094440000000  0.4617410000000  0.4793110000000 1.0
C      1  0.4872420000000  0.4467350000000  0.4118110000000 1.0
C      1  0.5156830000000  0.4864140000000  0.5764750000000 1.0
C      1  0.4568320000000  0.4809700000000  0.4009990000000 1.0
C      1  0.5057990000000  0.5934660000000  0.4566900000000 1.0
C      1  0.4809440000000  0.5059710000000  0.5435440000000 1.0
C      1  0.4403050000000  0.5858940000000  0.5107950000000 1.0
C      1  0.4888960000000  0.4334610000000  0.5892570000000 1.0
C      1  0.5966090000000  0.4231850000000  0.4511330000000 1.0
C      1  0.6060020000000  0.4499210000000  0.4524260000000 1.0
C      1  0.5250720000000  0.4866000000000  0.4344500000000 1.0
C      1  0.4584440000000  0.4715940000000  0.5174550000000 1.0
C      1  0.4795370000000  0.6138320000000  0.5291560000000 1.0
C      1  0.4980520000000  0.5410880000000  0.5222120000000 1.0
C      1  0.5062460000000  0.4681090000000  0.5299690000000 1.0
C      1  0.4910940000000  0.4506870000000  0.6126340000000 1.0
C      1  0.5920400000000  0.5435670000000  0.4560700000000 1.0
C      1  0.4626030000000  0.5281670000000  0.4271470000000 1.0
C      1  0.4643280000000  0.5690350000000  0.5025890000000 1.0
C      1  0.4836380000000  0.4713170000000  0.3967490000000 1.0
C      1  0.5294710000000  0.5347870000000  0.4080630000000 1.0
C      1  0.5051030000000  0.5436000000000  0.3975520000000 1.0
C      1  0.3940580000000  0.5474300000000  0.5102750000000 1.0
C      1  0.5386830000000  0.5083100000000  0.5377000000000 1.0
C      1  0.5773470000000  0.5721780000000  0.5011550000000 1.0
C      1  0.5601200000000  0.5038030000000  0.5967080000000 1.0
C      1  0.4616650000000  0.4269360000000  0.5849360000000 1.0
C      1  0.4990660000000  0.4840940000000  0.4812180000000 1.0
C      1  0.4579110000000  0.5186930000000  0.5215960000000 1.0
C      1  0.4295100000000  0.5966570000000  0.4754610000000 1.0
C      1  0.4286530000000  0.4878700000000  0.4863190000000 1.0
C      1  0.5973610000000  0.4794090000000  0.5599540000000 1.0
C      1  0.6143100000000  0.5140630000000  0.4935670000000 1.0
C      1  0.4330780000000  0.4362700000000  0.4524600000000 1.0
C      1  0.3983410000000  0.5747780000000  0.5052470000000 1.0
C      1  0.5075570000000  0.5659870000000  0.5782890000000 1.0
C      1  0.5154590000000  0.5976570000000  0.4287600000000 1.0
C      1  0.4000270000000  0.4486550000000  0.5554740000000 1.0
C      1  0.4386820000000  0.4465790000000  0.4251480000000 1.0
C      1  0.5350320000000  0.4045650000000  0.5438650000000 1.0
C      1  0.5474580000000  0.6015500000000  0.4866300000000 1.0
C      1  0.4760310000000  0.4958820000000  0.4669470000000 1.0
C      1  0.5121200000000  0.5227850000000  0.6048310000000 1.0
C      1  0.4611210000000  0.5541190000000  0.4744040000000 1.0
C      1  0.5953630000000  0.4475070000000  0.5242330000000 1.0
C      1  0.5589910000000  0.4430810000000  0.4152250000000 1.0
C      1  0.5168310000000  0.5158020000000  0.4392750000000 1.0
C      1  0.4448330000000  0.4459780000000  0.5969480000000 1.0
C      1  0.5638310000000  0.4740620000000  0.5946510000000 1.0
C      1  0.5986140000000  0.4748000000000  0.5322230000000 1.0
C      1  0.5505240000000  0.6064960000000  0.5140280000000 1.0
C      1  0.5674300000000  0.5821670000000  0.4764180000000 1.0
C      1  0.5037910000000  0.6232110000000  0.4933880000000 1.0
C      1  0.5110940000000  0.5043160000000  0.4969240000000 1.0
C      1  0.5540950000000  0.4814270000000  0.4456300000000 1.0
C      1  0.5715650000000  0.5449380000000  0.5711170000000 1.0
C      1  0.5637070000000  0.4121130000000  0.5324540000000 1.0
C      1  0.4938960000000  0.5267840000000  0.4965460000000 1.0
C      1  0.4362820000000  0.5793160000000  0.5456160000000 1.0
C      1  0.3908650000000  0.5316450000000  0.4853600000000 1.0
C      1  0.4634430000000  0.4054250000000  0.4272400000000 1.0
C      1  0.5335060000000  0.4513710000000  0.4031540000000 1.0
C      1  0.4139530000000  0.5587350000000  0.5540500000000 1.0
C      1  0.4431630000000  0.5301370000000  0.4725810000000 1.0
C      1  0.5135090000000  0.4641850000000  0.4641680000000 1.0
C      1  0.5499430000000  0.4571240000000  0.5443820000000 1.0
C      1  0.3990300000000  0.4760240000000  0.5666010000000 1.0
C      1  0.5221710000000  0.6103750000000  0.4752340000000 1.0
C      1  0.4876050000000  0.3999110000000  0.5578190000000 1.0
C      1  0.4833930000000  0.4586770000000  0.5139600000000 1.0
C      1  0.5960640000000  0.4714690000000  0.4355770000000 1.0
C      1  0.5104250000000  0.5345370000000  0.5765940000000 1.0
C      1  0.5311110000000  0.4174730000000  0.5704930000000 1.0
C      1  0.5329120000000  0.4471760000000  0.5707590000000 1.0
C      1  0.4630790000000  0.5298600000000  0.5844770000000 1.0
C      1  0.4467750000000  0.4714230000000  0.5453450000000 1.0
C      1  0.4138160000000  0.5423600000000  0.4393780000000 1.0
C      1  0.4242070000000  0.4497020000000  0.5372140000000 1.0
C      1  0.5575820000000  0.5058430000000  0.4623160000000 1.0
C      1  0.4975830000000  0.4392780000000  0.4673860000000 1.0
C      1  0.5139520000000  0.3949630000000  0.4602230000000 1.0
C      1  0.4510830000000  0.6089370000000  0.5273210000000 1.0
C      1  0.5816990000000  0.4611140000000  0.5750850000000 1.0
C      1  0.5910230000000  0.5211470000000  0.4374680000000 1.0
C      1  0.5043840000000  0.4110420000000  0.5797650000000 1.0
C      1  0.5291690000000  0.5839600000000  0.5783060000000 1.0
C      1  0.4687680000000  0.4872640000000  0.5917540000000 1.0
C      1  0.4042810000000  0.5500610000000  0.4652670000000 1.0
C      1  0.5137150000000  0.4358760000000  0.4174660000000 1.0
C      1  0.4999310000000  0.4642610000000  0.5593420000000 1.0
C      1  0.5593990000000  0.5684670000000  0.4276450000000 1.0
C      1  0.5251110000000  0.5987510000000  0.5542890000000 1.0
C      1  0.5173290000000  0.5722810000000  0.4974060000000 1.0
C      1  0.5142030000000  0.4704070000000  0.6130120000000 1.0
C      1  0.4852510000000  0.5795020000000  0.5641990000000 1.0
C      1  0.4137370000000  0.4234410000000  0.5639340000000 1.0
C      1  0.4665260000000  0.4076100000000  0.4663030000000 1.0
C      1  0.6007920000000  0.5416080000000  0.5291950000000 1.0
C      1  0.4304020000000  0.5169180000000  0.5342080000000 1.0
C      1  0.4780940000000  0.6251740000000  0.4823470000000 1.0
C      1  0.4635080000000  0.4636960000000  0.6093910000000 1.0
C      1  0.5109200000000  0.5625820000000  0.4680680000000 1.0
C      1  0.4216500000000  0.5444120000000  0.5783970000000 1.0
C      1  0.4354030000000  0.5232130000000  0.4436950000000 1.0
C      1  0.4466510000000  0.5012840000000  0.3843890000000 1.0
C      1  0.5748170000000  0.4688880000000  0.4153440000000 1.0
C      1  0.4485150000000  0.5533310000000  0.5812250000000 1.0
C      1  0.4611540000000  0.5639980000000  0.5559020000000 1.0
C      1  0.4903110000000  0.5889940000000  0.5021990000000 1.0
C      1  0.4535660000000  0.5075190000000  0.4873070000000 1.0
C      1  0.5731570000000  0.5476950000000  0.5422160000000 1.0
C      1  0.5425570000000  0.4062810000000  0.4575100000000 1.0
C      1  0.5606870000000  0.4937570000000  0.4044040000000 1.0
C      1  0.5620190000000  0.4034510000000  0.4808800000000 1.0
C      1  0.6028390000000  0.5379730000000  0.4826650000000 1.0
C      1  0.4345090000000  0.4085050000000  0.5484470000000 1.0
C      1  0.4690160000000  0.5488690000000  0.5259980000000 1.0
C      1  0.4864290000000  0.5196810000000  0.4482820000000 1.0
C      1  0.4730340000000  0.4799260000000  0.5613320000000 1.0
C      1  0.6000170000000  0.5563360000000  0.5041040000000 1.0
C      1  0.4908570000000  0.5649480000000  0.4117680000000 1.0
C      1  0.4340220000000  0.4104960000000  0.5183730000000 1.0
C      1  0.4515430000000  0.5934750000000  0.4574170000000 1.0
C      1  0.3783070000000  0.4661840000000  0.5005540000000 1.0
C      1  0.4104020000000  0.5753270000000  0.4799610000000 1.0
C      1  0.5112330000000  0.4984630000000  0.5260870000000 1.0
C      1  0.4553920000000  0.4499220000000  0.4706930000000 1.0
C      1  0.5544550000000  0.4199350000000  0.5052480000000 1.0
C      1  0.5055270000000  0.3957050000000  0.5348410000000 1.0
C      1  0.5800130000000  0.5204700000000  0.5834980000000 1.0
C      1  0.5557990000000  0.5444240000000  0.4106620000000 1.0
C      1  0.5887590000000  0.4178260000000  0.4776540000000 1.0
C      1  0.5719100000000  0.5067670000000  0.4883290000000 1.0
C      1  0.4540440000000  0.3941910000000  0.5065670000000 1.0
C      1  0.4621480000000  0.4314820000000  0.4143120000000 1.0
C      1  0.5445410000000  0.4577430000000  0.4625180000000 1.0
C      1  0.4940750000000  0.4147970000000  0.4492730000000 1.0
C      1  0.4065350000000  0.5363310000000  0.5354160000000 1.0
C      1  0.4066910000000  0.4510880000000  0.4615600000000 1.0
C      1  0.4464730000000  0.4747770000000  0.4284560000000 1.0
C      1  0.5296980000000  0.5115900000000  0.5655940000000 1.0
C      1  0.5984510000000  0.5055190000000  0.5691660000000 1.0
C      1  0.4610080000000  0.4133950000000  0.5596780000000 1.0
C      1  0.4221550000000  0.4396190000000  0.5075190000000 1.0
C      1  0.4061900000000  0.4998750000000  0.5022120000000 1.0
C      1  0.4969490000000  0.5968150000000  0.5449070000000 1.0
C      1  0.5036630000000  0.4921530000000  0.3929900000000 1.0
C      1  0.4701510000000  0.3852060000000  0.4851540000000 1.0
C      1  0.4128420000000  0.4813880000000  0.4613670000000 1.0
C      1  0.5242170000000  0.5566450000000  0.5238810000000 1.0
C      1  0.3961750000000  0.4788270000000  0.5228520000000 1.0
C      1  0.5730950000000  0.5653720000000  0.4529460000000 1.0
C      1  0.5390590000000  0.5166960000000  0.6106070000000 1.0
C      1  0.4411040000000  0.4066310000000  0.4492580000000 1.0
C      1  0.4842620000000  0.5270820000000  0.5647580000000 1.0
C      1  0.6038570000000  0.4967880000000  0.4468450000000 1.0
C      1  0.4411440000000  0.4614970000000  0.4957810000000 1.0
C      1  0.5604970000000  0.4838270000000  0.5046080000000 1.0
C      1  0.4495820000000  0.5707190000000  0.4413570000000 1.0
C      1  0.4987750000000  0.4956380000000  0.6002010000000 1.0
END
