TITL C-951333-8791-482 -3.61807063294032e-06 125000 -780.957555021129 0 0 128 (C1) n - 1
REM
REM in /home/bkarasulu/work/CARBON/AIRSS/Generating-Clusters/EDIP-Nigel-Params/with-SteepDescent/Only-C1/SD-CG/HFTN-CG
REM
REM
REM
REM
REM
REM ./C.cell (11c1c37f851c82e70ff6c80c92926a4b)
REM
REM compiler GCC version 9.2.1 20190827 (Red Hat 9.2.1-1)
REM options -cpp -mtune=generic -march=x86-64 -g -O0 -fpre-include=/usr/include/finclude/math-vector-fortran.h
REM seed 1322640874 -970188135 -1405163590 424959300 -400978490 920026289 -977172779 -643613243 -1836546636 -286169043 4207367 992294382 1159783073 -1432481896 -1719460319 -647843655 -1211592459 -1682944561 94316533 -260394644 -1734839749 -576228972 124173329 -818304725 -245120992 -1438696276 -1788111445 -185900718 278726308 -1562439359 -1685059964 -1304794475 440799340
REM
CELL 1.54180   50.00000   50.00000   50.00000   90.00000   90.00000   90.00000
LATT -1
SFAC C  
C      1  0.4536150000000  0.4770840000000  0.4148750000000 1.0
C      1  0.4809120000000  0.4699620000000  0.5849380000000 1.0
C      1  0.4790360000000  0.4521300000000  0.5604580000000 1.0
C      1  0.5651440000000  0.5165110000000  0.4333990000000 1.0
C      1  0.5538420000000  0.4536560000000  0.5710200000000 1.0
C      1  0.4918250000000  0.5011590000000  0.3956510000000 1.0
C      1  0.5685450000000  0.5494380000000  0.5556350000000 1.0
C      1  0.5633010000000  0.5378170000000  0.5294110000000 1.0
C      1  0.5287470000000  0.4846930000000  0.5980110000000 1.0
C      1  0.4915660000000  0.4841640000000  0.5322420000000 1.0
C      1  0.4494340000000  0.4877270000000  0.5541530000000 1.0
C      1  0.5553860000000  0.4676660000000  0.4346470000000 1.0
C      1  0.5243040000000  0.5484700000000  0.5571200000000 1.0
C      1  0.4953700000000  0.5745490000000  0.5299440000000 1.0
C      1  0.4611950000000  0.5608150000000  0.5653630000000 1.0
C      1  0.4820400000000  0.4780240000000  0.4083570000000 1.0
C      1  0.5293410000000  0.4581650000000  0.4233730000000 1.0
C      1  0.5846870000000  0.5129540000000  0.4927890000000 1.0
C      1  0.5922680000000  0.4889090000000  0.4793520000000 1.0
C      1  0.5036830000000  0.4847120000000  0.4838700000000 1.0
C      1  0.4108260000000  0.5079430000000  0.5366270000000 1.0
C      1  0.5837240000000  0.5184710000000  0.5212150000000 1.0
C      1  0.4824060000000  0.5481500000000  0.5224690000000 1.0
C      1  0.5351560000000  0.5301550000000  0.4654170000000 1.0
C      1  0.4997870000000  0.4659830000000  0.4289450000000 1.0
C      1  0.5738340000000  0.5729140000000  0.5416880000000 1.0
C      1  0.4852150000000  0.5628750000000  0.4358060000000 1.0
C      1  0.5666630000000  0.4453080000000  0.4713430000000 1.0
C      1  0.4173090000000  0.5574290000000  0.5344050000000 1.0
C      1  0.4277210000000  0.5538260000000  0.4554090000000 1.0
C      1  0.5158690000000  0.4431850000000  0.5089860000000 1.0
C      1  0.4732540000000  0.4190240000000  0.4598280000000 1.0
C      1  0.4523400000000  0.5442390000000  0.5226830000000 1.0
C      1  0.4071800000000  0.5320310000000  0.4637550000000 1.0
C      1  0.5394940000000  0.4326850000000  0.5574720000000 1.0
C      1  0.4833240000000  0.4047190000000  0.5079320000000 1.0
C      1  0.5514490000000  0.5804170000000  0.5254740000000 1.0
C      1  0.5564340000000  0.5821860000000  0.4964400000000 1.0
C      1  0.5105650000000  0.4744430000000  0.5111100000000 1.0
C      1  0.5072530000000  0.5629970000000  0.5761100000000 1.0
C      1  0.5994130000000  0.4673680000000  0.4983820000000 1.0
C      1  0.5610450000000  0.4785630000000  0.5553890000000 1.0
C      1  0.4319180000000  0.4710090000000  0.4330600000000 1.0
C      1  0.5025030000000  0.5277330000000  0.5496050000000 1.0
C      1  0.4399150000000  0.5723620000000  0.5233340000000 1.0
C      1  0.4771410000000  0.4783410000000  0.4754720000000 1.0
C      1  0.4767480000000  0.5653070000000  0.4659990000000 1.0
C      1  0.3935210000000  0.4575930000000  0.5202050000000 1.0
C      1  0.4401600000000  0.5324050000000  0.4353160000000 1.0
C      1  0.4783940000000  0.4230910000000  0.5584640000000 1.0
C      1  0.5726680000000  0.4983230000000  0.5743250000000 1.0
C      1  0.5473670000000  0.4371850000000  0.5101450000000 1.0
C      1  0.5132290000000  0.5982320000000  0.4910700000000 1.0
C      1  0.4116660000000  0.5173980000000  0.4367720000000 1.0
C      1  0.5237280000000  0.4402600000000  0.4791480000000 1.0
C      1  0.4882150000000  0.5178660000000  0.5952090000000 1.0
C      1  0.5788850000000  0.5729340000000  0.4801520000000 1.0
C      1  0.4946270000000  0.5290020000000  0.3997690000000 1.0
C      1  0.4779070000000  0.5205310000000  0.4885150000000 1.0
C      1  0.4123670000000  0.4896200000000  0.4405980000000 1.0
C      1  0.5674720000000  0.5693980000000  0.4524140000000 1.0
C      1  0.5212270000000  0.5068700000000  0.4502110000000 1.0
C      1  0.4599520000000  0.5176130000000  0.4552220000000 1.0
C      1  0.4861400000000  0.4317040000000  0.4367570000000 1.0
C      1  0.4207620000000  0.5150580000000  0.4857980000000 1.0
C      1  0.5282360000000  0.3987560000000  0.5290270000000 1.0
C      1  0.4560600000000  0.4833350000000  0.4938010000000 1.0
C      1  0.4924020000000  0.5086110000000  0.4380090000000 1.0
C      1  0.5938490000000  0.4719930000000  0.5274570000000 1.0
C      1  0.4472990000000  0.5576780000000  0.4770970000000 1.0
C      1  0.4560570000000  0.4875880000000  0.5820490000000 1.0
C      1  0.4241350000000  0.4393270000000  0.4658900000000 1.0
C      1  0.5860220000000  0.4431750000000  0.4914820000000 1.0
C      1  0.4214770000000  0.5335140000000  0.5507530000000 1.0
C      1  0.4982360000000  0.5440450000000  0.5947350000000 1.0
C      1  0.5055610000000  0.4171570000000  0.5244910000000 1.0
C      1  0.5222690000000  0.5491440000000  0.4836360000000 1.0
C      1  0.5230250000000  0.4231420000000  0.5793590000000 1.0
C      1  0.4475700000000  0.4247150000000  0.4689330000000 1.0
C      1  0.5374380000000  0.4843000000000  0.5182580000000 1.0
C      1  0.5355910000000  0.4566700000000  0.5941580000000 1.0
C      1  0.4910340000000  0.5954140000000  0.5074140000000 1.0
C      1  0.5365250000000  0.4925640000000  0.5452220000000 1.0
C      1  0.5561620000000  0.4241280000000  0.4562990000000 1.0
C      1  0.4425260000000  0.5816890000000  0.4953630000000 1.0
C      1  0.5174730000000  0.4029800000000  0.4708160000000 1.0
C      1  0.5319800000000  0.5794500000000  0.4803880000000 1.0
C      1  0.4687330000000  0.4887720000000  0.4490460000000 1.0
C      1  0.5531860000000  0.4719600000000  0.4730550000000 1.0
C      1  0.5428130000000  0.5854120000000  0.4524820000000 1.0
C      1  0.4684530000000  0.5946200000000  0.4895540000000 1.0
C      1  0.4853090000000  0.5749760000000  0.5594520000000 1.0
C      1  0.4198460000000  0.4628050000000  0.4855670000000 1.0
C      1  0.5081900000000  0.4981510000000  0.5538590000000 1.0
C      1  0.4601890000000  0.5162960000000  0.5864330000000 1.0
C      1  0.4930980000000  0.5452900000000  0.4799950000000 1.0
C      1  0.4216980000000  0.4832360000000  0.5482140000000 1.0
C      1  0.5029910000000  0.5243060000000  0.5179170000000 1.0
C      1  0.5738820000000  0.4901170000000  0.4454540000000 1.0
C      1  0.3939210000000  0.4755800000000  0.4983540000000 1.0
C      1  0.5365240000000  0.5125560000000  0.4238390000000 1.0
C      1  0.5515770000000  0.5007330000000  0.5927480000000 1.0
C      1  0.4484750000000  0.5325990000000  0.4951550000000 1.0
C      1  0.5592230000000  0.4643170000000  0.5149840000000 1.0
C      1  0.5259470000000  0.5638380000000  0.5310250000000 1.0
C      1  0.5213550000000  0.5373330000000  0.4111130000000 1.0
C      1  0.4228300000000  0.4454270000000  0.4386230000000 1.0
C      1  0.4679320000000  0.4124890000000  0.5329500000000 1.0
C      1  0.5822300000000  0.5352720000000  0.4760950000000 1.0
C      1  0.5284480000000  0.5398930000000  0.5116210000000 1.0
C      1  0.4483490000000  0.5355430000000  0.5658510000000 1.0
C      1  0.4988330000000  0.4106780000000  0.5733240000000 1.0
C      1  0.4205940000000  0.4603820000000  0.5297930000000 1.0
C      1  0.5157990000000  0.4289040000000  0.4286930000000 1.0
C      1  0.4914820000000  0.4107350000000  0.4799240000000 1.0
C      1  0.5915760000000  0.4979960000000  0.5408270000000 1.0
C      1  0.5141020000000  0.5597570000000  0.4306210000000 1.0
C      1  0.4328040000000  0.4887670000000  0.4737590000000 1.0
C      1  0.5323160000000  0.4118460000000  0.4476890000000 1.0
C      1  0.4668690000000  0.4690320000000  0.5394650000000 1.0
C      1  0.5481990000000  0.4184050000000  0.5338690000000 1.0
C      1  0.4758030000000  0.5393430000000  0.4211280000000 1.0
C      1  0.5232020000000  0.4710820000000  0.4652330000000 1.0
C      1  0.5281370000000  0.5837570000000  0.4288710000000 1.0
C      1  0.5619370000000  0.5378560000000  0.4548310000000 1.0
C      1  0.4482000000000  0.4602530000000  0.5135150000000 1.0
C      1  0.4008060000000  0.5045850000000  0.5070910000000 1.0
C      1  0.5022040000000  0.4923720000000  0.5842900000000 1.0
END
