TITL C-951334-9093-551 6.07317817708572e-05 125000 -429.442788025022 0 0 70 (C1) n - 1
REM
REM in /home/bkarasulu/work/CARBON/AIRSS/Generating-Clusters/EDIP-Nigel-Params/with-SteepDescent/Only-C1/SD-CG/HFTN-CG
REM
REM
REM
REM
REM
REM ./C.cell (11c1c37f851c82e70ff6c80c92926a4b)
REM
REM compiler GCC version 9.2.1 20190827 (Red Hat 9.2.1-1)
REM options -cpp -mtune=generic -march=x86-64 -g -O0 -fpre-include=/usr/include/finclude/math-vector-fortran.h
REM seed -1879443438 1196745530 1640969521 932183222 -1763808470 -403632918 -1489106261 637224359 -1960151847 1507310368 1112831345 971299575 -597026093 2112388340 1813119108 -1384276627 -8708735 1739545313 -1664964262 -187558718 -485763602 -1102994050 -188702469 -1703366392 -1620467419 245956366 459870622 -2043463257 1097973069 627236850 1789245900 1196741680 -1111583799
REM
CELL 1.54180   50.00000   50.00000   50.00000   90.00000   90.00000   90.00000
LATT -1
SFAC C  
C      1  0.5644500000000  0.5193980000000  0.5529770000000 1.0
C      1  0.5170190000000  0.4392400000000  0.5322270000000 1.0
C      1  0.4962810000000  0.5223040000000  0.5309620000000 1.0
C      1  0.4373080000000  0.5244990000000  0.5228220000000 1.0
C      1  0.5497180000000  0.4775150000000  0.4588530000000 1.0
C      1  0.5231250000000  0.4840260000000  0.4710820000000 1.0
C      1  0.4635990000000  0.4956240000000  0.4612040000000 1.0
C      1  0.4935150000000  0.4666450000000  0.5686220000000 1.0
C      1  0.4614820000000  0.5660440000000  0.5259380000000 1.0
C      1  0.5146000000000  0.5041190000000  0.5167050000000 1.0
C      1  0.4854410000000  0.4834960000000  0.5897350000000 1.0
C      1  0.4748690000000  0.4339630000000  0.5049560000000 1.0
C      1  0.4582860000000  0.4916940000000  0.5477110000000 1.0
C      1  0.5040630000000  0.4357360000000  0.5070400000000 1.0
C      1  0.4935270000000  0.4956710000000  0.4217610000000 1.0
C      1  0.4559600000000  0.4486800000000  0.5235040000000 1.0
C      1  0.4753610000000  0.5234140000000  0.4622990000000 1.0
C      1  0.4650610000000  0.4583590000000  0.4370160000000 1.0
C      1  0.5322860000000  0.5569300000000  0.4843690000000 1.0
C      1  0.5443940000000  0.4726310000000  0.5550750000000 1.0
C      1  0.5543170000000  0.5244970000000  0.4544760000000 1.0
C      1  0.5695460000000  0.4998050000000  0.4644570000000 1.0
C      1  0.4595520000000  0.5648930000000  0.4651970000000 1.0
C      1  0.4803620000000  0.4765690000000  0.5132490000000 1.0
C      1  0.5092270000000  0.4763620000000  0.5239420000000 1.0
C      1  0.5599930000000  0.4486900000000  0.4622860000000 1.0
C      1  0.5556920000000  0.4607030000000  0.5105580000000 1.0
C      1  0.5494020000000  0.5430580000000  0.5527880000000 1.0
C      1  0.5628440000000  0.4931520000000  0.5428950000000 1.0
C      1  0.4255230000000  0.4968660000000  0.4673940000000 1.0
C      1  0.4769100000000  0.4728480000000  0.4810210000000 1.0
C      1  0.5640270000000  0.4423780000000  0.4904730000000 1.0
C      1  0.5197860000000  0.4274670000000  0.4853370000000 1.0
C      1  0.5430220000000  0.5287860000000  0.4830280000000 1.0
C      1  0.5066020000000  0.5205840000000  0.4322000000000 1.0
C      1  0.5266200000000  0.5416340000000  0.5719350000000 1.0
C      1  0.5718840000000  0.5054650000000  0.4938050000000 1.0
C      1  0.5354180000000  0.5503550000000  0.5278860000000 1.0
C      1  0.4902440000000  0.5094280000000  0.5794050000000 1.0
C      1  0.5445530000000  0.5671250000000  0.5072990000000 1.0
C      1  0.4546010000000  0.5612220000000  0.4958010000000 1.0
C      1  0.4901950000000  0.5675460000000  0.5131850000000 1.0
C      1  0.4374110000000  0.4703950000000  0.5096280000000 1.0
C      1  0.4328240000000  0.4713100000000  0.4800580000000 1.0
C      1  0.4446790000000  0.5431270000000  0.4519190000000 1.0
C      1  0.5346410000000  0.5211490000000  0.4345580000000 1.0
C      1  0.4953390000000  0.4551440000000  0.4396260000000 1.0
C      1  0.5182610000000  0.5142920000000  0.5762860000000 1.0
C      1  0.4324050000000  0.5250080000000  0.4714630000000 1.0
C      1  0.5088130000000  0.4715690000000  0.4201770000000 1.0
C      1  0.5020950000000  0.4638850000000  0.4680150000000 1.0
C      1  0.4641300000000  0.4324530000000  0.4793320000000 1.0
C      1  0.5062010000000  0.5503730000000  0.5335000000000 1.0
C      1  0.4494250000000  0.4508010000000  0.4631380000000 1.0
C      1  0.5691760000000  0.4858870000000  0.5150390000000 1.0
C      1  0.4663420000000  0.4879450000000  0.4323440000000 1.0
C      1  0.5017090000000  0.5557540000000  0.4845520000000 1.0
C      1  0.4701800000000  0.4647540000000  0.5487320000000 1.0
C      1  0.4915860000000  0.5455720000000  0.4350930000000 1.0
C      1  0.4530270000000  0.5414560000000  0.5418650000000 1.0
C      1  0.4885400000000  0.5651890000000  0.4577750000000 1.0
C      1  0.5382370000000  0.4288360000000  0.4644900000000 1.0
C      1  0.5154130000000  0.4824620000000  0.5551500000000 1.0
C      1  0.5048930000000  0.5580690000000  0.5620140000000 1.0
C      1  0.4946890000000  0.5269330000000  0.4841420000000 1.0
C      1  0.5434850000000  0.4505680000000  0.5350810000000 1.0
C      1  0.4425440000000  0.4957530000000  0.5244230000000 1.0
C      1  0.4386820000000  0.5365470000000  0.4969920000000 1.0
C      1  0.5189420000000  0.5099070000000  0.4878720000000 1.0
C      1  0.4756630000000  0.5154380000000  0.5532590000000 1.0
END
