TITL C-950534-5965-202 -5.04652252931935e-07 125000 -816.856217089147 0 0 131 (C1) n - 1
REM
REM in /home/bkarasulu/work/CARBON/AIRSS/Generating-Clusters/EDIP-Nigel-Params/with-SteepDescent/Only-C1/SD-CG/HFTN-CG
REM
REM
REM
REM
REM
REM ./C.cell (11c1c37f851c82e70ff6c80c92926a4b)
REM
REM compiler GCC version 9.2.1 20190827 (Red Hat 9.2.1-1)
REM options -cpp -mtune=generic -march=x86-64 -g -O0 -fpre-include=/usr/include/finclude/math-vector-fortran.h
REM seed -1982204271 -118282290 1267691934 1917899938 -1045597119 -560285918 1733577495 -1057533862 2011776618 -1170779258 -1627751210 1063682586 513238064 -228012845 -830614926 -1273083725 -1113458344 -1111411272 1911691925 162820388 1595716793 -728775514 -1307756961 -888310200 135636438 -1072055228 -1509981303 -1579731523 -1892066567 -129517700 -1574230496 2118787387 -1151031391
REM
CELL 1.54180   50.00000   50.00000   50.00000   90.00000   90.00000   90.00000
LATT -1
SFAC C  
C      1  0.4941600000000  0.5597420000000  0.5196600000000 1.0
C      1  0.4762000000000  0.5399580000000  0.5749350000000 1.0
C      1  0.5512780000000  0.5850610000000  0.5354010000000 1.0
C      1  0.4550860000000  0.5481890000000  0.4919180000000 1.0
C      1  0.4490210000000  0.4719740000000  0.5961190000000 1.0
C      1  0.4314260000000  0.4982720000000  0.4912360000000 1.0
C      1  0.4671320000000  0.5941640000000  0.5210350000000 1.0
C      1  0.5776440000000  0.4616240000000  0.4781390000000 1.0
C      1  0.4954620000000  0.6033720000000  0.5153070000000 1.0
C      1  0.4978400000000  0.5804680000000  0.4719070000000 1.0
C      1  0.4230940000000  0.5648420000000  0.4544750000000 1.0
C      1  0.4851690000000  0.5103450000000  0.4098060000000 1.0
C      1  0.5910990000000  0.4692190000000  0.4528430000000 1.0
C      1  0.4516020000000  0.4494230000000  0.5789530000000 1.0
C      1  0.4794680000000  0.5048830000000  0.5396910000000 1.0
C      1  0.5260870000000  0.4065840000000  0.4836530000000 1.0
C      1  0.4571130000000  0.4441910000000  0.4686410000000 1.0
C      1  0.5520580000000  0.4337890000000  0.5569290000000 1.0
C      1  0.4641160000000  0.4700060000000  0.4576880000000 1.0
C      1  0.4704730000000  0.4193890000000  0.4597760000000 1.0
C      1  0.5073680000000  0.4748150000000  0.5753130000000 1.0
C      1  0.4882050000000  0.4997040000000  0.5978710000000 1.0
C      1  0.4432240000000  0.4749300000000  0.4361840000000 1.0
C      1  0.4169910000000  0.4849710000000  0.5145460000000 1.0
C      1  0.5623860000000  0.5132270000000  0.4723440000000 1.0
C      1  0.5163330000000  0.5948280000000  0.4540640000000 1.0
C      1  0.5342050000000  0.3948800000000  0.5325570000000 1.0
C      1  0.4129420000000  0.4927490000000  0.4673090000000 1.0
C      1  0.5308760000000  0.5273490000000  0.5276810000000 1.0
C      1  0.5528180000000  0.4463590000000  0.4273240000000 1.0
C      1  0.4827990000000  0.5625550000000  0.4175530000000 1.0
C      1  0.4185050000000  0.4669200000000  0.4531420000000 1.0
C      1  0.4681700000000  0.5846190000000  0.4702880000000 1.0
C      1  0.4543490000000  0.4254350000000  0.5087120000000 1.0
C      1  0.5634270000000  0.4364060000000  0.4777470000000 1.0
C      1  0.5545710000000  0.4925780000000  0.5696190000000 1.0
C      1  0.5296860000000  0.4584950000000  0.4122550000000 1.0
C      1  0.4296140000000  0.4505100000000  0.5571630000000 1.0
C      1  0.5863220000000  0.5477080000000  0.5053020000000 1.0
C      1  0.4674220000000  0.4505040000000  0.5218630000000 1.0
C      1  0.4176880000000  0.4948380000000  0.5656350000000 1.0
C      1  0.4522200000000  0.5619480000000  0.4560000000000 1.0
C      1  0.5726310000000  0.4688370000000  0.4290590000000 1.0
C      1  0.4980260000000  0.4897480000000  0.5234630000000 1.0
C      1  0.4234720000000  0.5150030000000  0.4510970000000 1.0
C      1  0.5817320000000  0.4757510000000  0.5039740000000 1.0
C      1  0.5468440000000  0.5425930000000  0.5828070000000 1.0
C      1  0.4086110000000  0.5401570000000  0.4554970000000 1.0
C      1  0.4293130000000  0.5312890000000  0.4989820000000 1.0
C      1  0.4536180000000  0.5807400000000  0.4967270000000 1.0
C      1  0.4071730000000  0.5449550000000  0.4838360000000 1.0
C      1  0.5458970000000  0.5867600000000  0.4601240000000 1.0
C      1  0.5371720000000  0.4878980000000  0.4970660000000 1.0
C      1  0.5676880000000  0.4595750000000  0.5550160000000 1.0
C      1  0.5491410000000  0.5418750000000  0.4379140000000 1.0
C      1  0.6041420000000  0.4941030000000  0.4532220000000 1.0
C      1  0.4559480000000  0.5583910000000  0.5609510000000 1.0
C      1  0.4841070000000  0.4665200000000  0.4143010000000 1.0
C      1  0.5438230000000  0.4871530000000  0.5405450000000 1.0
C      1  0.5225620000000  0.5379800000000  0.5993210000000 1.0
C      1  0.5157970000000  0.4750430000000  0.5439780000000 1.0
C      1  0.4985980000000  0.5234130000000  0.4891790000000 1.0
C      1  0.5671100000000  0.5692330000000  0.5039400000000 1.0
C      1  0.4802540000000  0.5391460000000  0.5040850000000 1.0
C      1  0.4684770000000  0.4283940000000  0.4221090000000 1.0
C      1  0.5266050000000  0.4519220000000  0.5083730000000 1.0
C      1  0.4155620000000  0.4555440000000  0.5205930000000 1.0
C      1  0.4338450000000  0.5478200000000  0.5480960000000 1.0
C      1  0.5169610000000  0.5080380000000  0.5082540000000 1.0
C      1  0.5059180000000  0.4459630000000  0.5846970000000 1.0
C      1  0.5031210000000  0.4437200000000  0.4110620000000 1.0
C      1  0.5140510000000  0.4372040000000  0.5350240000000 1.0
C      1  0.5471840000000  0.5391540000000  0.4679620000000 1.0
C      1  0.5462700000000  0.5655430000000  0.4823020000000 1.0
C      1  0.5091130000000  0.6053870000000  0.5399750000000 1.0
C      1  0.5588370000000  0.5327640000000  0.5387210000000 1.0
C      1  0.5430830000000  0.4377850000000  0.4550080000000 1.0
C      1  0.5545020000000  0.5716490000000  0.4333880000000 1.0
C      1  0.4261100000000  0.4354810000000  0.5002380000000 1.0
C      1  0.5652490000000  0.5616200000000  0.5417710000000 1.0
C      1  0.4913300000000  0.5265370000000  0.5536210000000 1.0
C      1  0.4833960000000  0.5103560000000  0.4677050000000 1.0
C      1  0.5217710000000  0.4585070000000  0.4642840000000 1.0
C      1  0.5611880000000  0.5221930000000  0.5670370000000 1.0
C      1  0.4706560000000  0.5766960000000  0.5444880000000 1.0
C      1  0.4682400000000  0.5189130000000  0.4321560000000 1.0
C      1  0.5245180000000  0.4144920000000  0.4551890000000 1.0
C      1  0.5529490000000  0.4162060000000  0.5315370000000 1.0
C      1  0.4736380000000  0.4091050000000  0.4894910000000 1.0
C      1  0.5637380000000  0.4669230000000  0.5258850000000 1.0
C      1  0.5154150000000  0.5089700000000  0.6016350000000 1.0
C      1  0.4648850000000  0.4886850000000  0.4817510000000 1.0
C      1  0.4907180000000  0.4701020000000  0.4439490000000 1.0
C      1  0.4980790000000  0.4266150000000  0.4454190000000 1.0
C      1  0.5101790000000  0.5604460000000  0.4180490000000 1.0
C      1  0.4239040000000  0.5307140000000  0.5288740000000 1.0
C      1  0.5106230000000  0.5442300000000  0.5403060000000 1.0
C      1  0.5212620000000  0.5618740000000  0.5629060000000 1.0
C      1  0.4829210000000  0.4705910000000  0.5030430000000 1.0
C      1  0.4283480000000  0.4436920000000  0.4713490000000 1.0
C      1  0.5109170000000  0.5088460000000  0.4230620000000 1.0
C      1  0.5020630000000  0.4143180000000  0.4989120000000 1.0
C      1  0.5097950000000  0.4080720000000  0.5274340000000 1.0
C      1  0.4642170000000  0.5483690000000  0.4320530000000 1.0
C      1  0.4482960000000  0.4665050000000  0.5381150000000 1.0
C      1  0.4998770000000  0.5559900000000  0.5872260000000 1.0
C      1  0.4797110000000  0.4404830000000  0.5703780000000 1.0
C      1  0.5339360000000  0.4875600000000  0.4652950000000 1.0
C      1  0.4860560000000  0.4423640000000  0.5421940000000 1.0
C      1  0.5690070000000  0.5030760000000  0.5008510000000 1.0
C      1  0.5868930000000  0.5161700000000  0.4536580000000 1.0
C      1  0.5694480000000  0.5200860000000  0.4294410000000 1.0
C      1  0.5320440000000  0.4876170000000  0.5889470000000 1.0
C      1  0.5263770000000  0.5839730000000  0.4261190000000 1.0
C      1  0.5295210000000  0.4328440000000  0.5748170000000 1.0
C      1  0.5045430000000  0.4518150000000  0.4894210000000 1.0
C      1  0.5049580000000  0.4969080000000  0.4504580000000 1.0
C      1  0.5319780000000  0.4889650000000  0.4126180000000 1.0
C      1  0.4468820000000  0.4953990000000  0.5781560000000 1.0
C      1  0.5084790000000  0.5806560000000  0.4999730000000 1.0
C      1  0.5285860000000  0.5893180000000  0.5520070000000 1.0
C      1  0.4087710000000  0.4679230000000  0.5675250000000 1.0
C      1  0.4621280000000  0.4875180000000  0.5538850000000 1.0
C      1  0.4653690000000  0.5168920000000  0.5917580000000 1.0
C      1  0.4556730000000  0.4561720000000  0.4144600000000 1.0
C      1  0.5453860000000  0.4277020000000  0.5008130000000 1.0
C      1  0.4169320000000  0.5039080000000  0.5370110000000 1.0
C      1  0.5788370000000  0.5244030000000  0.5188370000000 1.0
C      1  0.5226910000000  0.5361190000000  0.4261750000000 1.0
C      1  0.5564800000000  0.4934940000000  0.4275580000000 1.0
C      1  0.4421960000000  0.5047150000000  0.4309240000000 1.0
END
