TITL C-950524-1808-181 -3.09504286530091e-07 125000 -196.44034530181 0 0 33 (C1) n - 1
REM
REM in /home/bkarasulu/work/CARBON/AIRSS/Generating-Clusters/EDIP-Nigel-Params/with-SteepDescent/Only-C1/SD-CG/HFTN-CG
REM
REM
REM
REM
REM
REM ./C.cell (11c1c37f851c82e70ff6c80c92926a4b)
REM
REM compiler GCC version 9.2.1 20190827 (Red Hat 9.2.1-1)
REM options -cpp -mtune=generic -march=x86-64 -g -O0 -fpre-include=/usr/include/finclude/math-vector-fortran.h
REM seed 1911455107 2110114569 1282119609 -2007576899 635752350 -723919569 732736258 -927588761 1958851624 1528356355 157821453 -690396154 -2145798967 1603394135 -532262774 -245948774 606699253 115549248 -935242547 -1960472832 -1143071289 -708676594 1439799588 -67186474 -1464121762 107305960 -816173837 -306086108 1542498942 -1226636050 -1499435061 -2068472639 1562195652
REM
CELL 1.54180   50.00000   50.00000   50.00000   90.00000   90.00000   90.00000
LATT -1
SFAC C  
C      1  0.4676320000000  0.4802010000000  0.4697430000000 1.0
C      1  0.4807700000000  0.5327630000000  0.4472170000000 1.0
C      1  0.5463250000000  0.4756620000000  0.5009880000000 1.0
C      1  0.5111310000000  0.4988320000000  0.4720130000000 1.0
C      1  0.5101470000000  0.5261750000000  0.4583750000000 1.0
C      1  0.4881390000000  0.4406100000000  0.4859580000000 1.0
C      1  0.5103720000000  0.5355720000000  0.5011890000000 1.0
C      1  0.4633800000000  0.4527500000000  0.4802290000000 1.0
C      1  0.4912000000000  0.5338030000000  0.5413450000000 1.0
C      1  0.4529490000000  0.5210240000000  0.4911790000000 1.0
C      1  0.5365800000000  0.5082040000000  0.5415740000000 1.0
C      1  0.4704160000000  0.4972910000000  0.4950080000000 1.0
C      1  0.4479820000000  0.4567220000000  0.5039890000000 1.0
C      1  0.4497800000000  0.5343260000000  0.5153590000000 1.0
C      1  0.4983360000000  0.4859170000000  0.5585780000000 1.0
C      1  0.5079660000000  0.5106230000000  0.5480260000000 1.0
C      1  0.4990710000000  0.5074230000000  0.4969650000000 1.0
C      1  0.5406680000000  0.5354230000000  0.4989150000000 1.0
C      1  0.4632500000000  0.4769820000000  0.5172050000000 1.0
C      1  0.5028140000000  0.5515600000000  0.5234820000000 1.0
C      1  0.4860710000000  0.5066400000000  0.4346170000000 1.0
C      1  0.5413460000000  0.4800360000000  0.5385630000000 1.0
C      1  0.5505500000000  0.5199560000000  0.4743540000000 1.0
C      1  0.5297310000000  0.4538290000000  0.5055700000000 1.0
C      1  0.5496020000000  0.5254740000000  0.5238310000000 1.0
C      1  0.4605650000000  0.5336740000000  0.4670920000000 1.0
C      1  0.5028080000000  0.4475150000000  0.5087150000000 1.0
C      1  0.5406640000000  0.4911640000000  0.4767340000000 1.0
C      1  0.4915670000000  0.4845380000000  0.4530910000000 1.0
C      1  0.5380820000000  0.5318750000000  0.4509330000000 1.0
C      1  0.4633610000000  0.5323310000000  0.5386710000000 1.0
C      1  0.5188700000000  0.4674890000000  0.5514520000000 1.0
C      1  0.4878730000000  0.4636200000000  0.5290410000000 1.0
END
