TITL C-951334-9093-104 -2.41176440867016e-06 125000 -477.262012926851 0 0 77 (C1) n - 1
REM
REM in /home/bkarasulu/work/CARBON/AIRSS/Generating-Clusters/EDIP-Nigel-Params/with-SteepDescent/Only-C1/SD-CG/HFTN-CG
REM
REM
REM
REM
REM
REM ./C.cell (11c1c37f851c82e70ff6c80c92926a4b)
REM
REM compiler GCC version 9.2.1 20190827 (Red Hat 9.2.1-1)
REM options -cpp -mtune=generic -march=x86-64 -g -O0 -fpre-include=/usr/include/finclude/math-vector-fortran.h
REM seed 2106913917 2028413116 -1174454382 -91901617 -564913844 400109563 -1626972599 931362966 1340962233 -1035599617 -1772215743 1261198992 -1101696905 -1341881609 1506952599 -600710812 -432282861 -2069482904 -1214693624 325773148 162117387 1927253130 -304241305 1044435747 -404355417 1514127271 -1223863600 1857240856 237092527 -1419826030 1365196141 1780083300 -1405878818
REM
CELL 1.54180   50.00000   50.00000   50.00000   90.00000   90.00000   90.00000
LATT -1
SFAC C  
C      1  0.5495360000000  0.4980880000000  0.5655650000000 1.0
C      1  0.5262170000000  0.5318190000000  0.4272290000000 1.0
C      1  0.4814050000000  0.4892660000000  0.5135860000000 1.0
C      1  0.5594330000000  0.5171170000000  0.5460990000000 1.0
C      1  0.5006540000000  0.4572580000000  0.4501540000000 1.0
C      1  0.5525290000000  0.4718050000000  0.5536110000000 1.0
C      1  0.4165830000000  0.5184690000000  0.5074870000000 1.0
C      1  0.5744830000000  0.5060870000000  0.4986170000000 1.0
C      1  0.4562160000000  0.4363820000000  0.5538540000000 1.0
C      1  0.5226320000000  0.4996560000000  0.5783170000000 1.0
C      1  0.5039610000000  0.4213070000000  0.5263720000000 1.0
C      1  0.5117860000000  0.5258300000000  0.5162420000000 1.0
C      1  0.5436390000000  0.5684500000000  0.5091680000000 1.0
C      1  0.4614000000000  0.4403610000000  0.4760260000000 1.0
C      1  0.5743770000000  0.5003680000000  0.5273350000000 1.0
C      1  0.4598550000000  0.4635630000000  0.4331240000000 1.0
C      1  0.5145790000000  0.5489130000000  0.4698660000000 1.0
C      1  0.5022580000000  0.5029100000000  0.5311630000000 1.0
C      1  0.4447870000000  0.4804060000000  0.4537400000000 1.0
C      1  0.5167860000000  0.4981600000000  0.4699920000000 1.0
C      1  0.4930370000000  0.5790080000000  0.5007130000000 1.0
C      1  0.4920610000000  0.5731590000000  0.5288350000000 1.0
C      1  0.5102230000000  0.5504070000000  0.5359920000000 1.0
C      1  0.4453870000000  0.4649760000000  0.4796470000000 1.0
C      1  0.4680640000000  0.5478550000000  0.5560530000000 1.0
C      1  0.4175150000000  0.4680890000000  0.4856130000000 1.0
C      1  0.5150300000000  0.4709790000000  0.5826850000000 1.0
C      1  0.4992160000000  0.5098160000000  0.5608770000000 1.0
C      1  0.4966180000000  0.5397820000000  0.5616380000000 1.0
C      1  0.5574660000000  0.5448760000000  0.5485370000000 1.0
C      1  0.4681920000000  0.5727520000000  0.4865160000000 1.0
C      1  0.5635280000000  0.5331820000000  0.4600690000000 1.0
C      1  0.4600280000000  0.5064420000000  0.4553590000000 1.0
C      1  0.4381540000000  0.5335750000000  0.5166510000000 1.0
C      1  0.4848670000000  0.4362030000000  0.4959910000000 1.0
C      1  0.4965960000000  0.4767310000000  0.4728570000000 1.0
C      1  0.4816830000000  0.4437520000000  0.5634780000000 1.0
C      1  0.5269040000000  0.4656010000000  0.5054720000000 1.0
C      1  0.4524360000000  0.5266810000000  0.5418280000000 1.0
C      1  0.4926180000000  0.5560200000000  0.4510620000000 1.0
C      1  0.4735800000000  0.4428930000000  0.4483900000000 1.0
C      1  0.5064070000000  0.4383290000000  0.5493190000000 1.0
C      1  0.5571590000000  0.4701700000000  0.4653480000000 1.0
C      1  0.5130610000000  0.4904000000000  0.4348050000000 1.0
C      1  0.4673210000000  0.5728650000000  0.5423700000000 1.0
C      1  0.4576950000000  0.5368560000000  0.4944870000000 1.0
C      1  0.5196470000000  0.5706050000000  0.4899630000000 1.0
C      1  0.5392320000000  0.4849140000000  0.4857510000000 1.0
C      1  0.5666050000000  0.5550100000000  0.5002440000000 1.0
C      1  0.4659300000000  0.5615020000000  0.4601390000000 1.0
C      1  0.4770920000000  0.5126890000000  0.4899570000000 1.0
C      1  0.4180200000000  0.5174290000000  0.4792970000000 1.0
C      1  0.4112850000000  0.4908590000000  0.4694920000000 1.0
C      1  0.5208640000000  0.4348870000000  0.4591610000000 1.0
C      1  0.5481930000000  0.4422500000000  0.4711370000000 1.0
C      1  0.4789690000000  0.5296490000000  0.4120850000000 1.0
C      1  0.5230190000000  0.4165340000000  0.5049760000000 1.0
C      1  0.4850140000000  0.4677100000000  0.5808280000000 1.0
C      1  0.4746860000000  0.4955570000000  0.5719140000000 1.0
C      1  0.4436480000000  0.5305150000000  0.4671860000000 1.0
C      1  0.4519280000000  0.4985290000000  0.5519590000000 1.0
C      1  0.5379380000000  0.5616960000000  0.5374900000000 1.0
C      1  0.4969160000000  0.4651860000000  0.4994180000000 1.0
C      1  0.5379050000000  0.5409250000000  0.4522210000000 1.0
C      1  0.4557000000000  0.4805410000000  0.5286390000000 1.0
C      1  0.5416380000000  0.4398500000000  0.5009360000000 1.0
C      1  0.5735010000000  0.4726350000000  0.5343120000000 1.0
C      1  0.5733630000000  0.5323520000000  0.4858900000000 1.0
C      1  0.4798210000000  0.4805460000000  0.4199880000000 1.0
C      1  0.5306420000000  0.5056900000000  0.4176680000000 1.0
C      1  0.4990570000000  0.5429970000000  0.4260930000000 1.0
C      1  0.5063910000000  0.4188670000000  0.4801830000000 1.0
C      1  0.5058370000000  0.5231090000000  0.4860720000000 1.0
C      1  0.5282770000000  0.4551480000000  0.5609690000000 1.0
C      1  0.4499250000000  0.4538100000000  0.5343410000000 1.0
C      1  0.4729280000000  0.5073540000000  0.4282080000000 1.0
C      1  0.5780700000000  0.4830360000000  0.4813450000000 1.0
END
