TITL C-950531-5884-248 -1.3668192528398e-06 125000 -1055.04053106811 0 0 169 (C1) n - 1
REM
REM in /home/bkarasulu/work/CARBON/AIRSS/Generating-Clusters/EDIP-Nigel-Params/with-SteepDescent/Only-C1/SD-CG/HFTN-CG
REM
REM
REM
REM
REM
REM ./C.cell (11c1c37f851c82e70ff6c80c92926a4b)
REM
REM compiler GCC version 9.2.1 20190827 (Red Hat 9.2.1-1)
REM options -cpp -mtune=generic -march=x86-64 -g -O0 -fpre-include=/usr/include/finclude/math-vector-fortran.h
REM seed 1159810904 -482273444 1134749888 2127268582 -1347908186 1657585479 1392339470 1998555820 -400726921 -786946663 -1619190467 -1745085556 -476126111 -1891945698 -705569380 1469899158 2124447140 -1598680430 -459473974 -1671674584 498158985 -679611850 -1246563764 227884214 -645673151 710944472 1069024645 1646948493 1371711436 -1642782515 2129192721 -1977439564 -1442341802
REM
CELL 1.54180   50.00000   50.00000   50.00000   90.00000   90.00000   90.00000
LATT -1
SFAC C  
C      1  0.5672100000000  0.5823490000000  0.4657580000000 1.0
C      1  0.4612870000000  0.4934530000000  0.5907330000000 1.0
C      1  0.5266570000000  0.5644370000000  0.4101850000000 1.0
C      1  0.4981320000000  0.5619010000000  0.4156470000000 1.0
C      1  0.5754510000000  0.4547310000000  0.4935770000000 1.0
C      1  0.5221470000000  0.4795150000000  0.6162170000000 1.0
C      1  0.5330650000000  0.4142870000000  0.4329850000000 1.0
C      1  0.4862060000000  0.5234270000000  0.5927280000000 1.0
C      1  0.4276890000000  0.4830170000000  0.4229610000000 1.0
C      1  0.4891190000000  0.5770970000000  0.4393570000000 1.0
C      1  0.4407900000000  0.5817400000000  0.5145590000000 1.0
C      1  0.4914550000000  0.4872500000000  0.4629100000000 1.0
C      1  0.5197800000000  0.5649320000000  0.4725510000000 1.0
C      1  0.4735280000000  0.4367780000000  0.5158320000000 1.0
C      1  0.4576950000000  0.5071480000000  0.3931740000000 1.0
C      1  0.4258550000000  0.5007260000000  0.5486790000000 1.0
C      1  0.5293090000000  0.5014550000000  0.5293480000000 1.0
C      1  0.4140280000000  0.4467880000000  0.4884110000000 1.0
C      1  0.5920570000000  0.5631010000000  0.5268420000000 1.0
C      1  0.5490270000000  0.4807950000000  0.4562820000000 1.0
C      1  0.5571790000000  0.5467030000000  0.5498590000000 1.0
C      1  0.5642340000000  0.4238150000000  0.4936450000000 1.0
C      1  0.4899660000000  0.3976070000000  0.4948970000000 1.0
C      1  0.5394880000000  0.4394620000000  0.5302900000000 1.0
C      1  0.5369900000000  0.4008720000000  0.5315810000000 1.0
C      1  0.5548570000000  0.5745180000000  0.5577520000000 1.0
C      1  0.4550240000000  0.5541260000000  0.4231760000000 1.0
C      1  0.4705620000000  0.4614930000000  0.4133080000000 1.0
C      1  0.5728110000000  0.4467960000000  0.5384040000000 1.0
C      1  0.5925770000000  0.5784940000000  0.5038690000000 1.0
C      1  0.5138170000000  0.4217040000000  0.4114210000000 1.0
C      1  0.5141520000000  0.5883070000000  0.5740910000000 1.0
C      1  0.5649180000000  0.4056700000000  0.5179970000000 1.0
C      1  0.4004210000000  0.5477680000000  0.4942280000000 1.0
C      1  0.4682150000000  0.5078090000000  0.4660470000000 1.0
C      1  0.5718210000000  0.5347560000000  0.4621090000000 1.0
C      1  0.5210600000000  0.4443720000000  0.4832600000000 1.0
C      1  0.4515460000000  0.5198080000000  0.5573970000000 1.0
C      1  0.4438780000000  0.4164440000000  0.5607650000000 1.0
C      1  0.5431300000000  0.4949200000000  0.4817900000000 1.0
C      1  0.5135330000000  0.4621840000000  0.4322460000000 1.0
C      1  0.5410600000000  0.4112840000000  0.4810610000000 1.0
C      1  0.4262530000000  0.5311350000000  0.4569980000000 1.0
C      1  0.5417390000000  0.5720300000000  0.4540590000000 1.0
C      1  0.4417840000000  0.4741280000000  0.5089110000000 1.0
C      1  0.4907950000000  0.4400580000000  0.4837880000000 1.0
C      1  0.5588610000000  0.4867190000000  0.5590930000000 1.0
C      1  0.5034660000000  0.5208180000000  0.4947460000000 1.0
C      1  0.4942360000000  0.4010050000000  0.5428420000000 1.0
C      1  0.4832930000000  0.5535330000000  0.5361090000000 1.0
C      1  0.4182750000000  0.5555500000000  0.4737030000000 1.0
C      1  0.4108790000000  0.5409560000000  0.5192740000000 1.0
C      1  0.5180580000000  0.5256810000000  0.5199100000000 1.0
C      1  0.4793930000000  0.5547320000000  0.5936690000000 1.0
C      1  0.4348440000000  0.4733650000000  0.5377890000000 1.0
C      1  0.4259470000000  0.4201760000000  0.4937380000000 1.0
C      1  0.4542640000000  0.5479770000000  0.5448840000000 1.0
C      1  0.4953780000000  0.4007010000000  0.4659270000000 1.0
C      1  0.5085610000000  0.4802030000000  0.5300160000000 1.0
C      1  0.5529630000000  0.4746530000000  0.5028720000000 1.0
C      1  0.4756960000000  0.4067460000000  0.4440850000000 1.0
C      1  0.5044610000000  0.4915660000000  0.4362070000000 1.0
C      1  0.5097640000000  0.5156670000000  0.6086860000000 1.0
C      1  0.4724730000000  0.4224620000000  0.5675370000000 1.0
C      1  0.3993830000000  0.4634040000000  0.5095900000000 1.0
C      1  0.4325540000000  0.4820620000000  0.5932930000000 1.0
C      1  0.5232680000000  0.5680690000000  0.5016490000000 1.0
C      1  0.4578560000000  0.5409350000000  0.4976170000000 1.0
C      1  0.5443640000000  0.5945350000000  0.5387980000000 1.0
C      1  0.5468620000000  0.5340900000000  0.5736540000000 1.0
C      1  0.4867640000000  0.4479610000000  0.4346280000000 1.0
C      1  0.6064150000000  0.4800040000000  0.5212220000000 1.0
C      1  0.4892220000000  0.5130410000000  0.5627430000000 1.0
C      1  0.6035910000000  0.5049330000000  0.5098460000000 1.0
C      1  0.4833740000000  0.4879250000000  0.5156820000000 1.0
C      1  0.4876440000000  0.5759510000000  0.5738140000000 1.0
C      1  0.4558170000000  0.5942930000000  0.4627480000000 1.0
C      1  0.4420110000000  0.4573450000000  0.4179440000000 1.0
C      1  0.5293350000000  0.4581840000000  0.5748860000000 1.0
C      1  0.4310050000000  0.4545460000000  0.5875310000000 1.0
C      1  0.4645050000000  0.5929020000000  0.5289410000000 1.0
C      1  0.4424870000000  0.5071900000000  0.4165740000000 1.0
C      1  0.4425300000000  0.5274750000000  0.5866440000000 1.0
C      1  0.5261770000000  0.4974960000000  0.5950440000000 1.0
C      1  0.4363730000000  0.5324270000000  0.4296330000000 1.0
C      1  0.5088610000000  0.3964520000000  0.5184090000000 1.0
C      1  0.5344450000000  0.4550850000000  0.4534920000000 1.0
C      1  0.5367490000000  0.5709430000000  0.5806350000000 1.0
C      1  0.4170250000000  0.4539840000000  0.4595300000000 1.0
C      1  0.5202190000000  0.4542070000000  0.6033210000000 1.0
C      1  0.4335030000000  0.5029370000000  0.4669630000000 1.0
C      1  0.5177670000000  0.4424860000000  0.5508230000000 1.0
C      1  0.5022850000000  0.6035310000000  0.4462390000000 1.0
C      1  0.5228710000000  0.4072080000000  0.4594140000000 1.0
C      1  0.4333840000000  0.4056190000000  0.4710060000000 1.0
C      1  0.5885230000000  0.4664650000000  0.4699610000000 1.0
C      1  0.4502550000000  0.5558280000000  0.5909400000000 1.0
C      1  0.5591800000000  0.4944850000000  0.4313910000000 1.0
C      1  0.4137510000000  0.5224090000000  0.5887270000000 1.0
C      1  0.6106100000000  0.5060550000000  0.4831380000000 1.0
C      1  0.4961790000000  0.5186020000000  0.4246700000000 1.0
C      1  0.4770690000000  0.5319130000000  0.4465220000000 1.0
C      1  0.4917960000000  0.5570570000000  0.4626600000000 1.0
C      1  0.4175050000000  0.4822010000000  0.4505810000000 1.0
C      1  0.4649360000000  0.5895030000000  0.5588710000000 1.0
C      1  0.5128660000000  0.4959380000000  0.4835170000000 1.0
C      1  0.5551340000000  0.4511010000000  0.4105260000000 1.0
C      1  0.4632480000000  0.3934500000000  0.5023980000000 1.0
C      1  0.4465850000000  0.4137020000000  0.4479090000000 1.0
C      1  0.4955160000000  0.4422740000000  0.6050360000000 1.0
C      1  0.5292480000000  0.4583990000000  0.5096540000000 1.0
C      1  0.4529710000000  0.5828520000000  0.4351910000000 1.0
C      1  0.4446320000000  0.5688800000000  0.5649330000000 1.0
C      1  0.4904210000000  0.4299210000000  0.5431100000000 1.0
C      1  0.5759590000000  0.4176130000000  0.5430720000000 1.0
C      1  0.4740340000000  0.5154140000000  0.4960120000000 1.0
C      1  0.4801580000000  0.4584610000000  0.4626460000000 1.0
C      1  0.5981460000000  0.4922330000000  0.4625150000000 1.0
C      1  0.4743970000000  0.4453540000000  0.5870720000000 1.0
C      1  0.5494470000000  0.5059990000000  0.5801330000000 1.0
C      1  0.4300080000000  0.4981420000000  0.4962070000000 1.0
C      1  0.4394590000000  0.5514890000000  0.5194980000000 1.0
C      1  0.5380480000000  0.5113870000000  0.4151080000000 1.0
C      1  0.4387100000000  0.5785020000000  0.4833370000000 1.0
C      1  0.4741810000000  0.5635020000000  0.4875670000000 1.0
C      1  0.5400000000000  0.5932140000000  0.5087080000000 1.0
C      1  0.4762490000000  0.5500150000000  0.4005350000000 1.0
C      1  0.5546300000000  0.4401030000000  0.5789410000000 1.0
C      1  0.5586140000000  0.4943520000000  0.5287920000000 1.0
C      1  0.5019000000000  0.4819400000000  0.5617390000000 1.0
C      1  0.4750660000000  0.4723790000000  0.5737080000000 1.0
C      1  0.5551500000000  0.4141350000000  0.5636670000000 1.0
C      1  0.5196870000000  0.6163450000000  0.5042080000000 1.0
C      1  0.5582330000000  0.5248450000000  0.4910210000000 1.0
C      1  0.5672840000000  0.5909750000000  0.4937560000000 1.0
C      1  0.5881080000000  0.5610680000000  0.4634410000000 1.0
C      1  0.5808800000000  0.5395030000000  0.5360170000000 1.0
C      1  0.5109290000000  0.4736400000000  0.3881930000000 1.0
C      1  0.4693380000000  0.4660470000000  0.5038020000000 1.0
C      1  0.5527610000000  0.4361030000000  0.4364920000000 1.0
C      1  0.5811850000000  0.5100180000000  0.4460790000000 1.0
C      1  0.4910030000000  0.5717290000000  0.5121450000000 1.0
C      1  0.5319440000000  0.5865770000000  0.4300520000000 1.0
C      1  0.4047880000000  0.5130290000000  0.5292160000000 1.0
C      1  0.4156580000000  0.4520470000000  0.5423850000000 1.0
C      1  0.5697450000000  0.4746110000000  0.4135650000000 1.0
C      1  0.4129650000000  0.4968140000000  0.5763670000000 1.0
C      1  0.5773410000000  0.5169390000000  0.5167160000000 1.0
C      1  0.4920920000000  0.6121310000000  0.4952810000000 1.0
C      1  0.4017430000000  0.4936670000000  0.5053160000000 1.0
C      1  0.4494850000000  0.4157330000000  0.5121580000000 1.0
C      1  0.5062770000000  0.6206080000000  0.5302990000000 1.0
C      1  0.4364980000000  0.4408320000000  0.4418240000000 1.0
C      1  0.4408270000000  0.4042600000000  0.5359480000000 1.0
C      1  0.4824640000000  0.5214050000000  0.3948430000000 1.0
C      1  0.5210220000000  0.6059820000000  0.5508630000000 1.0
C      1  0.5499460000000  0.5459260000000  0.4460960000000 1.0
C      1  0.5012960000000  0.5330960000000  0.5432060000000 1.0
C      1  0.5431540000000  0.5401490000000  0.4190500000000 1.0
C      1  0.4235250000000  0.4372030000000  0.5665250000000 1.0
C      1  0.5164990000000  0.5025320000000  0.3950760000000 1.0
C      1  0.4821180000000  0.6097230000000  0.4681220000000 1.0
C      1  0.6075020000000  0.5662810000000  0.4831870000000 1.0
C      1  0.4867700000000  0.4131030000000  0.4180900000000 1.0
C      1  0.5925130000000  0.4564970000000  0.5175240000000 1.0
C      1  0.5713650000000  0.4608250000000  0.5648230000000 1.0
C      1  0.5245760000000  0.4526390000000  0.4057820000000 1.0
C      1  0.5388030000000  0.5433850000000  0.5097640000000 1.0
C      1  0.4833450000000  0.4675400000000  0.3886850000000 1.0
END
