TITL C-951339-9237-672 3.91660408796136e-06 125000 -644.882850729115 0 0 104 (C1) n - 1
REM
REM in /home/bkarasulu/work/CARBON/AIRSS/Generating-Clusters/EDIP-Nigel-Params/with-SteepDescent/Only-C1/SD-CG/HFTN-CG
REM
REM
REM
REM
REM
REM ./C.cell (11c1c37f851c82e70ff6c80c92926a4b)
REM
REM compiler GCC version 9.2.1 20190827 (Red Hat 9.2.1-1)
REM options -cpp -mtune=generic -march=x86-64 -g -O0 -fpre-include=/usr/include/finclude/math-vector-fortran.h
REM seed 1770399007 1637910685 2034975871 -409102310 1595984985 938402656 -597193851 540646880 1416541427 523422381 -1156347606 -1358396064 536666483 409254193 -1947763294 2099889360 -1553359041 -627975610 -1512109051 699291191 112833520 -1383708766 1465289573 1303346022 -1209940529 774466343 1757764905 897083988 -1617404271 2137198008 1516043631 650740048 -1593262720
REM
CELL 1.54180   50.00000   50.00000   50.00000   90.00000   90.00000   90.00000
LATT -1
SFAC C  
C      1  0.4938280000000  0.4885880000000  0.5763940000000 1.0
C      1  0.4392340000000  0.4697690000000  0.4374850000000 1.0
C      1  0.4090830000000  0.4595000000000  0.5335390000000 1.0
C      1  0.5672840000000  0.4643750000000  0.4437600000000 1.0
C      1  0.5197430000000  0.5229910000000  0.4591360000000 1.0
C      1  0.4791760000000  0.4812950000000  0.5328690000000 1.0
C      1  0.5399170000000  0.5739580000000  0.4946580000000 1.0
C      1  0.5451500000000  0.4527880000000  0.4312690000000 1.0
C      1  0.5349470000000  0.5371800000000  0.4381770000000 1.0
C      1  0.4676010000000  0.5770680000000  0.5105650000000 1.0
C      1  0.4701180000000  0.5327860000000  0.4842580000000 1.0
C      1  0.5030390000000  0.5349810000000  0.5812490000000 1.0
C      1  0.5875210000000  0.4775580000000  0.5385090000000 1.0
C      1  0.3925290000000  0.4790130000000  0.5220530000000 1.0
C      1  0.5236960000000  0.5667320000000  0.5478650000000 1.0
C      1  0.4731640000000  0.4227560000000  0.5198630000000 1.0
C      1  0.5319280000000  0.5912490000000  0.5197450000000 1.0
C      1  0.4936060000000  0.5436810000000  0.4652550000000 1.0
C      1  0.4465690000000  0.5529320000000  0.5681240000000 1.0
C      1  0.4530170000000  0.4518170000000  0.5571580000000 1.0
C      1  0.5178830000000  0.4007320000000  0.4969520000000 1.0
C      1  0.4349190000000  0.5417320000000  0.5214970000000 1.0
C      1  0.5653540000000  0.5391990000000  0.5148570000000 1.0
C      1  0.5291570000000  0.5793130000000  0.4657450000000 1.0
C      1  0.5544720000000  0.4417400000000  0.4862410000000 1.0
C      1  0.5358840000000  0.4839340000000  0.5066270000000 1.0
C      1  0.5025470000000  0.4720450000000  0.4637480000000 1.0
C      1  0.4846110000000  0.5374420000000  0.5318720000000 1.0
C      1  0.4524530000000  0.4544190000000  0.4596890000000 1.0
C      1  0.4964130000000  0.4201420000000  0.5376850000000 1.0
C      1  0.5208980000000  0.4098940000000  0.5237380000000 1.0
C      1  0.5690670000000  0.5635490000000  0.4974720000000 1.0
C      1  0.4170730000000  0.5272000000000  0.4785670000000 1.0
C      1  0.5837100000000  0.4605440000000  0.5138030000000 1.0
C      1  0.5388250000000  0.5281570000000  0.5049510000000 1.0
C      1  0.4497500000000  0.4864170000000  0.5296760000000 1.0
C      1  0.4437630000000  0.5291040000000  0.4684230000000 1.0
C      1  0.4570280000000  0.5293420000000  0.5798760000000 1.0
C      1  0.5058110000000  0.4244100000000  0.4517980000000 1.0
C      1  0.4588490000000  0.5201050000000  0.4277290000000 1.0
C      1  0.4267150000000  0.4432250000000  0.4766160000000 1.0
C      1  0.4816460000000  0.4833660000000  0.4119410000000 1.0
C      1  0.4858180000000  0.5086910000000  0.4944440000000 1.0
C      1  0.4867810000000  0.5289150000000  0.4299230000000 1.0
C      1  0.4979890000000  0.4611330000000  0.4206250000000 1.0
C      1  0.5758050000000  0.4802820000000  0.4653140000000 1.0
C      1  0.4411680000000  0.5354430000000  0.4417540000000 1.0
C      1  0.4890550000000  0.4625950000000  0.5100320000000 1.0
C      1  0.5056660000000  0.5580180000000  0.5212430000000 1.0
C      1  0.4836500000000  0.4804670000000  0.4862060000000 1.0
C      1  0.3985080000000  0.5120140000000  0.4633410000000 1.0
C      1  0.4099530000000  0.4633160000000  0.4610700000000 1.0
C      1  0.5300370000000  0.4488020000000  0.5532380000000 1.0
C      1  0.4817150000000  0.5156380000000  0.5799710000000 1.0
C      1  0.4990740000000  0.5075590000000  0.4086910000000 1.0
C      1  0.5227890000000  0.4938080000000  0.5724990000000 1.0
C      1  0.5687150000000  0.4752890000000  0.5594100000000 1.0
C      1  0.5449430000000  0.5209010000000  0.4175760000000 1.0
C      1  0.5049150000000  0.4993030000000  0.4463730000000 1.0
C      1  0.4881980000000  0.5863570000000  0.4922550000000 1.0
C      1  0.5857940000000  0.5218630000000  0.5543810000000 1.0
C      1  0.5693810000000  0.5089260000000  0.4647900000000 1.0
C      1  0.4561750000000  0.4759390000000  0.4798750000000 1.0
C      1  0.5638570000000  0.4711990000000  0.4915920000000 1.0
C      1  0.5402760000000  0.5638580000000  0.4447330000000 1.0
C      1  0.5291360000000  0.5231460000000  0.5751550000000 1.0
C      1  0.4996900000000  0.5737120000000  0.4684300000000 1.0
C      1  0.5250850000000  0.5077770000000  0.5219700000000 1.0
C      1  0.4975490000000  0.5575390000000  0.5631750000000 1.0
C      1  0.5064690000000  0.4229600000000  0.4819120000000 1.0
C      1  0.5416310000000  0.5435700000000  0.5563300000000 1.0
C      1  0.5415220000000  0.5119960000000  0.4787460000000 1.0
C      1  0.4150450000000  0.5272040000000  0.5070590000000 1.0
C      1  0.5662310000000  0.4334210000000  0.5144560000000 1.0
C      1  0.4799330000000  0.4300900000000  0.4929800000000 1.0
C      1  0.5315730000000  0.4300570000000  0.4412200000000 1.0
C      1  0.4499150000000  0.4362250000000  0.5308300000000 1.0
C      1  0.5244080000000  0.4473360000000  0.4847190000000 1.0
C      1  0.4817730000000  0.4654430000000  0.5594760000000 1.0
C      1  0.5194750000000  0.4592100000000  0.5117100000000 1.0
C      1  0.5282350000000  0.4994820000000  0.4096420000000 1.0
C      1  0.5019420000000  0.4435270000000  0.5553560000000 1.0
C      1  0.5842390000000  0.5534470000000  0.4759260000000 1.0
C      1  0.5221080000000  0.5503560000000  0.4985480000000 1.0
C      1  0.5258220000000  0.4715260000000  0.4209210000000 1.0
C      1  0.4577940000000  0.4905180000000  0.4272110000000 1.0
C      1  0.5414130000000  0.4728880000000  0.5636820000000 1.0
C      1  0.4643730000000  0.5758790000000  0.5633510000000 1.0
C      1  0.4948160000000  0.5096120000000  0.5227950000000 1.0
C      1  0.4888280000000  0.4494930000000  0.4469520000000 1.0
C      1  0.4760650000000  0.5865860000000  0.5374340000000 1.0
C      1  0.5031390000000  0.5988380000000  0.5253800000000 1.0
C      1  0.5679020000000  0.5410830000000  0.5444460000000 1.0
C      1  0.4378430000000  0.4767320000000  0.5040400000000 1.0
C      1  0.5938850000000  0.5059140000000  0.5322860000000 1.0
C      1  0.4319870000000  0.4720450000000  0.5499090000000 1.0
C      1  0.4628910000000  0.5475420000000  0.5114840000000 1.0
C      1  0.4287770000000  0.4477030000000  0.5112450000000 1.0
C      1  0.5896800000000  0.5254660000000  0.4791420000000 1.0
C      1  0.5399510000000  0.4321720000000  0.5301700000000 1.0
C      1  0.4102830000000  0.4904520000000  0.5020280000000 1.0
C      1  0.3994220000000  0.4865470000000  0.4749850000000 1.0
C      1  0.4289090000000  0.5486640000000  0.5473800000000 1.0
C      1  0.5820190000000  0.5164990000000  0.5067460000000 1.0
END
