TITL C-950533-5798-248 2.18255971857381e-07 125000 -718.562406601384 0 0 115 (C1) n - 1
REM
REM in /home/bkarasulu/work/CARBON/AIRSS/Generating-Clusters/EDIP-Nigel-Params/with-SteepDescent/Only-C1/SD-CG/HFTN-CG
REM
REM
REM
REM
REM
REM ./C.cell (11c1c37f851c82e70ff6c80c92926a4b)
REM
REM compiler GCC version 9.2.1 20190827 (Red Hat 9.2.1-1)
REM options -cpp -mtune=generic -march=x86-64 -g -O0 -fpre-include=/usr/include/finclude/math-vector-fortran.h
REM seed -1887996490 1265862347 974524375 286516195 371205643 462582327 2059697043 278031809 -562371615 1305099409 42126214 565805398 607475785 -1809513604 235707993 1923322929 1620993485 352947150 1630262437 -685707970 1905265365 2037335453 -1252636278 2023615692 -459634280 1157775849 -1717707460 -503799725 -1992488604 1001438128 1116370798 -1258089571 1816691923
REM
CELL 1.54180   50.00000   50.00000   50.00000   90.00000   90.00000   90.00000
LATT -1
SFAC C  
C      1  0.4065790000000  0.5341660000000  0.5180910000000 1.0
C      1  0.4724260000000  0.4268190000000  0.4628440000000 1.0
C      1  0.4110190000000  0.4527370000000  0.5065800000000 1.0
C      1  0.5547550000000  0.5507290000000  0.4599030000000 1.0
C      1  0.4837450000000  0.5940730000000  0.4841930000000 1.0
C      1  0.5439560000000  0.5797700000000  0.5003450000000 1.0
C      1  0.5746480000000  0.4563170000000  0.4668900000000 1.0
C      1  0.5359920000000  0.4782620000000  0.5884860000000 1.0
C      1  0.5906450000000  0.4807620000000  0.4740770000000 1.0
C      1  0.5504550000000  0.4812170000000  0.4321620000000 1.0
C      1  0.4789510000000  0.4808190000000  0.4130930000000 1.0
C      1  0.5286490000000  0.4714710000000  0.4743780000000 1.0
C      1  0.5525600000000  0.5228350000000  0.5647920000000 1.0
C      1  0.4129830000000  0.4726170000000  0.5286020000000 1.0
C      1  0.5187150000000  0.5815430000000  0.4596030000000 1.0
C      1  0.4667230000000  0.5556660000000  0.5451100000000 1.0
C      1  0.4728270000000  0.4910460000000  0.4787740000000 1.0
C      1  0.4879520000000  0.5372760000000  0.4754000000000 1.0
C      1  0.4921810000000  0.5826330000000  0.5082750000000 1.0
C      1  0.4327610000000  0.5295690000000  0.4433920000000 1.0
C      1  0.5281950000000  0.4914250000000  0.4165420000000 1.0
C      1  0.5147610000000  0.5405770000000  0.4902490000000 1.0
C      1  0.4304400000000  0.4870700000000  0.5718090000000 1.0
C      1  0.5194510000000  0.5900880000000  0.5180110000000 1.0
C      1  0.5117600000000  0.5357680000000  0.5251200000000 1.0
C      1  0.4898920000000  0.5009210000000  0.5006020000000 1.0
C      1  0.4878560000000  0.5573430000000  0.5644970000000 1.0
C      1  0.4848660000000  0.4757580000000  0.5813700000000 1.0
C      1  0.4815990000000  0.5026350000000  0.5465610000000 1.0
C      1  0.4888230000000  0.5290510000000  0.4226680000000 1.0
C      1  0.5447400000000  0.5017460000000  0.5065510000000 1.0
C      1  0.4845980000000  0.5216110000000  0.5230790000000 1.0
C      1  0.5286430000000  0.4141690000000  0.5186600000000 1.0
C      1  0.4429090000000  0.5673580000000  0.4791660000000 1.0
C      1  0.4712820000000  0.5546630000000  0.4227790000000 1.0
C      1  0.5330040000000  0.5639840000000  0.4771170000000 1.0
C      1  0.5802850000000  0.5365650000000  0.5006940000000 1.0
C      1  0.5289960000000  0.4352620000000  0.4449570000000 1.0
C      1  0.4305370000000  0.5395660000000  0.4719420000000 1.0
C      1  0.4848720000000  0.5355800000000  0.5845130000000 1.0
C      1  0.4596540000000  0.4835510000000  0.5386000000000 1.0
C      1  0.5365030000000  0.4434390000000  0.5557650000000 1.0
C      1  0.5907270000000  0.5317320000000  0.5376830000000 1.0
C      1  0.5815950000000  0.5476940000000  0.4731420000000 1.0
C      1  0.5473540000000  0.4592060000000  0.4530810000000 1.0
C      1  0.5024670000000  0.4139720000000  0.5328630000000 1.0
C      1  0.4796420000000  0.4399720000000  0.4385410000000 1.0
C      1  0.5387460000000  0.4718670000000  0.5047240000000 1.0
C      1  0.4690470000000  0.5765870000000  0.4677020000000 1.0
C      1  0.4336310000000  0.4955060000000  0.5282780000000 1.0
C      1  0.4685960000000  0.5745610000000  0.5234580000000 1.0
C      1  0.4887900000000  0.4793820000000  0.4562270000000 1.0
C      1  0.5743710000000  0.5066120000000  0.4986100000000 1.0
C      1  0.5475770000000  0.5298340000000  0.4380490000000 1.0
C      1  0.5073620000000  0.4383280000000  0.5502820000000 1.0
C      1  0.4380300000000  0.4751580000000  0.4403910000000 1.0
C      1  0.5154660000000  0.4664440000000  0.5246320000000 1.0
C      1  0.5817090000000  0.4685410000000  0.5281890000000 1.0
C      1  0.5490930000000  0.4317030000000  0.5317930000000 1.0
C      1  0.5725080000000  0.5120770000000  0.5487870000000 1.0
C      1  0.5687630000000  0.4828810000000  0.5501150000000 1.0
C      1  0.5539120000000  0.5631560000000  0.5240360000000 1.0
C      1  0.4356420000000  0.4257990000000  0.4981510000000 1.0
C      1  0.4467700000000  0.4362630000000  0.4734390000000 1.0
C      1  0.5984260000000  0.5291420000000  0.4605300000000 1.0
C      1  0.4937360000000  0.5182840000000  0.4520530000000 1.0
C      1  0.5616920000000  0.4519680000000  0.5130940000000 1.0
C      1  0.5622480000000  0.5051370000000  0.4422480000000 1.0
C      1  0.5213070000000  0.5012000000000  0.4588490000000 1.0
C      1  0.4466450000000  0.4833310000000  0.4849520000000 1.0
C      1  0.5068890000000  0.4447290000000  0.4278300000000 1.0
C      1  0.5288130000000  0.5360670000000  0.5714040000000 1.0
C      1  0.5101810000000  0.5207700000000  0.5877880000000 1.0
C      1  0.5127140000000  0.4910210000000  0.5432250000000 1.0
C      1  0.4630850000000  0.4626620000000  0.4292520000000 1.0
C      1  0.5417380000000  0.4723360000000  0.5609620000000 1.0
C      1  0.5724060000000  0.4377480000000  0.4887450000000 1.0
C      1  0.4442580000000  0.5488350000000  0.4269620000000 1.0
C      1  0.4332240000000  0.4633680000000  0.4682440000000 1.0
C      1  0.4583180000000  0.4916740000000  0.5822020000000 1.0
C      1  0.5054740000000  0.5857410000000  0.4364510000000 1.0
C      1  0.4464120000000  0.5042730000000  0.4366160000000 1.0
C      1  0.4390630000000  0.5455820000000  0.5507640000000 1.0
C      1  0.5103250000000  0.4264770000000  0.4684160000000 1.0
C      1  0.4686030000000  0.5074720000000  0.4170620000000 1.0
C      1  0.5314270000000  0.5132960000000  0.5332440000000 1.0
C      1  0.4234890000000  0.5169450000000  0.5485890000000 1.0
C      1  0.5287570000000  0.5148020000000  0.4847610000000 1.0
C      1  0.5106460000000  0.4906600000000  0.5867940000000 1.0
C      1  0.4840240000000  0.4505070000000  0.5654080000000 1.0
C      1  0.4371690000000  0.5064200000000  0.5003120000000 1.0
C      1  0.4199570000000  0.4636920000000  0.5566010000000 1.0
C      1  0.4621580000000  0.5311890000000  0.4936330000000 1.0
C      1  0.4245320000000  0.5550500000000  0.5267980000000 1.0
C      1  0.5869590000000  0.5039720000000  0.4563740000000 1.0
C      1  0.5320090000000  0.5752450000000  0.5422860000000 1.0
C      1  0.4635210000000  0.5191110000000  0.5764540000000 1.0
C      1  0.4697820000000  0.4442370000000  0.5170940000000 1.0
C      1  0.5298580000000  0.4130250000000  0.4888110000000 1.0
C      1  0.4441090000000  0.5682430000000  0.5088100000000 1.0
C      1  0.4804410000000  0.4157750000000  0.5138710000000 1.0
C      1  0.5567070000000  0.4158170000000  0.4814670000000 1.0
C      1  0.4375370000000  0.4417900000000  0.5554920000000 1.0
C      1  0.5146390000000  0.5530700000000  0.5515170000000 1.0
C      1  0.4125580000000  0.5226460000000  0.4918060000000 1.0
C      1  0.5237760000000  0.5209860000000  0.4208550000000 1.0
C      1  0.4523810000000  0.4093090000000  0.5144390000000 1.0
C      1  0.4063170000000  0.4617150000000  0.4798110000000 1.0
C      1  0.5942800000000  0.4882180000000  0.5114270000000 1.0
C      1  0.4620180000000  0.4539120000000  0.5454580000000 1.0
C      1  0.5022620000000  0.4568640000000  0.4766360000000 1.0
C      1  0.4792670000000  0.5764950000000  0.4400360000000 1.0
C      1  0.5810770000000  0.5583170000000  0.5326270000000 1.0
C      1  0.5064330000000  0.4723590000000  0.4166510000000 1.0
C      1  0.4923730000000  0.4627900000000  0.5058710000000 1.0
END
