TITL C-951333-8791-62 -8.09931303021385e-07 125000 -978.752612757906 0 0 156 (C1) n - 1
REM
REM in /home/bkarasulu/work/CARBON/AIRSS/Generating-Clusters/EDIP-Nigel-Params/with-SteepDescent/Only-C1/SD-CG/HFTN-CG
REM
REM
REM
REM
REM
REM ./C.cell (11c1c37f851c82e70ff6c80c92926a4b)
REM
REM compiler GCC version 9.2.1 20190827 (Red Hat 9.2.1-1)
REM options -cpp -mtune=generic -march=x86-64 -g -O0 -fpre-include=/usr/include/finclude/math-vector-fortran.h
REM seed -1703555782 -872324657 821033385 1634718056 1297571011 -550478466 903809219 431360424 1142575801 -1353379582 -1855368463 1765235035 185271476 -791675607 -1872976964 1922534356 2155300 -2129202116 1736320094 -596849585 -1892246141 2003750939 -1056526440 -1438409858 28999607 952444319 1485473704 -1089924669 1790890841 1786351057 2018842978 1232250340 -1989150668
REM
CELL 1.54180   50.00000   50.00000   50.00000   90.00000   90.00000   90.00000
LATT -1
SFAC C  
C      1  0.5045070000000  0.4608780000000  0.4589990000000 1.0
C      1  0.5286380000000  0.3951620000000  0.4441410000000 1.0
C      1  0.5504820000000  0.5407960000000  0.4261640000000 1.0
C      1  0.5126080000000  0.5952110000000  0.4638350000000 1.0
C      1  0.4671330000000  0.5396450000000  0.4325970000000 1.0
C      1  0.4248710000000  0.5826010000000  0.4680060000000 1.0
C      1  0.5527370000000  0.5275160000000  0.4685390000000 1.0
C      1  0.5452800000000  0.5633760000000  0.4436650000000 1.0
C      1  0.4692050000000  0.5275490000000  0.4617140000000 1.0
C      1  0.4981780000000  0.4885030000000  0.4644420000000 1.0
C      1  0.4941580000000  0.5674890000000  0.4264450000000 1.0
C      1  0.5424180000000  0.4292320000000  0.5568900000000 1.0
C      1  0.4350400000000  0.4259360000000  0.5236030000000 1.0
C      1  0.5293440000000  0.5431110000000  0.5027370000000 1.0
C      1  0.5161450000000  0.5979870000000  0.5168860000000 1.0
C      1  0.5565070000000  0.5833950000000  0.4881010000000 1.0
C      1  0.4880040000000  0.5441590000000  0.5909770000000 1.0
C      1  0.4032910000000  0.5065630000000  0.4927260000000 1.0
C      1  0.4291780000000  0.5783530000000  0.5502990000000 1.0
C      1  0.4725580000000  0.5131950000000  0.5549580000000 1.0
C      1  0.5749430000000  0.4298050000000  0.4766030000000 1.0
C      1  0.4836700000000  0.5983990000000  0.4620770000000 1.0
C      1  0.4059130000000  0.4719060000000  0.5346940000000 1.0
C      1  0.4310220000000  0.4775850000000  0.5745090000000 1.0
C      1  0.4677840000000  0.5177910000000  0.4122800000000 1.0
C      1  0.4978930000000  0.4357250000000  0.4948070000000 1.0
C      1  0.5842690000000  0.4634340000000  0.5430140000000 1.0
C      1  0.5748950000000  0.4958640000000  0.5805410000000 1.0
C      1  0.4100510000000  0.4685270000000  0.5050480000000 1.0
C      1  0.4128460000000  0.5610120000000  0.4852580000000 1.0
C      1  0.5911290000000  0.5551160000000  0.4671910000000 1.0
C      1  0.5440820000000  0.5570450000000  0.5257140000000 1.0
C      1  0.5192170000000  0.5770300000000  0.4420360000000 1.0
C      1  0.4634040000000  0.5045360000000  0.5975530000000 1.0
C      1  0.5567940000000  0.5066900000000  0.5399280000000 1.0
C      1  0.4977990000000  0.4768050000000  0.5226170000000 1.0
C      1  0.4485550000000  0.4200780000000  0.5705990000000 1.0
C      1  0.5397280000000  0.5198090000000  0.6010620000000 1.0
C      1  0.4809970000000  0.4027130000000  0.5245020000000 1.0
C      1  0.4264560000000  0.4603350000000  0.5519810000000 1.0
C      1  0.5239430000000  0.3934210000000  0.4962880000000 1.0
C      1  0.4830240000000  0.4412610000000  0.4670250000000 1.0
C      1  0.5258050000000  0.5289650000000  0.4149470000000 1.0
C      1  0.4595040000000  0.4537430000000  0.4818180000000 1.0
C      1  0.5016800000000  0.5501770000000  0.5008730000000 1.0
C      1  0.5675190000000  0.5205380000000  0.4408860000000 1.0
C      1  0.4908030000000  0.5487460000000  0.5298010000000 1.0
C      1  0.5034310000000  0.4819750000000  0.4157050000000 1.0
C      1  0.4430130000000  0.5740000000000  0.4465380000000 1.0
C      1  0.4018740000000  0.4998980000000  0.5434970000000 1.0
C      1  0.5311730000000  0.4156110000000  0.4254480000000 1.0
C      1  0.4382080000000  0.5420300000000  0.5392860000000 1.0
C      1  0.4249530000000  0.4987660000000  0.4435660000000 1.0
C      1  0.5415340000000  0.4977670000000  0.4690170000000 1.0
C      1  0.4388210000000  0.4317470000000  0.4781320000000 1.0
C      1  0.5987590000000  0.4639560000000  0.4604670000000 1.0
C      1  0.5135860000000  0.4578130000000  0.4304410000000 1.0
C      1  0.5691670000000  0.4098010000000  0.4952920000000 1.0
C      1  0.5657700000000  0.5695620000000  0.4639370000000 1.0
C      1  0.4301090000000  0.4316700000000  0.5516700000000 1.0
C      1  0.4485150000000  0.4996880000000  0.5167180000000 1.0
C      1  0.5625860000000  0.4772390000000  0.4590990000000 1.0
C      1  0.5689090000000  0.5437130000000  0.5684300000000 1.0
C      1  0.5080540000000  0.5577220000000  0.5772020000000 1.0
C      1  0.4137600000000  0.4514540000000  0.4396480000000 1.0
C      1  0.5167540000000  0.5327220000000  0.4580650000000 1.0
C      1  0.4302340000000  0.4903660000000  0.4947050000000 1.0
C      1  0.4706680000000  0.5111540000000  0.5027730000000 1.0
C      1  0.4740870000000  0.4095290000000  0.5714050000000 1.0
C      1  0.4941940000000  0.5212000000000  0.5395920000000 1.0
C      1  0.5365160000000  0.4880980000000  0.5509580000000 1.0
C      1  0.5244170000000  0.4753770000000  0.5917260000000 1.0
C      1  0.4523110000000  0.4038360000000  0.5153860000000 1.0
C      1  0.4495660000000  0.5642420000000  0.4996140000000 1.0
C      1  0.4835610000000  0.5291280000000  0.3924090000000 1.0
C      1  0.4615350000000  0.5582090000000  0.5280400000000 1.0
C      1  0.4592450000000  0.4413820000000  0.4355140000000 1.0
C      1  0.4248130000000  0.5053130000000  0.5652290000000 1.0
C      1  0.5474260000000  0.4027580000000  0.5110020000000 1.0
C      1  0.5553930000000  0.5042590000000  0.5107290000000 1.0
C      1  0.4718170000000  0.4969720000000  0.4560990000000 1.0
C      1  0.4513410000000  0.4046710000000  0.4858760000000 1.0
C      1  0.4578770000000  0.4771840000000  0.5862410000000 1.0
C      1  0.4946440000000  0.5363870000000  0.4753940000000 1.0
C      1  0.6056170000000  0.4918790000000  0.5073970000000 1.0
C      1  0.5189560000000  0.5038590000000  0.4506440000000 1.0
C      1  0.4749470000000  0.4911870000000  0.4249250000000 1.0
C      1  0.4191960000000  0.5391340000000  0.5164990000000 1.0
C      1  0.4707170000000  0.5837990000000  0.4404390000000 1.0
C      1  0.5627660000000  0.4509270000000  0.5621310000000 1.0
C      1  0.5742020000000  0.5225250000000  0.4925030000000 1.0
C      1  0.5957140000000  0.4488680000000  0.4849960000000 1.0
C      1  0.5881670000000  0.4673920000000  0.5094710000000 1.0
C      1  0.5277130000000  0.5797820000000  0.5373520000000 1.0
C      1  0.5252820000000  0.5003000000000  0.4124580000000 1.0
C      1  0.4331400000000  0.4332650000000  0.4481560000000 1.0
C      1  0.5842820000000  0.4944330000000  0.5499610000000 1.0
C      1  0.4204100000000  0.4393900000000  0.5011660000000 1.0
C      1  0.5659370000000  0.5225510000000  0.5903120000000 1.0
C      1  0.4965450000000  0.4059030000000  0.4991660000000 1.0
C      1  0.5677200000000  0.5693610000000  0.5121240000000 1.0
C      1  0.4244730000000  0.5263780000000  0.4513400000000 1.0
C      1  0.4976080000000  0.5050890000000  0.5153360000000 1.0
C      1  0.4556200000000  0.4679030000000  0.4208780000000 1.0
C      1  0.5037040000000  0.5685190000000  0.5507900000000 1.0
C      1  0.4779350000000  0.4559920000000  0.5155020000000 1.0
C      1  0.5936870000000  0.5463250000000  0.5551290000000 1.0
C      1  0.4251110000000  0.5821020000000  0.5218950000000 1.0
C      1  0.5477060000000  0.4094030000000  0.5380290000000 1.0
C      1  0.4470380000000  0.5333500000000  0.4884000000000 1.0
C      1  0.5156900000000  0.4424600000000  0.5536390000000 1.0
C      1  0.5278590000000  0.4462500000000  0.4869890000000 1.0
C      1  0.4777970000000  0.4650820000000  0.5679870000000 1.0
C      1  0.6050260000000  0.5077350000000  0.5317260000000 1.0
C      1  0.4477830000000  0.4801750000000  0.4694120000000 1.0
C      1  0.5268470000000  0.5133030000000  0.5020420000000 1.0
C      1  0.5928540000000  0.4526710000000  0.4353660000000 1.0
C      1  0.6024240000000  0.5372080000000  0.5298930000000 1.0
C      1  0.5057360000000  0.4308780000000  0.4183690000000 1.0
C      1  0.5292910000000  0.3872530000000  0.4697440000000 1.0
C      1  0.5455770000000  0.4422320000000  0.4346080000000 1.0
C      1  0.5279800000000  0.5929330000000  0.4893190000000 1.0
C      1  0.5965870000000  0.5095730000000  0.4755360000000 1.0
C      1  0.4387940000000  0.5472980000000  0.4360340000000 1.0
C      1  0.4782560000000  0.3981120000000  0.4767380000000 1.0
C      1  0.4684880000000  0.6147680000000  0.4796580000000 1.0
C      1  0.4462720000000  0.5134940000000  0.5440310000000 1.0
C      1  0.4864830000000  0.4212050000000  0.5479570000000 1.0
C      1  0.4909850000000  0.5153120000000  0.5949970000000 1.0
C      1  0.5504430000000  0.5356970000000  0.5473040000000 1.0
C      1  0.4680280000000  0.4461090000000  0.5449300000000 1.0
C      1  0.4602990000000  0.5501510000000  0.5826240000000 1.0
C      1  0.5024450000000  0.5447240000000  0.4065480000000 1.0
C      1  0.5171440000000  0.5029740000000  0.6012230000000 1.0
C      1  0.5879200000000  0.5484430000000  0.5042980000000 1.0
C      1  0.5629990000000  0.4844870000000  0.4294670000000 1.0
C      1  0.4800380000000  0.4201490000000  0.4286560000000 1.0
C      1  0.4819020000000  0.5889570000000  0.5520560000000 1.0
C      1  0.4076630000000  0.5325520000000  0.4741210000000 1.0
C      1  0.5688910000000  0.4566490000000  0.4206040000000 1.0
C      1  0.5605450000000  0.4765460000000  0.5029540000000 1.0
C      1  0.5502830000000  0.4761750000000  0.5748320000000 1.0
C      1  0.4873330000000  0.6029250000000  0.5258980000000 1.0
C      1  0.5398060000000  0.4583040000000  0.5108830000000 1.0
C      1  0.4660510000000  0.6046590000000  0.5063510000000 1.0
C      1  0.5046230000000  0.4574750000000  0.5777050000000 1.0
C      1  0.4305230000000  0.6081900000000  0.4804790000000 1.0
C      1  0.4284900000000  0.4736700000000  0.4303870000000 1.0
C      1  0.5518930000000  0.4465010000000  0.4651720000000 1.0
C      1  0.4369470000000  0.6054540000000  0.5093200000000 1.0
C      1  0.3981820000000  0.5183610000000  0.5201410000000 1.0
C      1  0.4436020000000  0.5256020000000  0.5886910000000 1.0
C      1  0.4558150000000  0.5747070000000  0.5633080000000 1.0
C      1  0.5226360000000  0.4667190000000  0.5340210000000 1.0
C      1  0.5943410000000  0.5293700000000  0.4531860000000 1.0
C      1  0.4836070000000  0.4019700000000  0.4495660000000 1.0
END
