TITL C-950531-5884-529 -1.43881994724031e-07 125000 -426.087843722821 0 0 69 (C1) n - 1
REM
REM in /home/bkarasulu/work/CARBON/AIRSS/Generating-Clusters/EDIP-Nigel-Params/with-SteepDescent/Only-C1/SD-CG/HFTN-CG
REM
REM
REM
REM
REM
REM ./C.cell (11c1c37f851c82e70ff6c80c92926a4b)
REM
REM compiler GCC version 9.2.1 20190827 (Red Hat 9.2.1-1)
REM options -cpp -mtune=generic -march=x86-64 -g -O0 -fpre-include=/usr/include/finclude/math-vector-fortran.h
REM seed -1583390451 1499807661 -1901279905 -2099830951 894489440 -1997999037 -10862470 1540679671 1006620103 1113284572 88206884 1369726683 -1211872679 712247210 1236107039 177679894 1862512738 317782949 839467692 168384445 -1244952945 246979209 -550413041 934659090 100794800 -209643077 -363074744 -1980853137 -151118912 -1570976812 -951828830 1497140348 186466994
REM
CELL 1.54180   50.00000   50.00000   50.00000   90.00000   90.00000   90.00000
LATT -1
SFAC C  
C      1  0.5394040000000  0.5363520000000  0.5269380000000 1.0
C      1  0.4934740000000  0.4557190000000  0.4462890000000 1.0
C      1  0.5480580000000  0.4317920000000  0.5262010000000 1.0
C      1  0.5258950000000  0.4062200000000  0.4922840000000 1.0
C      1  0.5420280000000  0.5323000000000  0.5560860000000 1.0
C      1  0.5497220000000  0.5268650000000  0.4652420000000 1.0
C      1  0.4737750000000  0.4767570000000  0.5107490000000 1.0
C      1  0.4866710000000  0.5277660000000  0.5015090000000 1.0
C      1  0.5115470000000  0.4936210000000  0.4258270000000 1.0
C      1  0.4269590000000  0.5132400000000  0.4973940000000 1.0
C      1  0.4492140000000  0.5305940000000  0.4589600000000 1.0
C      1  0.5011440000000  0.4778640000000  0.5005810000000 1.0
C      1  0.5396090000000  0.4236470000000  0.4748550000000 1.0
C      1  0.4984390000000  0.4289200000000  0.5263600000000 1.0
C      1  0.4489320000000  0.4578870000000  0.4836040000000 1.0
C      1  0.5370100000000  0.5660550000000  0.5248140000000 1.0
C      1  0.5145540000000  0.4588810000000  0.5665390000000 1.0
C      1  0.5433570000000  0.4730280000000  0.4640300000000 1.0
C      1  0.4820630000000  0.4984350000000  0.4286110000000 1.0
C      1  0.4968190000000  0.4895510000000  0.4737230000000 1.0
C      1  0.5246630000000  0.4170470000000  0.5198410000000 1.0
C      1  0.4869100000000  0.5725160000000  0.4649490000000 1.0
C      1  0.4949210000000  0.5755990000000  0.5141680000000 1.0
C      1  0.5157080000000  0.4946220000000  0.5170540000000 1.0
C      1  0.4957350000000  0.4506100000000  0.5458620000000 1.0
C      1  0.4304090000000  0.4972240000000  0.5228450000000 1.0
C      1  0.5557810000000  0.4529740000000  0.5094420000000 1.0
C      1  0.4582990000000  0.4809770000000  0.4692560000000 1.0
C      1  0.4871040000000  0.5011310000000  0.5732030000000 1.0
C      1  0.5163910000000  0.5445350000000  0.5651430000000 1.0
C      1  0.5121950000000  0.5220660000000  0.5189770000000 1.0
C      1  0.5294580000000  0.5158600000000  0.4217760000000 1.0
C      1  0.5478300000000  0.4496230000000  0.4816240000000 1.0
C      1  0.5638370000000  0.5290100000000  0.5101370000000 1.0
C      1  0.4663660000000  0.5169730000000  0.4144900000000 1.0
C      1  0.4621080000000  0.5379320000000  0.4331520000000 1.0
C      1  0.5421850000000  0.4600370000000  0.5617700000000 1.0
C      1  0.4982650000000  0.5192830000000  0.4742840000000 1.0
C      1  0.5383120000000  0.5693720000000  0.4948230000000 1.0
C      1  0.4396790000000  0.5048670000000  0.4701670000000 1.0
C      1  0.4460500000000  0.5527690000000  0.5231260000000 1.0
C      1  0.4765760000000  0.4241330000000  0.5075030000000 1.0
C      1  0.4711040000000  0.4743030000000  0.4425990000000 1.0
C      1  0.5559530000000  0.4815260000000  0.5499920000000 1.0
C      1  0.4760660000000  0.4018680000000  0.4905160000000 1.0
C      1  0.5110980000000  0.5704660000000  0.5377990000000 1.0
C      1  0.5648250000000  0.5004500000000  0.5016480000000 1.0
C      1  0.5148400000000  0.4760660000000  0.4509360000000 1.0
C      1  0.4704560000000  0.4642000000000  0.5471580000000 1.0
C      1  0.5036230000000  0.5311100000000  0.4466070000000 1.0
C      1  0.4394230000000  0.5533320000000  0.4745010000000 1.0
C      1  0.5091770000000  0.5712740000000  0.4875410000000 1.0
C      1  0.5045940000000  0.4807920000000  0.5806460000000 1.0
C      1  0.4967160000000  0.5271740000000  0.5741080000000 1.0
C      1  0.4553320000000  0.4431090000000  0.5062170000000 1.0
C      1  0.5502400000000  0.5061980000000  0.5618130000000 1.0
C      1  0.5543120000000  0.4988100000000  0.4742060000000 1.0
C      1  0.5572920000000  0.4793780000000  0.5207530000000 1.0
C      1  0.4693180000000  0.4923400000000  0.5521850000000 1.0
C      1  0.4867270000000  0.5552820000000  0.4391690000000 1.0
C      1  0.4717550000000  0.5573290000000  0.5072670000000 1.0
C      1  0.5014330000000  0.3956630000000  0.4841050000000 1.0
C      1  0.4636720000000  0.5053380000000  0.5056570000000 1.0
C      1  0.4466260000000  0.5351150000000  0.5447130000000 1.0
C      1  0.5577100000000  0.5464060000000  0.4859740000000 1.0
C      1  0.4620420000000  0.5707160000000  0.4818970000000 1.0
C      1  0.5347750000000  0.5363340000000  0.4418070000000 1.0
C      1  0.4453460000000  0.5073200000000  0.5453440000000 1.0
C      1  0.4280850000000  0.5434470000000  0.5006560000000 1.0
END
