TITL C-951344-124-74 -2.38947937657315e-06 125000 -911.483262116777 0 0 145 (C1) n - 1
REM
REM in /home/bkarasulu/work/CARBON/AIRSS/Generating-Clusters/EDIP-Nigel-Params/with-SteepDescent/Only-C1/SD-CG/HFTN-CG
REM
REM
REM
REM
REM
REM ./C.cell (11c1c37f851c82e70ff6c80c92926a4b)
REM
REM compiler GCC version 9.2.1 20190827 (Red Hat 9.2.1-1)
REM options -cpp -mtune=generic -march=x86-64 -g -O0 -fpre-include=/usr/include/finclude/math-vector-fortran.h
REM seed -863482325 -446812091 -935658891 -871451512 -24446332 -187892528 -2146981824 1398388388 553667948 1213262027 -1769135415 -1741134812 -1624507669 955622560 -640279546 -327757361 -1965138867 995254624 1386076475 -2007655705 -2137218200 2048188375 -971506759 24395686 764398223 -1405982161 -2080751499 -156801314 -823341036 -42722704 1063366653 1559404848 1540604841
REM
CELL 1.54180   50.00000   50.00000   50.00000   90.00000   90.00000   90.00000
LATT -1
SFAC C  
C      1  0.5766090000000  0.4554660000000  0.5459840000000 1.0
C      1  0.4235370000000  0.5800910000000  0.4671680000000 1.0
C      1  0.5919370000000  0.5637560000000  0.4553550000000 1.0
C      1  0.4992220000000  0.4460740000000  0.4984190000000 1.0
C      1  0.5841490000000  0.4904290000000  0.4685700000000 1.0
C      1  0.4202760000000  0.5377120000000  0.4414690000000 1.0
C      1  0.5573680000000  0.4474920000000  0.5667550000000 1.0
C      1  0.4216280000000  0.5654680000000  0.4418230000000 1.0
C      1  0.4625310000000  0.5280150000000  0.4205420000000 1.0
C      1  0.5505340000000  0.5785460000000  0.4673100000000 1.0
C      1  0.5846220000000  0.4365190000000  0.5245380000000 1.0
C      1  0.5587770000000  0.5456680000000  0.4302650000000 1.0
C      1  0.5013250000000  0.5375530000000  0.5086610000000 1.0
C      1  0.4170070000000  0.4430570000000  0.4367840000000 1.0
C      1  0.5762670000000  0.4329250000000  0.4757470000000 1.0
C      1  0.4809160000000  0.4695310000000  0.4341140000000 1.0
C      1  0.4849550000000  0.6042210000000  0.4983960000000 1.0
C      1  0.5283270000000  0.5563790000000  0.5555160000000 1.0
C      1  0.4921520000000  0.4914140000000  0.5234500000000 1.0
C      1  0.5338640000000  0.4839430000000  0.5478890000000 1.0
C      1  0.5073770000000  0.5694730000000  0.5382140000000 1.0
C      1  0.4982950000000  0.4387310000000  0.5623380000000 1.0
C      1  0.4959960000000  0.5188280000000  0.5320140000000 1.0
C      1  0.4689190000000  0.4325270000000  0.5552390000000 1.0
C      1  0.5244710000000  0.5637230000000  0.4088550000000 1.0
C      1  0.5443990000000  0.4232320000000  0.5651220000000 1.0
C      1  0.4662110000000  0.4135370000000  0.5328200000000 1.0
C      1  0.5480030000000  0.5280140000000  0.4742860000000 1.0
C      1  0.5314180000000  0.5279120000000  0.5194350000000 1.0
C      1  0.5204150000000  0.5842070000000  0.4679990000000 1.0
C      1  0.4250130000000  0.5368390000000  0.5402460000000 1.0
C      1  0.4212960000000  0.4451360000000  0.5375350000000 1.0
C      1  0.5069670000000  0.4751920000000  0.5400290000000 1.0
C      1  0.5920760000000  0.5480390000000  0.5004790000000 1.0
C      1  0.4107830000000  0.4383720000000  0.4863580000000 1.0
C      1  0.5443790000000  0.5683960000000  0.5137530000000 1.0
C      1  0.4198570000000  0.5138550000000  0.4783800000000 1.0
C      1  0.4493520000000  0.5011770000000  0.4818640000000 1.0
C      1  0.5444240000000  0.5441460000000  0.4047430000000 1.0
C      1  0.5622540000000  0.4070020000000  0.4844290000000 1.0
C      1  0.5103130000000  0.5504140000000  0.4318410000000 1.0
C      1  0.5205610000000  0.4516760000000  0.4164340000000 1.0
C      1  0.5379480000000  0.4795140000000  0.4931930000000 1.0
C      1  0.5163050000000  0.4059010000000  0.5317900000000 1.0
C      1  0.5784060000000  0.5259540000000  0.4359050000000 1.0
C      1  0.5258360000000  0.5227290000000  0.4484910000000 1.0
C      1  0.5936460000000  0.4487180000000  0.4975500000000 1.0
C      1  0.4264620000000  0.5677100000000  0.5347850000000 1.0
C      1  0.5182970000000  0.4177780000000  0.5574410000000 1.0
C      1  0.5418540000000  0.4594350000000  0.5186500000000 1.0
C      1  0.4529840000000  0.5472330000000  0.5036680000000 1.0
C      1  0.4499440000000  0.5001880000000  0.5114990000000 1.0
C      1  0.5259900000000  0.5629980000000  0.5830120000000 1.0
C      1  0.4296460000000  0.5450700000000  0.4832380000000 1.0
C      1  0.4187580000000  0.4721880000000  0.4361580000000 1.0
C      1  0.4672170000000  0.4789590000000  0.5202660000000 1.0
C      1  0.5670200000000  0.4582340000000  0.4318840000000 1.0
C      1  0.5361090000000  0.5136000000000  0.5469820000000 1.0
C      1  0.5004330000000  0.5721130000000  0.4503810000000 1.0
C      1  0.4244090000000  0.4286590000000  0.5117700000000 1.0
C      1  0.4184710000000  0.4669220000000  0.4846410000000 1.0
C      1  0.4730540000000  0.5723960000000  0.5711220000000 1.0
C      1  0.5415150000000  0.4049780000000  0.5172510000000 1.0
C      1  0.4626050000000  0.5229490000000  0.5736780000000 1.0
C      1  0.5129080000000  0.4491900000000  0.5271310000000 1.0
C      1  0.4595370000000  0.5003830000000  0.4114650000000 1.0
C      1  0.4459720000000  0.4763760000000  0.5708910000000 1.0
C      1  0.5575430000000  0.5577640000000  0.4882470000000 1.0
C      1  0.4634440000000  0.4092140000000  0.4843730000000 1.0
C      1  0.4738270000000  0.5698650000000  0.4616500000000 1.0
C      1  0.5864720000000  0.4801250000000  0.4381670000000 1.0
C      1  0.4460140000000  0.4515610000000  0.5545520000000 1.0
C      1  0.5774320000000  0.5207130000000  0.4648690000000 1.0
C      1  0.5966180000000  0.4802930000000  0.4957720000000 1.0
C      1  0.5141030000000  0.4642730000000  0.4774720000000 1.0
C      1  0.5777020000000  0.4990250000000  0.5692710000000 1.0
C      1  0.5272280000000  0.5935750000000  0.5159390000000 1.0
C      1  0.5067990000000  0.5976160000000  0.5481490000000 1.0
C      1  0.5294030000000  0.4458800000000  0.4594390000000 1.0
C      1  0.5566670000000  0.4314660000000  0.5142160000000 1.0
C      1  0.5192380000000  0.4188120000000  0.4552340000000 1.0
C      1  0.4099990000000  0.4813620000000  0.5089160000000 1.0
C      1  0.4720630000000  0.5312840000000  0.5446890000000 1.0
C      1  0.4029280000000  0.4681090000000  0.5336730000000 1.0
C      1  0.5418940000000  0.5004820000000  0.4241900000000 1.0
C      1  0.4030860000000  0.5085210000000  0.5036290000000 1.0
C      1  0.5668500000000  0.5707890000000  0.4432460000000 1.0
C      1  0.4910540000000  0.4803220000000  0.5936210000000 1.0
C      1  0.5867900000000  0.5274230000000  0.5200120000000 1.0
C      1  0.5355150000000  0.3990890000000  0.4738070000000 1.0
C      1  0.5038360000000  0.4986450000000  0.6098100000000 1.0
C      1  0.4497180000000  0.4668300000000  0.4787430000000 1.0
C      1  0.5094330000000  0.4600940000000  0.5819060000000 1.0
C      1  0.5840920000000  0.4834470000000  0.5448750000000 1.0
C      1  0.4526790000000  0.5871200000000  0.4731510000000 1.0
C      1  0.5398030000000  0.5102300000000  0.4969470000000 1.0
C      1  0.5194230000000  0.5203970000000  0.6042270000000 1.0
C      1  0.5588750000000  0.4762480000000  0.4730230000000 1.0
C      1  0.4785000000000  0.5433840000000  0.4887530000000 1.0
C      1  0.4077540000000  0.5655780000000  0.4899630000000 1.0
C      1  0.4511080000000  0.4478230000000  0.4543530000000 1.0
C      1  0.4894490000000  0.5370220000000  0.4145930000000 1.0
C      1  0.5093180000000  0.4147580000000  0.4889960000000 1.0
C      1  0.4765600000000  0.5618040000000  0.5433690000000 1.0
C      1  0.4942350000000  0.4447240000000  0.4234370000000 1.0
C      1  0.4083860000000  0.4832160000000  0.4612300000000 1.0
C      1  0.5922980000000  0.4976050000000  0.5203160000000 1.0
C      1  0.5074040000000  0.5438860000000  0.5924090000000 1.0
C      1  0.4693860000000  0.4922850000000  0.5776890000000 1.0
C      1  0.4919330000000  0.4217810000000  0.4422170000000 1.0
C      1  0.4588530000000  0.5951710000000  0.5009500000000 1.0
C      1  0.4497680000000  0.5266540000000  0.5251740000000 1.0
C      1  0.5960050000000  0.5421340000000  0.4733320000000 1.0
C      1  0.5112150000000  0.5978680000000  0.4923630000000 1.0
C      1  0.4780680000000  0.5475210000000  0.5878760000000 1.0
C      1  0.4858990000000  0.4915790000000  0.4032040000000 1.0
C      1  0.4540090000000  0.4256520000000  0.5082120000000 1.0
C      1  0.5322690000000  0.5163910000000  0.4003050000000 1.0
C      1  0.5019050000000  0.5158520000000  0.3987610000000 1.0
C      1  0.4990120000000  0.5087730000000  0.4607900000000 1.0
C      1  0.4240450000000  0.4953060000000  0.5676660000000 1.0
C      1  0.4959070000000  0.4802380000000  0.4589360000000 1.0
C      1  0.4317740000000  0.5240720000000  0.5680740000000 1.0
C      1  0.4670940000000  0.4542680000000  0.5020390000000 1.0
C      1  0.5425490000000  0.4693570000000  0.4181260000000 1.0
C      1  0.4076230000000  0.5755020000000  0.5159900000000 1.0
C      1  0.5583400000000  0.4511240000000  0.4594330000000 1.0
C      1  0.5743150000000  0.5398780000000  0.5436800000000 1.0
C      1  0.4192870000000  0.4276460000000  0.4607550000000 1.0
C      1  0.4699500000000  0.4260640000000  0.4610150000000 1.0
C      1  0.4891220000000  0.3965250000000  0.5237950000000 1.0
C      1  0.4872000000000  0.3947940000000  0.4938630000000 1.0
C      1  0.4913800000000  0.5943970000000  0.5718400000000 1.0
C      1  0.5579930000000  0.4892640000000  0.5908410000000 1.0
C      1  0.5397720000000  0.4702720000000  0.5747050000000 1.0
C      1  0.4722590000000  0.5205800000000  0.4700020000000 1.0
C      1  0.5595750000000  0.5227700000000  0.5633070000000 1.0
C      1  0.4538470000000  0.5724330000000  0.5215440000000 1.0
C      1  0.4005930000000  0.4853580000000  0.5558560000000 1.0
C      1  0.5531400000000  0.5602270000000  0.5401690000000 1.0
C      1  0.4447510000000  0.4823410000000  0.4280470000000 1.0
C      1  0.4490460000000  0.5381810000000  0.4443650000000 1.0
C      1  0.4027800000000  0.5254100000000  0.5259720000000 1.0
C      1  0.5726470000000  0.5015790000000  0.4230090000000 1.0
C      1  0.5470370000000  0.5155170000000  0.5988450000000 1.0
END
