TITL C-950523-3027-283 -4.50426425940611e-06 125000 -1079.24569019686 0 0 172 (C1) n - 1
REM
REM in /home/bkarasulu/work/CARBON/AIRSS/Generating-Clusters/EDIP-Nigel-Params/with-SteepDescent/Only-C1/SD-CG/HFTN-CG
REM
REM
REM
REM
REM
REM ./C.cell (11c1c37f851c82e70ff6c80c92926a4b)
REM
REM compiler GCC version 9.2.1 20190827 (Red Hat 9.2.1-1)
REM options -cpp -mtune=generic -march=x86-64 -g -O0 -fpre-include=/usr/include/finclude/math-vector-fortran.h
REM seed -2006838111 599227713 11292370 2139288840 -1889567215 -1325138339 1859398631 -101792312 1499770301 -1050523534 2026592449 2036160002 2140102314 -2130411620 1524100106 -511911102 -1438967724 1361710172 -1579740729 -1591502847 -930322760 1183184918 1198260077 963899296 1332382012 412876699 1593876208 1094226018 1123861020 -391685467 1959524214 1803750782 106506553
REM
CELL 1.54180   50.00000   50.00000   50.00000   90.00000   90.00000   90.00000
LATT -1
SFAC C  
C      1  0.5326810000000  0.5754010000000  0.4182520000000 1.0
C      1  0.5181180000000  0.5543530000000  0.5796950000000 1.0
C      1  0.5041620000000  0.4922110000000  0.3851300000000 1.0
C      1  0.4452170000000  0.5716700000000  0.4473570000000 1.0
C      1  0.4643680000000  0.4891780000000  0.5046400000000 1.0
C      1  0.4436710000000  0.5442850000000  0.5935530000000 1.0
C      1  0.4835830000000  0.6029040000000  0.5056970000000 1.0
C      1  0.5326120000000  0.4309540000000  0.4308950000000 1.0
C      1  0.4835400000000  0.5100140000000  0.5099510000000 1.0
C      1  0.5334800000000  0.5512020000000  0.5341430000000 1.0
C      1  0.4402510000000  0.5078920000000  0.5371560000000 1.0
C      1  0.5573230000000  0.4314470000000  0.5704270000000 1.0
C      1  0.5835630000000  0.5364450000000  0.4256300000000 1.0
C      1  0.5852160000000  0.4607460000000  0.4569980000000 1.0
C      1  0.4908670000000  0.4345880000000  0.5855890000000 1.0
C      1  0.4174430000000  0.5286350000000  0.4560780000000 1.0
C      1  0.4906240000000  0.4685220000000  0.5471900000000 1.0
C      1  0.5292220000000  0.6124480000000  0.4904510000000 1.0
C      1  0.4514350000000  0.4831220000000  0.4624050000000 1.0
C      1  0.5423250000000  0.4532070000000  0.5307410000000 1.0
C      1  0.5499980000000  0.5130430000000  0.3964450000000 1.0
C      1  0.5295770000000  0.4640040000000  0.5825420000000 1.0
C      1  0.5804800000000  0.4374520000000  0.5520770000000 1.0
C      1  0.5430730000000  0.4842780000000  0.5650350000000 1.0
C      1  0.5465430000000  0.5135120000000  0.4514190000000 1.0
C      1  0.5597280000000  0.4536850000000  0.4674050000000 1.0
C      1  0.5802960000000  0.5541730000000  0.4704530000000 1.0
C      1  0.5099060000000  0.5688090000000  0.5262190000000 1.0
C      1  0.4565370000000  0.4829270000000  0.5344030000000 1.0
C      1  0.4601430000000  0.5880320000000  0.4955950000000 1.0
C      1  0.4827360000000  0.4833380000000  0.4048360000000 1.0
C      1  0.5740440000000  0.4228350000000  0.5259810000000 1.0
C      1  0.5915190000000  0.4898740000000  0.5684280000000 1.0
C      1  0.3963990000000  0.5263320000000  0.5411990000000 1.0
C      1  0.5573880000000  0.4770770000000  0.5395330000000 1.0
C      1  0.4147440000000  0.5069930000000  0.5833870000000 1.0
C      1  0.4368100000000  0.5458010000000  0.4965150000000 1.0
C      1  0.4087160000000  0.5767240000000  0.5305890000000 1.0
C      1  0.4540120000000  0.5504210000000  0.4037400000000 1.0
C      1  0.4420710000000  0.4686390000000  0.4158530000000 1.0
C      1  0.4418330000000  0.4342280000000  0.5707510000000 1.0
C      1  0.5129140000000  0.3879570000000  0.5014700000000 1.0
C      1  0.5510400000000  0.4471250000000  0.5931430000000 1.0
C      1  0.4654300000000  0.4337660000000  0.4419930000000 1.0
C      1  0.5490260000000  0.4111580000000  0.4729710000000 1.0
C      1  0.5272960000000  0.4246960000000  0.4581810000000 1.0
C      1  0.5276950000000  0.5283520000000  0.5905280000000 1.0
C      1  0.5179790000000  0.4578000000000  0.3950070000000 1.0
C      1  0.4952830000000  0.5674360000000  0.4649160000000 1.0
C      1  0.5168280000000  0.4767040000000  0.4400060000000 1.0
C      1  0.5209360000000  0.5945720000000  0.5366470000000 1.0
C      1  0.4339000000000  0.5957550000000  0.5087990000000 1.0
C      1  0.4838250000000  0.5823000000000  0.4225440000000 1.0
C      1  0.4778420000000  0.4730550000000  0.4720760000000 1.0
C      1  0.5075050000000  0.4930040000000  0.5156390000000 1.0
C      1  0.5650290000000  0.5378950000000  0.4047960000000 1.0
C      1  0.5307660000000  0.4010130000000  0.5432100000000 1.0
C      1  0.4863970000000  0.4595570000000  0.6015310000000 1.0
C      1  0.5544550000000  0.5957900000000  0.4960550000000 1.0
C      1  0.5186660000000  0.5152560000000  0.3954460000000 1.0
C      1  0.4564080000000  0.5722190000000  0.4205500000000 1.0
C      1  0.4497610000000  0.5341170000000  0.5504830000000 1.0
C      1  0.5007230000000  0.5389660000000  0.3984540000000 1.0
C      1  0.4061750000000  0.5480850000000  0.5219220000000 1.0
C      1  0.5090650000000  0.4477910000000  0.5650760000000 1.0
C      1  0.4211720000000  0.4513090000000  0.4575210000000 1.0
C      1  0.4609080000000  0.4422430000000  0.5175820000000 1.0
C      1  0.4919670000000  0.5026330000000  0.5652160000000 1.0
C      1  0.5933760000000  0.4878920000000  0.4614460000000 1.0
C      1  0.5653500000000  0.4988490000000  0.5796900000000 1.0
C      1  0.4607900000000  0.5004560000000  0.6039300000000 1.0
C      1  0.5103910000000  0.5728940000000  0.4925920000000 1.0
C      1  0.4875170000000  0.5343020000000  0.4928410000000 1.0
C      1  0.4627950000000  0.5578430000000  0.5035600000000 1.0
C      1  0.4152750000000  0.5658490000000  0.4823920000000 1.0
C      1  0.5518500000000  0.5619990000000  0.4034630000000 1.0
C      1  0.5007560000000  0.4630920000000  0.4185510000000 1.0
C      1  0.6064790000000  0.5120960000000  0.5604090000000 1.0
C      1  0.4125400000000  0.4576280000000  0.5185880000000 1.0
C      1  0.5070940000000  0.4419110000000  0.5026070000000 1.0
C      1  0.5528620000000  0.5266550000000  0.5725270000000 1.0
C      1  0.5613010000000  0.4604050000000  0.4052620000000 1.0
C      1  0.4089000000000  0.4946870000000  0.4867920000000 1.0
C      1  0.4041940000000  0.4386090000000  0.4996660000000 1.0
C      1  0.4297890000000  0.5939950000000  0.5360870000000 1.0
C      1  0.5278830000000  0.4618010000000  0.5076130000000 1.0
C      1  0.4907440000000  0.5524170000000  0.5691260000000 1.0
C      1  0.5570730000000  0.5032830000000  0.5226400000000 1.0
C      1  0.5754480000000  0.4271730000000  0.4741620000000 1.0
C      1  0.4173820000000  0.5016890000000  0.4403380000000 1.0
C      1  0.4849270000000  0.3745610000000  0.5388920000000 1.0
C      1  0.4117790000000  0.5000910000000  0.5395450000000 1.0
C      1  0.5340670000000  0.4313280000000  0.5511350000000 1.0
C      1  0.5017370000000  0.4908720000000  0.4613670000000 1.0
C      1  0.5064730000000  0.5458670000000  0.4454240000000 1.0
C      1  0.4403460000000  0.4985230000000  0.4851990000000 1.0
C      1  0.5796560000000  0.5689310000000  0.5210070000000 1.0
C      1  0.6010650000000  0.5258270000000  0.5120810000000 1.0
C      1  0.4265810000000  0.4224050000000  0.5486780000000 1.0
C      1  0.4716740000000  0.5075820000000  0.4220300000000 1.0
C      1  0.5382460000000  0.5682020000000  0.5601770000000 1.0
C      1  0.5194910000000  0.5999150000000  0.4621290000000 1.0
C      1  0.6051290000000  0.4976010000000  0.5032360000000 1.0
C      1  0.4841930000000  0.5141500000000  0.6114140000000 1.0
C      1  0.4610090000000  0.4734340000000  0.5946250000000 1.0
C      1  0.4639490000000  0.3896450000000  0.4949320000000 1.0
C      1  0.5890630000000  0.5330790000000  0.4530120000000 1.0
C      1  0.4666960000000  0.4232960000000  0.5772790000000 1.0
C      1  0.5061530000000  0.5611800000000  0.4189220000000 1.0
C      1  0.5510300000000  0.4689780000000  0.4902490000000 1.0
C      1  0.5403720000000  0.5223480000000  0.5418220000000 1.0
C      1  0.4582700000000  0.5912910000000  0.4650910000000 1.0
C      1  0.5661190000000  0.5560870000000  0.5687300000000 1.0
C      1  0.5053010000000  0.5055130000000  0.5934560000000 1.0
C      1  0.4716650000000  0.5302260000000  0.4677450000000 1.0
C      1  0.5064250000000  0.3904150000000  0.5296670000000 1.0
C      1  0.4304180000000  0.4104260000000  0.5231250000000 1.0
C      1  0.5098590000000  0.6113010000000  0.5139030000000 1.0
C      1  0.5318550000000  0.5379750000000  0.4601300000000 1.0
C      1  0.5505560000000  0.5617630000000  0.4637450000000 1.0
C      1  0.5860160000000  0.4692570000000  0.5461270000000 1.0
C      1  0.5862670000000  0.5559410000000  0.5466730000000 1.0
C      1  0.4542660000000  0.4356780000000  0.4907590000000 1.0
C      1  0.4882430000000  0.5160940000000  0.4472080000000 1.0
C      1  0.5524450000000  0.4980750000000  0.4925060000000 1.0
C      1  0.4725660000000  0.5299780000000  0.4014790000000 1.0
C      1  0.5190130000000  0.5317420000000  0.4870390000000 1.0
C      1  0.4390860000000  0.4627810000000  0.5774920000000 1.0
C      1  0.4669030000000  0.3740460000000  0.5183170000000 1.0
C      1  0.5692960000000  0.5955130000000  0.5200830000000 1.0
C      1  0.6067330000000  0.4500510000000  0.5068320000000 1.0
C      1  0.6036040000000  0.4738360000000  0.5210550000000 1.0
C      1  0.4136480000000  0.4290520000000  0.4753640000000 1.0
C      1  0.4450400000000  0.4920940000000  0.4339640000000 1.0
C      1  0.4073360000000  0.4786920000000  0.4592170000000 1.0
C      1  0.5980500000000  0.5299210000000  0.5407100000000 1.0
C      1  0.4189710000000  0.5604680000000  0.4533210000000 1.0
C      1  0.5007680000000  0.4265450000000  0.4770150000000 1.0
C      1  0.4158510000000  0.4801660000000  0.5701210000000 1.0
C      1  0.5370640000000  0.4966510000000  0.4296220000000 1.0
C      1  0.4039140000000  0.5319440000000  0.5693210000000 1.0
C      1  0.4428830000000  0.5260730000000  0.4749160000000 1.0
C      1  0.5388950000000  0.4008340000000  0.4982300000000 1.0
C      1  0.4398530000000  0.4099640000000  0.4949710000000 1.0
C      1  0.4853550000000  0.5931200000000  0.4507940000000 1.0
C      1  0.6157880000000  0.4921000000000  0.4777570000000 1.0
C      1  0.4384290000000  0.5166120000000  0.5978290000000 1.0
C      1  0.4865280000000  0.4543610000000  0.5195890000000 1.0
C      1  0.5732430000000  0.5102530000000  0.4657030000000 1.0
C      1  0.5877740000000  0.5499640000000  0.4993730000000 1.0
C      1  0.5531110000000  0.4020420000000  0.5233980000000 1.0
C      1  0.3961990000000  0.5225240000000  0.4778750000000 1.0
C      1  0.4749250000000  0.4417610000000  0.4693890000000 1.0
C      1  0.4387480000000  0.4450450000000  0.4338860000000 1.0
C      1  0.4913530000000  0.3978020000000  0.4841750000000 1.0
C      1  0.3931490000000  0.5476860000000  0.4941260000000 1.0
C      1  0.5412130000000  0.5848310000000  0.4454060000000 1.0
C      1  0.4288040000000  0.5486020000000  0.5685900000000 1.0
C      1  0.4860510000000  0.4393080000000  0.4245690000000 1.0
C      1  0.4624510000000  0.5545810000000  0.5322630000000 1.0
C      1  0.5219910000000  0.5025970000000  0.4886690000000 1.0
C      1  0.4603790000000  0.4680570000000  0.3941810000000 1.0
C      1  0.5411430000000  0.5700640000000  0.4898320000000 1.0
C      1  0.4722550000000  0.5290210000000  0.5724090000000 1.0
C      1  0.5155350000000  0.5039300000000  0.5437930000000 1.0
C      1  0.5892470000000  0.4288480000000  0.5019230000000 1.0
C      1  0.5609340000000  0.4873810000000  0.4124280000000 1.0
C      1  0.4863340000000  0.5637700000000  0.5433600000000 1.0
C      1  0.4027470000000  0.4842890000000  0.5151200000000 1.0
C      1  0.5397040000000  0.4429560000000  0.4061790000000 1.0
C      1  0.5115400000000  0.4769450000000  0.6021530000000 1.0
C      1  0.4392160000000  0.4558600000000  0.5337140000000 1.0
END
