TITL C-951339-9237-533 9.54655149160605e-07 125000 -365.241653734971 0 0 61 (C1) n - 1
REM
REM in /home/bkarasulu/work/CARBON/AIRSS/Generating-Clusters/EDIP-Nigel-Params/with-SteepDescent/Only-C1/SD-CG/HFTN-CG
REM
REM
REM
REM
REM
REM ./C.cell (11c1c37f851c82e70ff6c80c92926a4b)
REM
REM compiler GCC version 9.2.1 20190827 (Red Hat 9.2.1-1)
REM options -cpp -mtune=generic -march=x86-64 -g -O0 -fpre-include=/usr/include/finclude/math-vector-fortran.h
REM seed 2098451549 -147255918 1794103030 -2019342582 462452810 945527249 2113805544 50447573 -894684028 -1677725613 2137395041 403745626 -932912997 539901758 97687004 1787277304 992703519 130245856 2103357178 975843988 -389090172 66526617 -1262311131 2021670502 2064650369 -1588981747 -693428690 1295176293 -2107959151 -1910840780 -333212610 1995336490 1902487909
REM
CELL 1.54180   50.00000   50.00000   50.00000   90.00000   90.00000   90.00000
LATT -1
SFAC C  
C      1  0.5447290000000  0.5583620000000  0.5116430000000 1.0
C      1  0.4827780000000  0.4866300000000  0.4625240000000 1.0
C      1  0.5110850000000  0.4723480000000  0.5262000000000 1.0
C      1  0.4968540000000  0.4978560000000  0.5592910000000 1.0
C      1  0.5616860000000  0.5259180000000  0.5465430000000 1.0
C      1  0.5079380000000  0.5779690000000  0.4817770000000 1.0
C      1  0.4489360000000  0.4513920000000  0.4754260000000 1.0
C      1  0.4624350000000  0.4853640000000  0.4846280000000 1.0
C      1  0.4246040000000  0.4800670000000  0.5059890000000 1.0
C      1  0.5282870000000  0.5351240000000  0.4711170000000 1.0
C      1  0.4481640000000  0.5256350000000  0.5516790000000 1.0
C      1  0.4437550000000  0.5316000000000  0.4809540000000 1.0
C      1  0.5119140000000  0.4182570000000  0.4851560000000 1.0
C      1  0.4691390000000  0.5636140000000  0.4524030000000 1.0
C      1  0.4937030000000  0.4417850000000  0.4847130000000 1.0
C      1  0.4645390000000  0.5232690000000  0.5267540000000 1.0
C      1  0.4866040000000  0.5867250000000  0.5010930000000 1.0
C      1  0.5496890000000  0.5149980000000  0.4745000000000 1.0
C      1  0.4783570000000  0.4293550000000  0.4426310000000 1.0
C      1  0.4507100000000  0.4748500000000  0.5413850000000 1.0
C      1  0.5047700000000  0.5679220000000  0.5369000000000 1.0
C      1  0.4662250000000  0.5674240000000  0.5026300000000 1.0
C      1  0.5258880000000  0.4443000000000  0.4291080000000 1.0
C      1  0.5211100000000  0.5003580000000  0.5148700000000 1.0
C      1  0.5644460000000  0.4974740000000  0.5433040000000 1.0
C      1  0.5773240000000  0.4886700000000  0.5183330000000 1.0
C      1  0.4994490000000  0.5408920000000  0.5095260000000 1.0
C      1  0.5442790000000  0.4602800000000  0.4431480000000 1.0
C      1  0.5661650000000  0.4706650000000  0.4982360000000 1.0
C      1  0.4970900000000  0.5673310000000  0.4554070000000 1.0
C      1  0.4592910000000  0.4550180000000  0.5219080000000 1.0
C      1  0.4384390000000  0.5029580000000  0.4802080000000 1.0
C      1  0.4557090000000  0.5417900000000  0.5049040000000 1.0
C      1  0.4882820000000  0.4544680000000  0.5125020000000 1.0
C      1  0.5220980000000  0.5538120000000  0.4937880000000 1.0
C      1  0.5137910000000  0.5440330000000  0.4473110000000 1.0
C      1  0.5016790000000  0.4635910000000  0.4632830000000 1.0
C      1  0.4993570000000  0.4480430000000  0.4383800000000 1.0
C      1  0.4268560000000  0.4879390000000  0.5331360000000 1.0
C      1  0.4695420000000  0.4323350000000  0.4697250000000 1.0
C      1  0.5048730000000  0.5212740000000  0.5438840000000 1.0
C      1  0.5256100000000  0.4085240000000  0.5073100000000 1.0
C      1  0.4998780000000  0.5248270000000  0.4325630000000 1.0
C      1  0.4712930000000  0.4878120000000  0.5549200000000 1.0
C      1  0.4842280000000  0.5052240000000  0.4420010000000 1.0
C      1  0.5566080000000  0.5344280000000  0.5200010000000 1.0
C      1  0.4648070000000  0.5468490000000  0.5582620000000 1.0
C      1  0.4964740000000  0.5925110000000  0.5269870000000 1.0
C      1  0.5566060000000  0.4839760000000  0.4713830000000 1.0
C      1  0.4926540000000  0.5467020000000  0.5520400000000 1.0
C      1  0.4482500000000  0.5473100000000  0.4581210000000 1.0
C      1  0.5300300000000  0.4716680000000  0.4641960000000 1.0
C      1  0.5458290000000  0.4259500000000  0.4992850000000 1.0
C      1  0.5488650000000  0.5105830000000  0.5041890000000 1.0
C      1  0.5468890000000  0.4522720000000  0.5102250000000 1.0
C      1  0.4990680000000  0.5121510000000  0.5012430000000 1.0
C      1  0.5429460000000  0.4534400000000  0.5381650000000 1.0
C      1  0.4776910000000  0.4939000000000  0.5122710000000 1.0
C      1  0.4376080000000  0.4538070000000  0.5018050000000 1.0
C      1  0.5446990000000  0.4772840000000  0.5539600000000 1.0
C      1  0.5173950000000  0.4790840000000  0.5641730000000 1.0
END
