TITL C-951347-9520-179 -1.44228027337258e-05 125000 -261.499141410025 0 0 44 (C1) n - 1
REM
REM in /home/bkarasulu/work/CARBON/AIRSS/Generating-Clusters/EDIP-Nigel-Params/with-SteepDescent/Only-C1/SD-CG/HFTN-CG
REM
REM
REM
REM
REM
REM ./C.cell (11c1c37f851c82e70ff6c80c92926a4b)
REM
REM compiler GCC version 9.2.1 20190827 (Red Hat 9.2.1-1)
REM options -cpp -mtune=generic -march=x86-64 -g -O0 -fpre-include=/usr/include/finclude/math-vector-fortran.h
REM seed 619098636 -1895474645 -623069968 -1858856377 1581280825 85233871 448881165 -16279637 416174480 1737718901 1378499628 -1841681110 -513866858 -946256180 -2034721371 471238950 1645938150 1529360791 1637955663 -1619226800 907394615 -650944646 582212225 676800447 1406200881 690898368 -782006476 330888815 -1020066047 -1253786354 138484326 -334949386 -1532579469
REM
CELL 1.54180   50.00000   50.00000   50.00000   90.00000   90.00000   90.00000
LATT -1
SFAC C  
C      1  0.5208320000000  0.5102790000000  0.5369730000000 1.0
C      1  0.4904130000000  0.4959930000000  0.4812850000000 1.0
C      1  0.5529460000000  0.4721330000000  0.5479920000000 1.0
C      1  0.4866770000000  0.4732060000000  0.4604370000000 1.0
C      1  0.5179580000000  0.5081710000000  0.4347070000000 1.0
C      1  0.5366410000000  0.4852280000000  0.4402740000000 1.0
C      1  0.5679110000000  0.4632790000000  0.5131270000000 1.0
C      1  0.4558830000000  0.5501620000000  0.5207530000000 1.0
C      1  0.5378450000000  0.5166250000000  0.4764110000000 1.0
C      1  0.4993160000000  0.5455820000000  0.4601410000000 1.0
C      1  0.5138860000000  0.4417540000000  0.5383960000000 1.0
C      1  0.4893530000000  0.5010520000000  0.4424590000000 1.0
C      1  0.5038200000000  0.5589480000000  0.5342390000000 1.0
C      1  0.5113700000000  0.4559550000000  0.4617200000000 1.0
C      1  0.4754100000000  0.5183690000000  0.5516490000000 1.0
C      1  0.5458120000000  0.4492970000000  0.4997090000000 1.0
C      1  0.5265800000000  0.4685790000000  0.5347220000000 1.0
C      1  0.4576810000000  0.5258530000000  0.4769550000000 1.0
C      1  0.4936540000000  0.5555890000000  0.4871690000000 1.0
C      1  0.5248260000000  0.4593730000000  0.4373240000000 1.0
C      1  0.4789150000000  0.5446300000000  0.5382530000000 1.0
C      1  0.4480230000000  0.5089940000000  0.5514110000000 1.0
C      1  0.5450170000000  0.4892530000000  0.4686790000000 1.0
C      1  0.4606350000000  0.4406760000000  0.4873430000000 1.0
C      1  0.4648950000000  0.5510640000000  0.4922210000000 1.0
C      1  0.4469330000000  0.4772110000000  0.4893780000000 1.0
C      1  0.4854820000000  0.4781010000000  0.5240340000000 1.0
C      1  0.4959460000000  0.4984800000000  0.5446120000000 1.0
C      1  0.5049880000000  0.5852510000000  0.5258600000000 1.0
C      1  0.4866540000000  0.4496450000000  0.5338700000000 1.0
C      1  0.4640270000000  0.5013870000000  0.4930060000000 1.0
C      1  0.5082690000000  0.5764190000000  0.4999830000000 1.0
C      1  0.4263850000000  0.5263540000000  0.5527720000000 1.0
C      1  0.5487880000000  0.5274470000000  0.5001070000000 1.0
C      1  0.5286130000000  0.4682400000000  0.4834670000000 1.0
C      1  0.5430340000000  0.5073870000000  0.5193190000000 1.0
C      1  0.5097050000000  0.4843260000000  0.5031380000000 1.0
C      1  0.5249960000000  0.5306890000000  0.4537080000000 1.0
C      1  0.4554120000000  0.4560510000000  0.5121590000000 1.0
C      1  0.4600540000000  0.4605600000000  0.4661020000000 1.0
C      1  0.5649070000000  0.4892730000000  0.5275330000000 1.0
C      1  0.4326150000000  0.5338720000000  0.5267670000000 1.0
C      1  0.4768380000000  0.5270590000000  0.4530210000000 1.0
C      1  0.5300520000000  0.4322010000000  0.5168170000000 1.0
END
