TITL C-951348-1603-502 -6.19848864059143e-07 125000 -736.694175483461 0 0 118 (C1) n - 1
REM
REM in /home/bkarasulu/work/CARBON/AIRSS/Generating-Clusters/EDIP-Nigel-Params/with-SteepDescent/Only-C1/SD-CG/HFTN-CG
REM
REM
REM
REM
REM
REM ./C.cell (11c1c37f851c82e70ff6c80c92926a4b)
REM
REM compiler GCC version 9.2.1 20190827 (Red Hat 9.2.1-1)
REM options -cpp -mtune=generic -march=x86-64 -g -O0 -fpre-include=/usr/include/finclude/math-vector-fortran.h
REM seed 940733489 790210749 -1783992483 -1287577457 1243616451 600263256 1891893095 -521417460 -436836012 -2089755664 940255825 -1289922843 1519946579 -421284093 586559521 -2527508 -1530731189 -1645310797 -1988992126 -1429239061 1550441395 1651924485 -802077388 796938931 -1340122890 -909329175 1389973902 756000469 -1579919670 -1223362401 1611574094 -573922196 -810006648
REM
CELL 1.54180   50.00000   50.00000   50.00000   90.00000   90.00000   90.00000
LATT -1
SFAC C  
C      1  0.4413400000000  0.5793070000000  0.4923650000000 1.0
C      1  0.4892980000000  0.5077490000000  0.4631260000000 1.0
C      1  0.5394330000000  0.4976030000000  0.4870270000000 1.0
C      1  0.5444030000000  0.4848530000000  0.5647830000000 1.0
C      1  0.5245290000000  0.4654050000000  0.5776580000000 1.0
C      1  0.5375870000000  0.5121180000000  0.5971180000000 1.0
C      1  0.5607560000000  0.4419860000000  0.5441150000000 1.0
C      1  0.4313150000000  0.4745540000000  0.5409520000000 1.0
C      1  0.5778340000000  0.5605770000000  0.5182420000000 1.0
C      1  0.5291230000000  0.4307550000000  0.4440580000000 1.0
C      1  0.5914070000000  0.5356160000000  0.5103600000000 1.0
C      1  0.5070360000000  0.5415840000000  0.4304130000000 1.0
C      1  0.4787650000000  0.5909210000000  0.5129550000000 1.0
C      1  0.5092800000000  0.5090070000000  0.5924700000000 1.0
C      1  0.4364460000000  0.4448830000000  0.5386970000000 1.0
C      1  0.4295430000000  0.5010860000000  0.5851530000000 1.0
C      1  0.4829980000000  0.4812700000000  0.5468940000000 1.0
C      1  0.4607490000000  0.4319430000000  0.5495710000000 1.0
C      1  0.4942810000000  0.5462870000000  0.5196810000000 1.0
C      1  0.5143240000000  0.4524930000000  0.4549240000000 1.0
C      1  0.5347870000000  0.5603270000000  0.5422130000000 1.0
C      1  0.4072340000000  0.4948680000000  0.4735610000000 1.0
C      1  0.4794600000000  0.4170920000000  0.4613160000000 1.0
C      1  0.4433470000000  0.5443930000000  0.4255430000000 1.0
C      1  0.5366880000000  0.4758930000000  0.5112900000000 1.0
C      1  0.4543740000000  0.4157450000000  0.5052550000000 1.0
C      1  0.4670980000000  0.4688100000000  0.4504230000000 1.0
C      1  0.4874640000000  0.5660970000000  0.4994440000000 1.0
C      1  0.4982010000000  0.4577440000000  0.5355280000000 1.0
C      1  0.5704860000000  0.4549450000000  0.4524220000000 1.0
C      1  0.5640010000000  0.5565970000000  0.5432240000000 1.0
C      1  0.4799140000000  0.5200320000000  0.3991780000000 1.0
C      1  0.5596760000000  0.5687160000000  0.4965140000000 1.0
C      1  0.5576830000000  0.5168090000000  0.5071650000000 1.0
C      1  0.5251920000000  0.5134570000000  0.4263770000000 1.0
C      1  0.4785940000000  0.4971770000000  0.4154300000000 1.0
C      1  0.4120180000000  0.5182400000000  0.4915880000000 1.0
C      1  0.4722490000000  0.4151400000000  0.5285780000000 1.0
C      1  0.5790090000000  0.5084140000000  0.4696980000000 1.0
C      1  0.5311890000000  0.4776090000000  0.4596950000000 1.0
C      1  0.4062670000000  0.5106950000000  0.5200430000000 1.0
C      1  0.5259410000000  0.5649750000000  0.4378280000000 1.0
C      1  0.4669800000000  0.5606640000000  0.4204560000000 1.0
C      1  0.5286810000000  0.4842750000000  0.4121400000000 1.0
C      1  0.5481170000000  0.4297810000000  0.4873300000000 1.0
C      1  0.5118400000000  0.4576810000000  0.5085820000000 1.0
C      1  0.5113070000000  0.5732930000000  0.4830790000000 1.0
C      1  0.5519160000000  0.5246420000000  0.4344140000000 1.0
C      1  0.4565660000000  0.5560220000000  0.5519630000000 1.0
C      1  0.5377210000000  0.5238430000000  0.5283690000000 1.0
C      1  0.5772040000000  0.4361740000000  0.5223390000000 1.0
C      1  0.4936410000000  0.4706540000000  0.4895320000000 1.0
C      1  0.4224150000000  0.5240630000000  0.5412100000000 1.0
C      1  0.4477600000000  0.4781320000000  0.4918720000000 1.0
C      1  0.5866150000000  0.5349770000000  0.4795790000000 1.0
C      1  0.4821810000000  0.4273220000000  0.4345630000000 1.0
C      1  0.5056590000000  0.5792450000000  0.4542500000000 1.0
C      1  0.5534780000000  0.4775440000000  0.4386270000000 1.0
C      1  0.4991240000000  0.5265780000000  0.5641750000000 1.0
C      1  0.4571120000000  0.4902080000000  0.5336100000000 1.0
C      1  0.4967950000000  0.4017930000000  0.5301630000000 1.0
C      1  0.5698980000000  0.5314040000000  0.5570620000000 1.0
C      1  0.4536230000000  0.5672330000000  0.4658540000000 1.0
C      1  0.4592240000000  0.5015160000000  0.5049230000000 1.0
C      1  0.5804760000000  0.4887690000000  0.5627540000000 1.0
C      1  0.5120990000000  0.4445510000000  0.5594500000000 1.0
C      1  0.4903640000000  0.4555180000000  0.4370080000000 1.0
C      1  0.4774680000000  0.4424590000000  0.5716180000000 1.0
C      1  0.4213300000000  0.4805090000000  0.5684250000000 1.0
C      1  0.5129020000000  0.5257630000000  0.5090370000000 1.0
C      1  0.5688200000000  0.5029930000000  0.4430250000000 1.0
C      1  0.5530950000000  0.4313960000000  0.4583700000000 1.0
C      1  0.5342450000000  0.4278640000000  0.5469560000000 1.0
C      1  0.5221550000000  0.4120150000000  0.5241870000000 1.0
C      1  0.4307590000000  0.4314260000000  0.4666750000000 1.0
C      1  0.4991540000000  0.4747140000000  0.4127260000000 1.0
C      1  0.4296180000000  0.4300890000000  0.5134580000000 1.0
C      1  0.5445950000000  0.5457380000000  0.4555210000000 1.0
C      1  0.5634680000000  0.4499780000000  0.5009800000000 1.0
C      1  0.4756140000000  0.5757340000000  0.4451720000000 1.0
C      1  0.4885870000000  0.4999440000000  0.4935270000000 1.0
C      1  0.5204720000000  0.4281720000000  0.4985240000000 1.0
C      1  0.4399210000000  0.5148110000000  0.4508400000000 1.0
C      1  0.5239210000000  0.5441740000000  0.5650810000000 1.0
C      1  0.5735760000000  0.4600250000000  0.5627680000000 1.0
C      1  0.4937580000000  0.5370170000000  0.4615340000000 1.0
C      1  0.4717940000000  0.5488480000000  0.4800810000000 1.0
C      1  0.4779550000000  0.4721060000000  0.5757580000000 1.0
C      1  0.4352000000000  0.5471480000000  0.4528350000000 1.0
C      1  0.4669870000000  0.4606840000000  0.4786420000000 1.0
C      1  0.5251210000000  0.5864440000000  0.5277440000000 1.0
C      1  0.4153710000000  0.5179060000000  0.5683450000000 1.0
C      1  0.5312020000000  0.4949850000000  0.5383590000000 1.0
C      1  0.5145830000000  0.4993160000000  0.4507650000000 1.0
C      1  0.4168790000000  0.4429310000000  0.4891550000000 1.0
C      1  0.4100640000000  0.4814020000000  0.5205890000000 1.0
C      1  0.4161010000000  0.4992090000000  0.4473740000000 1.0
C      1  0.5238770000000  0.5315650000000  0.4787500000000 1.0
C      1  0.5024530000000  0.4798700000000  0.5915390000000 1.0
C      1  0.4672630000000  0.4978200000000  0.4442590000000 1.0
C      1  0.4580520000000  0.4301140000000  0.4779850000000 1.0
C      1  0.4379340000000  0.5538510000000  0.5078850000000 1.0
C      1  0.5763200000000  0.4948100000000  0.5158650000000 1.0
C      1  0.5679790000000  0.5565600000000  0.4712130000000 1.0
C      1  0.5027730000000  0.5029040000000  0.5453570000000 1.0
C      1  0.5024450000000  0.4167740000000  0.4780870000000 1.0
C      1  0.5879830000000  0.5099470000000  0.5398880000000 1.0
C      1  0.4817270000000  0.5445160000000  0.5463130000000 1.0
C      1  0.5882180000000  0.4881750000000  0.4885750000000 1.0
C      1  0.5818000000000  0.4607680000000  0.4802140000000 1.0
C      1  0.4336080000000  0.5505430000000  0.5365590000000 1.0
C      1  0.4881350000000  0.5451410000000  0.4080980000000 1.0
C      1  0.5453620000000  0.5275310000000  0.5744980000000 1.0
C      1  0.4188890000000  0.4732730000000  0.4927930000000 1.0
C      1  0.4415630000000  0.5272420000000  0.4918750000000 1.0
C      1  0.5339790000000  0.5835240000000  0.4994290000000 1.0
C      1  0.4534450000000  0.6007760000000  0.5061370000000 1.0
C      1  0.4993660000000  0.5988420000000  0.5304310000000 1.0
END
