TITL C-951343-2256-330 8.01691096952989e-05 125000 -418.280505911916 0 0 69 (C1) n - 1
REM
REM in /home/bkarasulu/work/CARBON/AIRSS/Generating-Clusters/EDIP-Nigel-Params/with-SteepDescent/Only-C1/SD-CG/HFTN-CG
REM
REM
REM
REM
REM
REM ./C.cell (11c1c37f851c82e70ff6c80c92926a4b)
REM
REM compiler GCC version 9.2.1 20190827 (Red Hat 9.2.1-1)
REM options -cpp -mtune=generic -march=x86-64 -g -O0 -fpre-include=/usr/include/finclude/math-vector-fortran.h
REM seed 1453999848 895630143 -1113098173 -359473611 -2005668635 338634264 1139941908 -1166912099 1540460054 -1584719512 -1966283048 1516775359 217541598 -673597364 -1898741200 -21073734 -243504956 68086985 571413596 -1015729706 -907868244 962796776 -690780697 -1815501007 1392624130 -2017363157 1642822905 923369972 576785749 -407495329 -39270625 987515653 -1804171604
REM
CELL 1.54180   50.00000   50.00000   50.00000   90.00000   90.00000   90.00000
LATT -1
SFAC C  
C      1  0.5322200000000  0.4604970000000  0.5352000000000 1.0
C      1  0.4956030000000  0.4703910000000  0.4846680000000 1.0
C      1  0.5726210000000  0.4691540000000  0.5114790000000 1.0
C      1  0.4792200000000  0.5718900000000  0.5383920000000 1.0
C      1  0.4744980000000  0.5441460000000  0.4432420000000 1.0
C      1  0.5419950000000  0.4605430000000  0.4775280000000 1.0
C      1  0.5627290000000  0.5045260000000  0.4869980000000 1.0
C      1  0.4926420000000  0.5042590000000  0.4293880000000 1.0
C      1  0.4944600000000  0.4541630000000  0.4433470000000 1.0
C      1  0.5582580000000  0.4971940000000  0.5175220000000 1.0
C      1  0.4800430000000  0.5437200000000  0.5457580000000 1.0
C      1  0.5464760000000  0.4930300000000  0.5688590000000 1.0
C      1  0.5305410000000  0.4773030000000  0.4314690000000 1.0
C      1  0.5348410000000  0.5052050000000  0.4435920000000 1.0
C      1  0.4756360000000  0.4899660000000  0.5319530000000 1.0
C      1  0.4752230000000  0.4416470000000  0.5255600000000 1.0
C      1  0.4818170000000  0.4929240000000  0.5765180000000 1.0
C      1  0.4773320000000  0.4925880000000  0.4763820000000 1.0
C      1  0.5372290000000  0.4648590000000  0.5645890000000 1.0
C      1  0.4851790000000  0.4631550000000  0.5399500000000 1.0
C      1  0.5419180000000  0.4355310000000  0.4945530000000 1.0
C      1  0.4661860000000  0.5158700000000  0.4359100000000 1.0
C      1  0.4975390000000  0.5194090000000  0.4706720000000 1.0
C      1  0.4490910000000  0.4705010000000  0.4422420000000 1.0
C      1  0.4376990000000  0.5336880000000  0.5187440000000 1.0
C      1  0.4660760000000  0.4488060000000  0.4471350000000 1.0
C      1  0.4958940000000  0.5318060000000  0.5227290000000 1.0
C      1  0.5225890000000  0.4809650000000  0.4895000000000 1.0
C      1  0.4413370000000  0.4494090000000  0.4882060000000 1.0
C      1  0.4248160000000  0.5333840000000  0.4653470000000 1.0
C      1  0.4887980000000  0.4450100000000  0.4998310000000 1.0
C      1  0.4732850000000  0.5866030000000  0.4686870000000 1.0
C      1  0.5147980000000  0.5232060000000  0.4298840000000 1.0
C      1  0.5540250000000  0.4465610000000  0.5198460000000 1.0
C      1  0.4424130000000  0.5165230000000  0.5626720000000 1.0
C      1  0.4547210000000  0.5499220000000  0.5010810000000 1.0
C      1  0.4996250000000  0.5149940000000  0.5633420000000 1.0
C      1  0.5261820000000  0.5075790000000  0.4732780000000 1.0
C      1  0.5590630000000  0.5385990000000  0.5450880000000 1.0
C      1  0.4585780000000  0.4346820000000  0.4713030000000 1.0
C      1  0.5737140000000  0.4983760000000  0.5620490000000 1.0
C      1  0.4650310000000  0.5021090000000  0.5029860000000 1.0
C      1  0.4897300000000  0.4648070000000  0.5695620000000 1.0
C      1  0.4749870000000  0.5926830000000  0.4949340000000 1.0
C      1  0.5848770000000  0.5231940000000  0.4816400000000 1.0
C      1  0.5176760000000  0.4193640000000  0.4969550000000 1.0
C      1  0.4652860000000  0.5750010000000  0.5140230000000 1.0
C      1  0.5147660000000  0.4581610000000  0.5801700000000 1.0
C      1  0.4539540000000  0.4958000000000  0.4550080000000 1.0
C      1  0.4791660000000  0.5306390000000  0.4987960000000 1.0
C      1  0.4346400000000  0.5004310000000  0.4989080000000 1.0
C      1  0.5411030000000  0.5404060000000  0.5654090000000 1.0
C      1  0.4394960000000  0.5548620000000  0.4752090000000 1.0
C      1  0.4588920000000  0.5656620000000  0.4565830000000 1.0
C      1  0.5321080000000  0.4549070000000  0.4500920000000 1.0
C      1  0.5016750000000  0.4762720000000  0.4258740000000 1.0
C      1  0.5844830000000  0.5402360000000  0.4590600000000 1.0
C      1  0.4586430000000  0.4943440000000  0.5579750000000 1.0
C      1  0.5285800000000  0.4872570000000  0.5207060000000 1.0
C      1  0.5017800000000  0.5056490000000  0.5342750000000 1.0
C      1  0.5689650000000  0.4744250000000  0.4809230000000 1.0
C      1  0.5806950000000  0.5511220000000  0.4833400000000 1.0
C      1  0.4504880000000  0.5355380000000  0.5443480000000 1.0
C      1  0.4311100000000  0.4716080000000  0.5001770000000 1.0
C      1  0.4916140000000  0.4196620000000  0.4830820000000 1.0
C      1  0.5281350000000  0.5165010000000  0.5724980000000 1.0
C      1  0.5713400000000  0.5141520000000  0.5389760000000 1.0
C      1  0.4304300000000  0.5067910000000  0.4701280000000 1.0
C      1  0.5034360000000  0.5458330000000  0.4438740000000 1.0
END
