TITL C-951343-2256-411 1.50357885829395e-06 125000 -1176.75219277277 0 0 189 (C1) n - 1
REM
REM in /home/bkarasulu/work/CARBON/AIRSS/Generating-Clusters/EDIP-Nigel-Params/with-SteepDescent/Only-C1/SD-CG/HFTN-CG
REM
REM
REM
REM
REM
REM ./C.cell (11c1c37f851c82e70ff6c80c92926a4b)
REM
REM compiler GCC version 9.2.1 20190827 (Red Hat 9.2.1-1)
REM options -cpp -mtune=generic -march=x86-64 -g -O0 -fpre-include=/usr/include/finclude/math-vector-fortran.h
REM seed 1179848644 2030437786 1613381042 -680744325 1451679944 -989477191 -464632796 -637851684 -780958870 1181171925 410870599 -1189045813 -1230571690 -1537768211 1581566309 -912448322 -112679279 -161397035 1017431795 -150113606 1691463685 -920252782 -1712146604 -1368699414 -706920598 1609893161 1316911206 -1897982322 62140375 1330406137 -483221692 2085021517 629110748
REM
CELL 1.54180   50.00000   50.00000   50.00000   90.00000   90.00000   90.00000
LATT -1
SFAC C  
C      1  0.4828980000000  0.4746650000000  0.5774140000000 1.0
C      1  0.4188630000000  0.5096880000000  0.5808160000000 1.0
C      1  0.4611710000000  0.5424180000000  0.4547070000000 1.0
C      1  0.4651490000000  0.4511160000000  0.5830190000000 1.0
C      1  0.4762730000000  0.4940320000000  0.4529760000000 1.0
C      1  0.5494600000000  0.5768950000000  0.4494690000000 1.0
C      1  0.4020320000000  0.5377720000000  0.4498260000000 1.0
C      1  0.4636970000000  0.4978470000000  0.5709460000000 1.0
C      1  0.4487410000000  0.5152130000000  0.4977690000000 1.0
C      1  0.5917920000000  0.4298670000000  0.5009140000000 1.0
C      1  0.4827960000000  0.4272250000000  0.5879160000000 1.0
C      1  0.5602710000000  0.4255410000000  0.4164980000000 1.0
C      1  0.4829600000000  0.5999320000000  0.5491510000000 1.0
C      1  0.4623440000000  0.5822330000000  0.5615920000000 1.0
C      1  0.5721980000000  0.4344450000000  0.5560630000000 1.0
C      1  0.4299950000000  0.4410400000000  0.5414940000000 1.0
C      1  0.5404520000000  0.5686570000000  0.4778830000000 1.0
C      1  0.5817240000000  0.4870240000000  0.5114830000000 1.0
C      1  0.6013030000000  0.5613490000000  0.5016400000000 1.0
C      1  0.4617870000000  0.4758920000000  0.5240860000000 1.0
C      1  0.5870900000000  0.4715090000000  0.4762280000000 1.0
C      1  0.5268660000000  0.3999220000000  0.4982200000000 1.0
C      1  0.5105490000000  0.4372380000000  0.5967730000000 1.0
C      1  0.4968820000000  0.4904870000000  0.4292120000000 1.0
C      1  0.5524190000000  0.5190630000000  0.4685590000000 1.0
C      1  0.4439560000000  0.5644380000000  0.4402390000000 1.0
C      1  0.4939380000000  0.4818430000000  0.6044840000000 1.0
C      1  0.5092180000000  0.5019490000000  0.5289600000000 1.0
C      1  0.5553620000000  0.4357960000000  0.4745590000000 1.0
C      1  0.4182570000000  0.5528610000000  0.4326010000000 1.0
C      1  0.5844770000000  0.4826920000000  0.5596300000000 1.0
C      1  0.5838640000000  0.5255300000000  0.5329550000000 1.0
C      1  0.4465190000000  0.4215860000000  0.4851930000000 1.0
C      1  0.5129680000000  0.5402240000000  0.4980140000000 1.0
C      1  0.5753840000000  0.5129480000000  0.4478090000000 1.0
C      1  0.5358560000000  0.4146250000000  0.4080450000000 1.0
C      1  0.6061160000000  0.4683630000000  0.5245710000000 1.0
C      1  0.4551810000000  0.5427810000000  0.5918600000000 1.0
C      1  0.4951310000000  0.5245910000000  0.5158700000000 1.0
C      1  0.5157620000000  0.4095780000000  0.4514620000000 1.0
C      1  0.4768630000000  0.4042850000000  0.5121340000000 1.0
C      1  0.4535760000000  0.4872570000000  0.4060410000000 1.0
C      1  0.5486130000000  0.4488740000000  0.5678460000000 1.0
C      1  0.4024670000000  0.4486490000000  0.4477080000000 1.0
C      1  0.5131140000000  0.6050140000000  0.4670680000000 1.0
C      1  0.6237840000000  0.5039140000000  0.4650040000000 1.0
C      1  0.4667360000000  0.5477210000000  0.4848640000000 1.0
C      1  0.5326450000000  0.4778920000000  0.4507860000000 1.0
C      1  0.4245410000000  0.4112900000000  0.5034840000000 1.0
C      1  0.4558950000000  0.4413730000000  0.4090530000000 1.0
C      1  0.4697150000000  0.4651450000000  0.4644180000000 1.0
C      1  0.5274230000000  0.5072510000000  0.5518070000000 1.0
C      1  0.4035580000000  0.5005280000000  0.4802450000000 1.0
C      1  0.6109100000000  0.5448190000000  0.4543140000000 1.0
C      1  0.4634140000000  0.5659340000000  0.4172440000000 1.0
C      1  0.5388240000000  0.5458330000000  0.5330830000000 1.0
C      1  0.4908650000000  0.5312940000000  0.4320260000000 1.0
C      1  0.4537650000000  0.5138200000000  0.4468250000000 1.0
C      1  0.5301850000000  0.5254770000000  0.3982880000000 1.0
C      1  0.4011760000000  0.5088200000000  0.4514420000000 1.0
C      1  0.6056210000000  0.4556570000000  0.4966290000000 1.0
C      1  0.4478720000000  0.4081080000000  0.4586210000000 1.0
C      1  0.5573630000000  0.5030800000000  0.4250900000000 1.0
C      1  0.5917520000000  0.4552780000000  0.5508900000000 1.0
C      1  0.5626780000000  0.5434000000000  0.5856070000000 1.0
C      1  0.4904700000000  0.5973200000000  0.4511240000000 1.0
C      1  0.6054950000000  0.5396620000000  0.4832510000000 1.0
C      1  0.5157980000000  0.5037570000000  0.3858050000000 1.0
C      1  0.5206290000000  0.5692700000000  0.5927670000000 1.0
C      1  0.5738520000000  0.5627570000000  0.5688970000000 1.0
C      1  0.5353590000000  0.4599480000000  0.5424370000000 1.0
C      1  0.5629380000000  0.5317320000000  0.4940440000000 1.0
C      1  0.5539080000000  0.5716130000000  0.5239120000000 1.0
C      1  0.5110950000000  0.4602750000000  0.4956110000000 1.0
C      1  0.4778240000000  0.5083990000000  0.4983560000000 1.0
C      1  0.5149520000000  0.5926240000000  0.5191480000000 1.0
C      1  0.4962790000000  0.5123880000000  0.6045820000000 1.0
C      1  0.5994710000000  0.5022990000000  0.5429560000000 1.0
C      1  0.5264570000000  0.5885860000000  0.5735220000000 1.0
C      1  0.5249720000000  0.5167430000000  0.5993030000000 1.0
C      1  0.4826480000000  0.4805580000000  0.4036350000000 1.0
C      1  0.5331180000000  0.3944170000000  0.4696020000000 1.0
C      1  0.4351940000000  0.5819260000000  0.5517770000000 1.0
C      1  0.4162950000000  0.4519180000000  0.5676890000000 1.0
C      1  0.4655670000000  0.6057160000000  0.4646660000000 1.0
C      1  0.4497390000000  0.5467980000000  0.5313950000000 1.0
C      1  0.5480770000000  0.4736880000000  0.5883410000000 1.0
C      1  0.4858760000000  0.4377770000000  0.5433320000000 1.0
C      1  0.4026030000000  0.4912310000000  0.4299460000000 1.0
C      1  0.5369520000000  0.6122890000000  0.4812570000000 1.0
C      1  0.3912940000000  0.4731470000000  0.5181460000000 1.0
C      1  0.4529250000000  0.4978460000000  0.5419780000000 1.0
C      1  0.5969450000000  0.5532450000000  0.5295770000000 1.0
C      1  0.5112020000000  0.5901580000000  0.5500090000000 1.0
C      1  0.4311100000000  0.5962460000000  0.5281680000000 1.0
C      1  0.5130900000000  0.4076290000000  0.4225770000000 1.0
C      1  0.4769240000000  0.3980520000000  0.4825870000000 1.0
C      1  0.4060380000000  0.5223800000000  0.5249860000000 1.0
C      1  0.5169990000000  0.4640060000000  0.6082350000000 1.0
C      1  0.4689440000000  0.5973020000000  0.4947760000000 1.0
C      1  0.5865810000000  0.5398710000000  0.4388570000000 1.0
C      1  0.5688490000000  0.5611760000000  0.4379830000000 1.0
C      1  0.4932780000000  0.5700180000000  0.5982960000000 1.0
C      1  0.5445790000000  0.3907680000000  0.5188030000000 1.0
C      1  0.3955740000000  0.4503270000000  0.4752530000000 1.0
C      1  0.4060330000000  0.4342540000000  0.4992200000000 1.0
C      1  0.4929860000000  0.4263940000000  0.5180770000000 1.0
C      1  0.5323020000000  0.4951930000000  0.4729350000000 1.0
C      1  0.4959830000000  0.4525110000000  0.4659680000000 1.0
C      1  0.5569220000000  0.6010950000000  0.4637070000000 1.0
C      1  0.4945850000000  0.5052100000000  0.4741010000000 1.0
C      1  0.5041160000000  0.4624360000000  0.5486750000000 1.0
C      1  0.4891420000000  0.5787130000000  0.4268330000000 1.0
C      1  0.4584930000000  0.4510700000000  0.5395340000000 1.0
C      1  0.4914570000000  0.4198560000000  0.4634350000000 1.0
C      1  0.4846200000000  0.4160100000000  0.4162250000000 1.0
C      1  0.5971170000000  0.4927440000000  0.4579870000000 1.0
C      1  0.4159400000000  0.4553650000000  0.5172780000000 1.0
C      1  0.5498590000000  0.4865850000000  0.5202740000000 1.0
C      1  0.4279780000000  0.5381920000000  0.5799090000000 1.0
C      1  0.3972300000000  0.5251560000000  0.4960480000000 1.0
C      1  0.4329200000000  0.4108630000000  0.5332410000000 1.0
C      1  0.4321980000000  0.4941370000000  0.4863290000000 1.0
C      1  0.5208200000000  0.4080420000000  0.5596030000000 1.0
C      1  0.4506950000000  0.4517730000000  0.4823560000000 1.0
C      1  0.4404700000000  0.5918440000000  0.4556330000000 1.0
C      1  0.4209410000000  0.5555030000000  0.5563910000000 1.0
C      1  0.4888250000000  0.5308070000000  0.3855950000000 1.0
C      1  0.5229120000000  0.5359430000000  0.5573590000000 1.0
C      1  0.4703450000000  0.5359780000000  0.4093070000000 1.0
C      1  0.4365430000000  0.4612100000000  0.5877990000000 1.0
C      1  0.6301440000000  0.5247920000000  0.4463680000000 1.0
C      1  0.5331960000000  0.5425630000000  0.5852950000000 1.0
C      1  0.4772780000000  0.5237630000000  0.5820310000000 1.0
C      1  0.4411670000000  0.5873770000000  0.5028420000000 1.0
C      1  0.4494950000000  0.5146720000000  0.4173300000000 1.0
C      1  0.4706740000000  0.4169110000000  0.4429190000000 1.0
C      1  0.5943800000000  0.4261980000000  0.4512380000000 1.0
C      1  0.5740480000000  0.4898960000000  0.5853700000000 1.0
C      1  0.4795940000000  0.5417590000000  0.5346250000000 1.0
C      1  0.4402030000000  0.4914410000000  0.5882630000000 1.0
C      1  0.4400490000000  0.4638720000000  0.4179140000000 1.0
C      1  0.5636220000000  0.4424850000000  0.5021780000000 1.0
C      1  0.5100240000000  0.4651490000000  0.4421030000000 1.0
C      1  0.5316700000000  0.4811040000000  0.3933250000000 1.0
C      1  0.4962710000000  0.4758280000000  0.5218620000000 1.0
C      1  0.5181190000000  0.4302550000000  0.5044500000000 1.0
C      1  0.5536420000000  0.4770390000000  0.4116760000000 1.0
C      1  0.4455610000000  0.5584980000000  0.5041190000000 1.0
C      1  0.4668800000000  0.5700210000000  0.5883100000000 1.0
C      1  0.4392880000000  0.4699190000000  0.5019280000000 1.0
C      1  0.6219680000000  0.5171690000000  0.4905950000000 1.0
C      1  0.3870840000000  0.4765260000000  0.4882620000000 1.0
C      1  0.5310910000000  0.4272100000000  0.5790130000000 1.0
C      1  0.3990660000000  0.5461820000000  0.5401680000000 1.0
C      1  0.5972010000000  0.4133700000000  0.4772980000000 1.0
C      1  0.5273530000000  0.4945130000000  0.5785400000000 1.0
C      1  0.3942870000000  0.4707760000000  0.5644290000000 1.0
C      1  0.5411240000000  0.4367400000000  0.5228590000000 1.0
C      1  0.4125810000000  0.4654870000000  0.4277740000000 1.0
C      1  0.4863330000000  0.6088640000000  0.5182940000000 1.0
C      1  0.5078390000000  0.5318390000000  0.4708720000000 1.0
C      1  0.4006460000000  0.5471570000000  0.4768190000000 1.0
C      1  0.5737430000000  0.5178890000000  0.5894460000000 1.0
C      1  0.5559950000000  0.5220590000000  0.5211790000000 1.0
C      1  0.3936970000000  0.4973740000000  0.5744570000000 1.0
C      1  0.4814570000000  0.4512750000000  0.4006140000000 1.0
C      1  0.5292520000000  0.5155340000000  0.4266020000000 1.0
C      1  0.4226300000000  0.5920900000000  0.4798060000000 1.0
C      1  0.5746860000000  0.4494050000000  0.4562330000000 1.0
C      1  0.5763050000000  0.4094170000000  0.4346090000000 1.0
C      1  0.5454580000000  0.4115050000000  0.5396200000000 1.0
C      1  0.5305240000000  0.5369850000000  0.4510390000000 1.0
C      1  0.4926250000000  0.5390620000000  0.5600040000000 1.0
C      1  0.4007840000000  0.5746770000000  0.4801810000000 1.0
C      1  0.5598830000000  0.4063180000000  0.4688330000000 1.0
C      1  0.5093680000000  0.5561810000000  0.4239030000000 1.0
C      1  0.4881470000000  0.4125050000000  0.5612060000000 1.0
C      1  0.3917010000000  0.4972820000000  0.5361360000000 1.0
C      1  0.5365240000000  0.4768460000000  0.4948560000000 1.0
C      1  0.5782500000000  0.5722720000000  0.5427230000000 1.0
C      1  0.5637550000000  0.5613030000000  0.4961250000000 1.0
C      1  0.4606620000000  0.4006110000000  0.5366950000000 1.0
C      1  0.5602420000000  0.4525950000000  0.4279860000000 1.0
C      1  0.5120630000000  0.5474990000000  0.3950420000000 1.0
C      1  0.4841120000000  0.5723490000000  0.4870000000000 1.0
C      1  0.5402390000000  0.6042620000000  0.5098730000000 1.0
C      1  0.4383910000000  0.5192930000000  0.5260450000000 1.0
C      1  0.5112400000000  0.5697000000000  0.4978900000000 1.0
END
