TITL C-951333-8791-522 3.94860803247852e-06 125000 -899.7971694754 0 0 144 (C1) n - 1
REM
REM in /home/bkarasulu/work/CARBON/AIRSS/Generating-Clusters/EDIP-Nigel-Params/with-SteepDescent/Only-C1/SD-CG/HFTN-CG
REM
REM
REM
REM
REM
REM ./C.cell (11c1c37f851c82e70ff6c80c92926a4b)
REM
REM compiler GCC version 9.2.1 20190827 (Red Hat 9.2.1-1)
REM options -cpp -mtune=generic -march=x86-64 -g -O0 -fpre-include=/usr/include/finclude/math-vector-fortran.h
REM seed -1486545802 524381827 94600572 -1094974104 1071203329 176397693 -1265196641 498212955 -1491255108 -1206354876 1528711121 1543876739 689389576 591770611 -277833719 678052663 -1265385265 -502016791 867593536 1604087799 -655897744 140745969 1895300096 -500628688 1603353752 -817115457 1118774666 1254311336 1583449714 804850527 -499394105 364699123 -617865017
REM
CELL 1.54180   50.00000   50.00000   50.00000   90.00000   90.00000   90.00000
LATT -1
SFAC C  
C      1  0.5142750000000  0.5370230000000  0.4234190000000 1.0
C      1  0.4699610000000  0.5661030000000  0.4316400000000 1.0
C      1  0.4922350000000  0.5295450000000  0.5929210000000 1.0
C      1  0.5915710000000  0.5204040000000  0.4611800000000 1.0
C      1  0.5445250000000  0.5390740000000  0.4833650000000 1.0
C      1  0.5028870000000  0.4636230000000  0.4745080000000 1.0
C      1  0.4322320000000  0.5529430000000  0.5373590000000 1.0
C      1  0.4934060000000  0.4822800000000  0.6105880000000 1.0
C      1  0.4397760000000  0.5762350000000  0.4717790000000 1.0
C      1  0.4521480000000  0.5736280000000  0.5425630000000 1.0
C      1  0.5347950000000  0.5201140000000  0.5280540000000 1.0
C      1  0.4707440000000  0.5156870000000  0.5315450000000 1.0
C      1  0.5317770000000  0.4535420000000  0.5066060000000 1.0
C      1  0.4884750000000  0.5024960000000  0.3946590000000 1.0
C      1  0.5755300000000  0.4345890000000  0.5052000000000 1.0
C      1  0.5096740000000  0.6056790000000  0.5192120000000 1.0
C      1  0.5288000000000  0.4101210000000  0.5121530000000 1.0
C      1  0.5338800000000  0.5057280000000  0.6000920000000 1.0
C      1  0.5746080000000  0.5618860000000  0.4875620000000 1.0
C      1  0.5037730000000  0.4631060000000  0.5456760000000 1.0
C      1  0.4689620000000  0.4302230000000  0.5128800000000 1.0
C      1  0.4200480000000  0.4534790000000  0.5762660000000 1.0
C      1  0.5379560000000  0.4772520000000  0.5962690000000 1.0
C      1  0.4291550000000  0.5305540000000  0.4789960000000 1.0
C      1  0.6019460000000  0.5238500000000  0.5102150000000 1.0
C      1  0.5934590000000  0.5068810000000  0.5326710000000 1.0
C      1  0.5756340000000  0.4481650000000  0.4531260000000 1.0
C      1  0.4531810000000  0.5488320000000  0.4766250000000 1.0
C      1  0.5148290000000  0.4402100000000  0.4203810000000 1.0
C      1  0.4329420000000  0.5051460000000  0.4083550000000 1.0
C      1  0.5329980000000  0.4674060000000  0.4614820000000 1.0
C      1  0.5439390000000  0.5725290000000  0.4336550000000 1.0
C      1  0.4731600000000  0.4554500000000  0.5301420000000 1.0
C      1  0.4766610000000  0.5047270000000  0.4376650000000 1.0
C      1  0.3878300000000  0.4911010000000  0.4997450000000 1.0
C      1  0.5454820000000  0.5820200000000  0.5063120000000 1.0
C      1  0.5575830000000  0.5272940000000  0.4168480000000 1.0
C      1  0.4448960000000  0.4710120000000  0.5282800000000 1.0
C      1  0.5162880000000  0.5896270000000  0.5415630000000 1.0
C      1  0.5618220000000  0.4914680000000  0.4960260000000 1.0
C      1  0.4770110000000  0.4021870000000  0.5577560000000 1.0
C      1  0.4762400000000  0.4853230000000  0.5853460000000 1.0
C      1  0.5395700000000  0.4976440000000  0.4444950000000 1.0
C      1  0.4855010000000  0.5241090000000  0.4165210000000 1.0
C      1  0.4576040000000  0.4754200000000  0.4669470000000 1.0
C      1  0.4290290000000  0.4425920000000  0.4480620000000 1.0
C      1  0.5755450000000  0.5505280000000  0.5507060000000 1.0
C      1  0.5073770000000  0.4160740000000  0.4675580000000 1.0
C      1  0.4128080000000  0.4803470000000  0.4891620000000 1.0
C      1  0.5402540000000  0.5130540000000  0.5001520000000 1.0
C      1  0.5790360000000  0.5471370000000  0.4597410000000 1.0
C      1  0.4058730000000  0.5102530000000  0.5434910000000 1.0
C      1  0.5756940000000  0.4837010000000  0.5223620000000 1.0
C      1  0.5480820000000  0.5589570000000  0.5520680000000 1.0
C      1  0.4325570000000  0.5819330000000  0.5000600000000 1.0
C      1  0.5036090000000  0.5164540000000  0.5588250000000 1.0
C      1  0.5924710000000  0.5519110000000  0.5096710000000 1.0
C      1  0.4722100000000  0.4404160000000  0.4386310000000 1.0
C      1  0.5602380000000  0.4588380000000  0.5624830000000 1.0
C      1  0.4727310000000  0.4766840000000  0.4032200000000 1.0
C      1  0.5207950000000  0.5455750000000  0.5288760000000 1.0
C      1  0.4312710000000  0.4328380000000  0.4765900000000 1.0
C      1  0.5171180000000  0.3963920000000  0.5331130000000 1.0
C      1  0.4744640000000  0.5572270000000  0.5035630000000 1.0
C      1  0.5697590000000  0.5015780000000  0.4208970000000 1.0
C      1  0.5135880000000  0.5514260000000  0.5786430000000 1.0
C      1  0.4745510000000  0.4521480000000  0.4661660000000 1.0
C      1  0.4889300000000  0.4565210000000  0.4211270000000 1.0
C      1  0.4961920000000  0.4864200000000  0.4916780000000 1.0
C      1  0.5295450000000  0.6054040000000  0.4998970000000 1.0
C      1  0.4524510000000  0.5127910000000  0.5563540000000 1.0
C      1  0.5318300000000  0.5267230000000  0.4017560000000 1.0
C      1  0.5620240000000  0.4647420000000  0.5898820000000 1.0
C      1  0.4590910000000  0.5819550000000  0.5150900000000 1.0
C      1  0.5505480000000  0.4644410000000  0.4853760000000 1.0
C      1  0.4158770000000  0.5603770000000  0.5146120000000 1.0
C      1  0.4670220000000  0.5139300000000  0.5832550000000 1.0
C      1  0.5967030000000  0.5069760000000  0.4868530000000 1.0
C      1  0.5155270000000  0.4622000000000  0.6063430000000 1.0
C      1  0.5608960000000  0.5500680000000  0.4362610000000 1.0
C      1  0.4366200000000  0.4719980000000  0.4462450000000 1.0
C      1  0.4016770000000  0.4833640000000  0.5591020000000 1.0
C      1  0.5017780000000  0.5706730000000  0.5594850000000 1.0
C      1  0.5499630000000  0.5099440000000  0.5516780000000 1.0
C      1  0.5005360000000  0.5604040000000  0.4850350000000 1.0
C      1  0.4152530000000  0.4498510000000  0.4961340000000 1.0
C      1  0.4748810000000  0.5211880000000  0.4637180000000 1.0
C      1  0.5262380000000  0.4724050000000  0.5281730000000 1.0
C      1  0.5326390000000  0.5213580000000  0.5745510000000 1.0
C      1  0.4228280000000  0.5172190000000  0.4542340000000 1.0
C      1  0.5452920000000  0.4352540000000  0.5531920000000 1.0
C      1  0.5152840000000  0.4364900000000  0.5615560000000 1.0
C      1  0.5067920000000  0.5097660000000  0.6115850000000 1.0
C      1  0.5774470000000  0.5214270000000  0.5527060000000 1.0
C      1  0.4629390000000  0.4294970000000  0.4833200000000 1.0
C      1  0.5435470000000  0.5825270000000  0.5369760000000 1.0
C      1  0.4072440000000  0.5370060000000  0.4981660000000 1.0
C      1  0.5917030000000  0.4599400000000  0.5108480000000 1.0
C      1  0.3975000000000  0.5134140000000  0.5145930000000 1.0
C      1  0.4493550000000  0.4643400000000  0.5752700000000 1.0
C      1  0.5272720000000  0.5580710000000  0.5007860000000 1.0
C      1  0.4567540000000  0.5968540000000  0.4635500000000 1.0
C      1  0.5522150000000  0.4798090000000  0.5426460000000 1.0
C      1  0.4439470000000  0.4220770000000  0.5282790000000 1.0
C      1  0.5937750000000  0.5648110000000  0.5345600000000 1.0
C      1  0.4257330000000  0.4473640000000  0.5255440000000 1.0
C      1  0.5189240000000  0.5002250000000  0.3960500000000 1.0
C      1  0.4871260000000  0.5414660000000  0.5302820000000 1.0
C      1  0.4351630000000  0.4904220000000  0.5088620000000 1.0
C      1  0.4796320000000  0.4081900000000  0.4709330000000 1.0
C      1  0.5091160000000  0.4249980000000  0.4951580000000 1.0
C      1  0.4159330000000  0.4888290000000  0.4590340000000 1.0
C      1  0.5133590000000  0.5084070000000  0.4886490000000 1.0
C      1  0.4947300000000  0.5784860000000  0.4374670000000 1.0
C      1  0.4621040000000  0.5431680000000  0.4182080000000 1.0
C      1  0.5480050000000  0.4315800000000  0.5216790000000 1.0
C      1  0.4419380000000  0.5221520000000  0.4300760000000 1.0
C      1  0.4740840000000  0.5680550000000  0.5588600000000 1.0
C      1  0.4958460000000  0.4869220000000  0.5627350000000 1.0
C      1  0.5588150000000  0.4492530000000  0.4306850000000 1.0
C      1  0.4403240000000  0.4846910000000  0.5542360000000 1.0
C      1  0.4066710000000  0.4534750000000  0.5494610000000 1.0
C      1  0.5884590000000  0.4727280000000  0.4594610000000 1.0
C      1  0.5106260000000  0.4400010000000  0.5900140000000 1.0
C      1  0.5025510000000  0.5303030000000  0.4711810000000 1.0
C      1  0.5373010000000  0.4576030000000  0.4145300000000 1.0
C      1  0.4809540000000  0.6054840000000  0.4725610000000 1.0
C      1  0.4993410000000  0.5850800000000  0.4659330000000 1.0
C      1  0.4565410000000  0.5092090000000  0.5062190000000 1.0
C      1  0.4979480000000  0.4800040000000  0.4392230000000 1.0
C      1  0.5215050000000  0.4337860000000  0.4483410000000 1.0
C      1  0.5243130000000  0.4843520000000  0.4211960000000 1.0
C      1  0.5179200000000  0.5661930000000  0.4247740000000 1.0
C      1  0.4543520000000  0.4183850000000  0.5560790000000 1.0
C      1  0.6018580000000  0.4757880000000  0.4858040000000 1.0
C      1  0.4656530000000  0.4450600000000  0.5592690000000 1.0
C      1  0.4458670000000  0.4813710000000  0.4166290000000 1.0
C      1  0.5036070000000  0.4095750000000  0.5533180000000 1.0
C      1  0.4270420000000  0.5292080000000  0.5538780000000 1.0
C      1  0.4703300000000  0.4980640000000  0.4825780000000 1.0
C      1  0.4472630000000  0.4293640000000  0.4311420000000 1.0
C      1  0.5834310000000  0.4978030000000  0.4452360000000 1.0
C      1  0.5266400000000  0.5267710000000  0.4507070000000 1.0
C      1  0.5700450000000  0.4321740000000  0.4764460000000 1.0
END
