TITL C-951345-2650-55 -3.73666191072379e-06 125000 -1250.14400509703 0 0 199 (C1) n - 1
REM
REM in /home/bkarasulu/work/CARBON/AIRSS/Generating-Clusters/EDIP-Nigel-Params/with-SteepDescent/Only-C1/SD-CG/HFTN-CG
REM
REM
REM
REM
REM
REM ./C.cell (11c1c37f851c82e70ff6c80c92926a4b)
REM
REM compiler GCC version 9.2.1 20190827 (Red Hat 9.2.1-1)
REM options -cpp -mtune=generic -march=x86-64 -g -O0 -fpre-include=/usr/include/finclude/math-vector-fortran.h
REM seed -170215679 127037236 1605069667 -546933303 -1355027309 -1564180177 1691411144 1096903055 -554661447 1478043811 519751327 -291895504 -1109596891 1778249152 193933327 917030815 1803037621 525899967 525238581 1103079161 -1158706404 -44948047 -126150701 1637780406 -1418045837 1144419875 -584097091 -1022336147 1642991761 -1785205335 823813975 360485193 1885764189
REM
CELL 1.54180   50.00000   50.00000   50.00000   90.00000   90.00000   90.00000
LATT -1
SFAC C  
C      1  0.5837080000000  0.4622150000000  0.5455140000000 1.0
C      1  0.6024630000000  0.4661660000000  0.5221360000000 1.0
C      1  0.3893900000000  0.5089060000000  0.5211050000000 1.0
C      1  0.4184230000000  0.4630550000000  0.5723550000000 1.0
C      1  0.4924420000000  0.5188470000000  0.6109190000000 1.0
C      1  0.5594680000000  0.4505980000000  0.4127220000000 1.0
C      1  0.5569450000000  0.4985730000000  0.4832570000000 1.0
C      1  0.4118200000000  0.5597440000000  0.5078090000000 1.0
C      1  0.5753910000000  0.4745990000000  0.4102300000000 1.0
C      1  0.5017270000000  0.4727370000000  0.4936050000000 1.0
C      1  0.5178040000000  0.4576070000000  0.4718610000000 1.0
C      1  0.5277130000000  0.5701460000000  0.5198140000000 1.0
C      1  0.5599610000000  0.4718440000000  0.5011280000000 1.0
C      1  0.4033270000000  0.5287710000000  0.4435330000000 1.0
C      1  0.5091630000000  0.6135490000000  0.4768000000000 1.0
C      1  0.4706260000000  0.4727850000000  0.4464490000000 1.0
C      1  0.5257910000000  0.5217350000000  0.5209240000000 1.0
C      1  0.5195480000000  0.5289890000000  0.6105460000000 1.0
C      1  0.5933590000000  0.5112540000000  0.5576860000000 1.0
C      1  0.3951930000000  0.4573930000000  0.5095700000000 1.0
C      1  0.4720070000000  0.3794260000000  0.4931130000000 1.0
C      1  0.4127420000000  0.4268050000000  0.4383860000000 1.0
C      1  0.5216600000000  0.5439120000000  0.4740320000000 1.0
C      1  0.4513990000000  0.5026290000000  0.5929470000000 1.0
C      1  0.5617850000000  0.6044710000000  0.4853970000000 1.0
C      1  0.4015410000000  0.4800320000000  0.5568730000000 1.0
C      1  0.4047630000000  0.5078180000000  0.5656210000000 1.0
C      1  0.4451370000000  0.4549100000000  0.5784690000000 1.0
C      1  0.5091360000000  0.4760720000000  0.5693470000000 1.0
C      1  0.5422380000000  0.5161250000000  0.5628060000000 1.0
C      1  0.5416970000000  0.4142990000000  0.4446320000000 1.0
C      1  0.6105380000000  0.5446440000000  0.5227590000000 1.0
C      1  0.4809680000000  0.5016780000000  0.5218480000000 1.0
C      1  0.5777050000000  0.5152480000000  0.5179830000000 1.0
C      1  0.5228860000000  0.4842990000000  0.6262740000000 1.0
C      1  0.5680460000000  0.5830930000000  0.4416350000000 1.0
C      1  0.4855640000000  0.5936820000000  0.5486320000000 1.0
C      1  0.4692490000000  0.3953240000000  0.5678490000000 1.0
C      1  0.3851810000000  0.5194980000000  0.4933790000000 1.0
C      1  0.4331050000000  0.5061650000000  0.4968310000000 1.0
C      1  0.4265860000000  0.5085880000000  0.5825170000000 1.0
C      1  0.5522170000000  0.4185960000000  0.5211710000000 1.0
C      1  0.5908400000000  0.4999850000000  0.4660250000000 1.0
C      1  0.4954500000000  0.4898410000000  0.6171730000000 1.0
C      1  0.5913680000000  0.5468650000000  0.4652150000000 1.0
C      1  0.6143160000000  0.5198660000000  0.5050490000000 1.0
C      1  0.5294770000000  0.5960510000000  0.5362750000000 1.0
C      1  0.5620730000000  0.4334550000000  0.4366500000000 1.0
C      1  0.5961370000000  0.4807910000000  0.4289040000000 1.0
C      1  0.4602740000000  0.5397530000000  0.3972980000000 1.0
C      1  0.4430190000000  0.3877640000000  0.4882720000000 1.0
C      1  0.5960250000000  0.5406440000000  0.5492180000000 1.0
C      1  0.5530080000000  0.4557260000000  0.5970030000000 1.0
C      1  0.4438510000000  0.4023440000000  0.5578130000000 1.0
C      1  0.4256450000000  0.4769240000000  0.4476250000000 1.0
C      1  0.5042640000000  0.4998410000000  0.4555490000000 1.0
C      1  0.4841720000000  0.3807410000000  0.5479690000000 1.0
C      1  0.5228180000000  0.5550620000000  0.5644290000000 1.0
C      1  0.5230190000000  0.4773510000000  0.4497810000000 1.0
C      1  0.4426370000000  0.4247940000000  0.5413710000000 1.0
C      1  0.4870910000000  0.5303930000000  0.3908710000000 1.0
C      1  0.4936310000000  0.5704090000000  0.4168550000000 1.0
C      1  0.5108490000000  0.4992950000000  0.4116230000000 1.0
C      1  0.5320300000000  0.4527310000000  0.4019710000000 1.0
C      1  0.4701740000000  0.5982520000000  0.4970360000000 1.0
C      1  0.5163460000000  0.4221040000000  0.5868280000000 1.0
C      1  0.4193750000000  0.5367760000000  0.4200750000000 1.0
C      1  0.5046550000000  0.4354800000000  0.5277850000000 1.0
C      1  0.5598660000000  0.5019140000000  0.5405820000000 1.0
C      1  0.4519510000000  0.4927070000000  0.4514070000000 1.0
C      1  0.4614290000000  0.5543440000000  0.5854820000000 1.0
C      1  0.5408470000000  0.4045770000000  0.4720090000000 1.0
C      1  0.4621760000000  0.4749090000000  0.5911830000000 1.0
C      1  0.4473360000000  0.4782690000000  0.4926580000000 1.0
C      1  0.5884630000000  0.4825510000000  0.5677830000000 1.0
C      1  0.5608610000000  0.4211350000000  0.5646210000000 1.0
C      1  0.4244220000000  0.4308420000000  0.4965350000000 1.0
C      1  0.5381580000000  0.5082430000000  0.6179860000000 1.0
C      1  0.6071520000000  0.5225490000000  0.4745920000000 1.0
C      1  0.4859310000000  0.5691010000000  0.5891390000000 1.0
C      1  0.5139030000000  0.3906470000000  0.5125820000000 1.0
C      1  0.4837360000000  0.5201900000000  0.5617990000000 1.0
C      1  0.5394150000000  0.4507690000000  0.4939710000000 1.0
C      1  0.4925390000000  0.4693010000000  0.5947320000000 1.0
C      1  0.4980130000000  0.5902460000000  0.5743140000000 1.0
C      1  0.4906650000000  0.6046980000000  0.4546600000000 1.0
C      1  0.4254780000000  0.5861060000000  0.5000610000000 1.0
C      1  0.5590760000000  0.4171390000000  0.4918080000000 1.0
C      1  0.5034070000000  0.6070740000000  0.5296600000000 1.0
C      1  0.4358790000000  0.5175000000000  0.5314480000000 1.0
C      1  0.4626900000000  0.5644340000000  0.4135830000000 1.0
C      1  0.5189380000000  0.4593850000000  0.5167820000000 1.0
C      1  0.4519020000000  0.5834260000000  0.5143970000000 1.0
C      1  0.4768680000000  0.5581120000000  0.4701000000000 1.0
C      1  0.5237690000000  0.4038510000000  0.4248650000000 1.0
C      1  0.5497280000000  0.4900290000000  0.4549730000000 1.0
C      1  0.4021200000000  0.4841760000000  0.4641130000000 1.0
C      1  0.6102810000000  0.4943690000000  0.5207120000000 1.0
C      1  0.6034920000000  0.4749620000000  0.4747400000000 1.0
C      1  0.5565410000000  0.4725080000000  0.5355730000000 1.0
C      1  0.3948780000000  0.4804740000000  0.5276550000000 1.0
C      1  0.4298170000000  0.5639930000000  0.4551410000000 1.0
C      1  0.5091610000000  0.4997300000000  0.5317250000000 1.0
C      1  0.4336150000000  0.4061770000000  0.4451340000000 1.0
C      1  0.4964340000000  0.4140250000000  0.5642230000000 1.0
C      1  0.6026640000000  0.4609320000000  0.4493820000000 1.0
C      1  0.5371000000000  0.6075050000000  0.4682650000000 1.0
C      1  0.5772450000000  0.5659790000000  0.5512470000000 1.0
C      1  0.4356350000000  0.5888920000000  0.4707440000000 1.0
C      1  0.5075250000000  0.5894790000000  0.4355980000000 1.0
C      1  0.4290690000000  0.3844940000000  0.4632800000000 1.0
C      1  0.4815140000000  0.4100930000000  0.4519700000000 1.0
C      1  0.4535220000000  0.4994980000000  0.5496120000000 1.0
C      1  0.4971610000000  0.6032360000000  0.5018710000000 1.0
C      1  0.4049770000000  0.5534320000000  0.5373450000000 1.0
C      1  0.4485400000000  0.4166300000000  0.4883900000000 1.0
C      1  0.3915050000000  0.5490730000000  0.4886310000000 1.0
C      1  0.5689170000000  0.5421440000000  0.5076560000000 1.0
C      1  0.4185460000000  0.5651250000000  0.5588400000000 1.0
C      1  0.5819740000000  0.5840650000000  0.5275350000000 1.0
C      1  0.5845990000000  0.4380830000000  0.4544070000000 1.0
C      1  0.4204490000000  0.4742350000000  0.4178830000000 1.0
C      1  0.5492870000000  0.5649280000000  0.4703630000000 1.0
C      1  0.5059160000000  0.4422760000000  0.6065760000000 1.0
C      1  0.5560720000000  0.5560090000000  0.5940590000000 1.0
C      1  0.4077070000000  0.5101770000000  0.4762810000000 1.0
C      1  0.4887160000000  0.4405520000000  0.5523830000000 1.0
C      1  0.4534400000000  0.4712830000000  0.5378900000000 1.0
C      1  0.4584220000000  0.4469090000000  0.5529190000000 1.0
C      1  0.5359170000000  0.5083320000000  0.4003010000000 1.0
C      1  0.4932040000000  0.4262100000000  0.4021050000000 1.0
C      1  0.4508320000000  0.5432290000000  0.4634470000000 1.0
C      1  0.4593770000000  0.5191940000000  0.4410330000000 1.0
C      1  0.5823670000000  0.5935500000000  0.4674120000000 1.0
C      1  0.5769030000000  0.5535070000000  0.4379250000000 1.0
C      1  0.4245940000000  0.4446820000000  0.4167540000000 1.0
C      1  0.5207790000000  0.4272520000000  0.3942800000000 1.0
C      1  0.4392350000000  0.4555010000000  0.4712800000000 1.0
C      1  0.5836930000000  0.4318520000000  0.4833030000000 1.0
C      1  0.4003220000000  0.4387060000000  0.4612080000000 1.0
C      1  0.5656830000000  0.5415000000000  0.4791730000000 1.0
C      1  0.5372970000000  0.5945190000000  0.4414010000000 1.0
C      1  0.5678330000000  0.5305440000000  0.5876290000000 1.0
C      1  0.5110820000000  0.5035540000000  0.5603780000000 1.0
C      1  0.5995030000000  0.5721000000000  0.4796730000000 1.0
C      1  0.4071950000000  0.5236310000000  0.5401310000000 1.0
C      1  0.5649710000000  0.5036580000000  0.4336300000000 1.0
C      1  0.4025490000000  0.5516580000000  0.4609210000000 1.0
C      1  0.5048220000000  0.5022430000000  0.4843300000000 1.0
C      1  0.5296070000000  0.4585060000000  0.5544020000000 1.0
C      1  0.5883860000000  0.4597520000000  0.4958490000000 1.0
C      1  0.4927340000000  0.5504970000000  0.5552570000000 1.0
C      1  0.3959390000000  0.4599730000000  0.4793850000000 1.0
C      1  0.5726720000000  0.4195830000000  0.5405040000000 1.0
C      1  0.4919620000000  0.5208090000000  0.4380110000000 1.0
C      1  0.4802980000000  0.4634780000000  0.4215050000000 1.0
C      1  0.5309140000000  0.4567670000000  0.6173380000000 1.0
C      1  0.5126910000000  0.4699210000000  0.4206430000000 1.0
C      1  0.4521240000000  0.4379430000000  0.4133950000000 1.0
C      1  0.5570410000000  0.5334440000000  0.4299090000000 1.0
C      1  0.4336260000000  0.5640690000000  0.4250650000000 1.0
C      1  0.5418080000000  0.5418410000000  0.5424870000000 1.0
C      1  0.4565220000000  0.5528780000000  0.5115070000000 1.0
C      1  0.5302980000000  0.5172330000000  0.4911750000000 1.0
C      1  0.5362500000000  0.5353730000000  0.4084260000000 1.0
C      1  0.4536570000000  0.5410920000000  0.5374960000000 1.0
C      1  0.5292250000000  0.5870970000000  0.5653350000000 1.0
C      1  0.5616170000000  0.5061440000000  0.6012710000000 1.0
C      1  0.4909240000000  0.3898230000000  0.4712870000000 1.0
C      1  0.5604930000000  0.5763460000000  0.5735680000000 1.0
C      1  0.4822530000000  0.5174660000000  0.4966450000000 1.0
C      1  0.4862180000000  0.3858840000000  0.5194610000000 1.0
C      1  0.4404080000000  0.4920190000000  0.4024090000000 1.0
C      1  0.4198990000000  0.4320680000000  0.5248030000000 1.0
C      1  0.5253110000000  0.5711050000000  0.4904000000000 1.0
C      1  0.5670540000000  0.4808560000000  0.5884210000000 1.0
C      1  0.4677930000000  0.4738340000000  0.5129620000000 1.0
C      1  0.5287310000000  0.5544100000000  0.6024460000000 1.0
C      1  0.4674060000000  0.4598020000000  0.3746740000000 1.0
C      1  0.4677350000000  0.5891700000000  0.4696070000000 1.0
C      1  0.5075570000000  0.5459110000000  0.4066240000000 1.0
C      1  0.5915260000000  0.5631430000000  0.5086120000000 1.0
C      1  0.5664260000000  0.6033120000000  0.5136120000000 1.0
C      1  0.4897610000000  0.5007330000000  0.3911280000000 1.0
C      1  0.4679650000000  0.4357880000000  0.3897170000000 1.0
C      1  0.4681500000000  0.4796760000000  0.3964990000000 1.0
C      1  0.5243350000000  0.4119410000000  0.5304620000000 1.0
C      1  0.4714730000000  0.5243300000000  0.5897930000000 1.0
C      1  0.5158650000000  0.3970150000000  0.4843560000000 1.0
C      1  0.5026350000000  0.5525150000000  0.5247400000000 1.0
C      1  0.4573070000000  0.5878860000000  0.5442130000000 1.0
C      1  0.4441150000000  0.5207650000000  0.4139580000000 1.0
C      1  0.4541380000000  0.4230150000000  0.4590050000000 1.0
C      1  0.4831960000000  0.5470000000000  0.5002550000000 1.0
C      1  0.4993830000000  0.5464710000000  0.4534840000000 1.0
C      1  0.4949810000000  0.4089920000000  0.4256450000000 1.0
C      1  0.4472170000000  0.5623400000000  0.5581180000000 1.0
C      1  0.4390870000000  0.5369870000000  0.4912120000000 1.0
C      1  0.5407310000000  0.4380160000000  0.5756290000000 1.0
END
