TITL C-951342-2639-634 8.33613676520917e-08 125000 -899.315194364355 0 0 145 (C1) n - 1
REM
REM in /home/bkarasulu/work/CARBON/AIRSS/Generating-Clusters/EDIP-Nigel-Params/with-SteepDescent/Only-C1/SD-CG/HFTN-CG
REM
REM
REM
REM
REM
REM ./C.cell (11c1c37f851c82e70ff6c80c92926a4b)
REM
REM compiler GCC version 9.2.1 20190827 (Red Hat 9.2.1-1)
REM options -cpp -mtune=generic -march=x86-64 -g -O0 -fpre-include=/usr/include/finclude/math-vector-fortran.h
REM seed -1137111917 -1583915794 -1630277802 1225921690 -505716497 1632909203 978255056 401523653 -1842571452 1013577911 58137633 1697120270 -374504430 -2147166867 -42407355 -80976020 -1834969075 306859723 -633747485 -1379569810 -719198665 -755736660 1279226113 -375781980 -843660826 1310018409 1737545915 -1466583069 513168786 -459266655 -1805329390 129037054 -1677696576
REM
CELL 1.54180   50.00000   50.00000   50.00000   90.00000   90.00000   90.00000
LATT -1
SFAC C  
C      1  0.4548480000000  0.5064580000000  0.5678860000000 1.0
C      1  0.4799700000000  0.5509210000000  0.5843660000000 1.0
C      1  0.5089480000000  0.4427080000000  0.4207420000000 1.0
C      1  0.4765260000000  0.5907650000000  0.4542580000000 1.0
C      1  0.4660740000000  0.5805320000000  0.5292680000000 1.0
C      1  0.5707730000000  0.4591430000000  0.4442750000000 1.0
C      1  0.4862190000000  0.3947430000000  0.5065580000000 1.0
C      1  0.4678040000000  0.4809520000000  0.5419070000000 1.0
C      1  0.4842360000000  0.4018000000000  0.5340490000000 1.0
C      1  0.5303970000000  0.5033390000000  0.5245030000000 1.0
C      1  0.5196770000000  0.5185610000000  0.5976830000000 1.0
C      1  0.5549410000000  0.5388780000000  0.4908020000000 1.0
C      1  0.4125420000000  0.5324290000000  0.5112090000000 1.0
C      1  0.5404420000000  0.4117930000000  0.4527210000000 1.0
C      1  0.4547240000000  0.4724490000000  0.5165470000000 1.0
C      1  0.4440340000000  0.4971530000000  0.5044040000000 1.0
C      1  0.4875520000000  0.4531760000000  0.5770400000000 1.0
C      1  0.5148300000000  0.4482130000000  0.4514160000000 1.0
C      1  0.4787240000000  0.4834270000000  0.4109540000000 1.0
C      1  0.5338360000000  0.4775840000000  0.5734220000000 1.0
C      1  0.5909850000000  0.4360930000000  0.4964010000000 1.0
C      1  0.5077430000000  0.4303830000000  0.5757580000000 1.0
C      1  0.5566590000000  0.4349590000000  0.4624270000000 1.0
C      1  0.4736110000000  0.5106400000000  0.5406550000000 1.0
C      1  0.4617800000000  0.5190640000000  0.5154100000000 1.0
C      1  0.4474280000000  0.4941180000000  0.4705560000000 1.0
C      1  0.5154150000000  0.6109070000000  0.5151670000000 1.0
C      1  0.4779630000000  0.5071360000000  0.4717010000000 1.0
C      1  0.5061240000000  0.4697070000000  0.4092780000000 1.0
C      1  0.4779220000000  0.5297750000000  0.4926400000000 1.0
C      1  0.4904560000000  0.5690160000000  0.5370180000000 1.0
C      1  0.4048650000000  0.5138730000000  0.5627620000000 1.0
C      1  0.5145480000000  0.4730190000000  0.4986440000000 1.0
C      1  0.5202500000000  0.5992090000000  0.4677670000000 1.0
C      1  0.5311140000000  0.4836320000000  0.4145670000000 1.0
C      1  0.5284730000000  0.5148980000000  0.4610790000000 1.0
C      1  0.5650160000000  0.4754420000000  0.5031270000000 1.0
C      1  0.4325200000000  0.5114860000000  0.4392680000000 1.0
C      1  0.4346360000000  0.5496680000000  0.5585170000000 1.0
C      1  0.4988990000000  0.5481660000000  0.4547920000000 1.0
C      1  0.4979550000000  0.4466530000000  0.5044090000000 1.0
C      1  0.5498140000000  0.5346600000000  0.4457260000000 1.0
C      1  0.5537940000000  0.4689070000000  0.4234440000000 1.0
C      1  0.5029020000000  0.5356750000000  0.5793900000000 1.0
C      1  0.5827780000000  0.4644590000000  0.5548820000000 1.0
C      1  0.5124490000000  0.5639970000000  0.4335270000000 1.0
C      1  0.4226190000000  0.4452100000000  0.4712970000000 1.0
C      1  0.5827240000000  0.4916560000000  0.5599380000000 1.0
C      1  0.4298140000000  0.5505530000000  0.5288410000000 1.0
C      1  0.5159880000000  0.4890620000000  0.5951280000000 1.0
C      1  0.4401870000000  0.4186870000000  0.5136330000000 1.0
C      1  0.4147290000000  0.5385860000000  0.4821540000000 1.0
C      1  0.4991010000000  0.4438640000000  0.5328400000000 1.0
C      1  0.5017990000000  0.5877080000000  0.5570070000000 1.0
C      1  0.5422280000000  0.4884870000000  0.4611090000000 1.0
C      1  0.4979630000000  0.5181510000000  0.4501140000000 1.0
C      1  0.5825530000000  0.5329910000000  0.4752320000000 1.0
C      1  0.6063120000000  0.5284900000000  0.4923170000000 1.0
C      1  0.5065690000000  0.5416070000000  0.4936400000000 1.0
C      1  0.5290980000000  0.5776310000000  0.5634210000000 1.0
C      1  0.4502380000000  0.4602960000000  0.4714530000000 1.0
C      1  0.4484670000000  0.4184390000000  0.4858610000000 1.0
C      1  0.4628800000000  0.4909100000000  0.5945030000000 1.0
C      1  0.5960220000000  0.5583550000000  0.4702660000000 1.0
C      1  0.4919000000000  0.4644320000000  0.4565010000000 1.0
C      1  0.4234530000000  0.4412410000000  0.5197330000000 1.0
C      1  0.4217500000000  0.5657480000000  0.4720280000000 1.0
C      1  0.5476850000000  0.5234540000000  0.5863000000000 1.0
C      1  0.5541970000000  0.5658570000000  0.4472540000000 1.0
C      1  0.4653230000000  0.4509030000000  0.4980350000000 1.0
C      1  0.4925840000000  0.4826590000000  0.4791270000000 1.0
C      1  0.4721780000000  0.4010700000000  0.4825410000000 1.0
C      1  0.5421200000000  0.4269210000000  0.5079550000000 1.0
C      1  0.5048960000000  0.5918140000000  0.4435910000000 1.0
C      1  0.5362310000000  0.4135660000000  0.5365400000000 1.0
C      1  0.4880740000000  0.4065390000000  0.4581070000000 1.0
C      1  0.5882130000000  0.5359310000000  0.5398710000000 1.0
C      1  0.4801970000000  0.5135690000000  0.4155980000000 1.0
C      1  0.5407750000000  0.5940700000000  0.5383240000000 1.0
C      1  0.5642920000000  0.4484010000000  0.5413190000000 1.0
C      1  0.5919750000000  0.4625970000000  0.5046920000000 1.0
C      1  0.5573750000000  0.5762970000000  0.5212470000000 1.0
C      1  0.5666290000000  0.4250260000000  0.4887800000000 1.0
C      1  0.5062170000000  0.6122420000000  0.5419260000000 1.0
C      1  0.5145360000000  0.4206400000000  0.4641400000000 1.0
C      1  0.5065790000000  0.5277550000000  0.4082630000000 1.0
C      1  0.5327800000000  0.4635060000000  0.4736540000000 1.0
C      1  0.4423890000000  0.4693700000000  0.5855010000000 1.0
C      1  0.5344370000000  0.4434700000000  0.5770430000000 1.0
C      1  0.5596140000000  0.5488230000000  0.5339610000000 1.0
C      1  0.5463670000000  0.5840040000000  0.4719850000000 1.0
C      1  0.5607880000000  0.4977700000000  0.5215660000000 1.0
C      1  0.5022650000000  0.6016660000000  0.4907210000000 1.0
C      1  0.5073170000000  0.4189210000000  0.5462170000000 1.0
C      1  0.5320580000000  0.5120900000000  0.4099870000000 1.0
C      1  0.4118060000000  0.5172310000000  0.4614750000000 1.0
C      1  0.4732460000000  0.4228570000000  0.4382930000000 1.0
C      1  0.5432830000000  0.5661220000000  0.4964330000000 1.0
C      1  0.4108620000000  0.4930850000000  0.5453630000000 1.0
C      1  0.6071630000000  0.4810480000000  0.4890670000000 1.0
C      1  0.5296790000000  0.5225720000000  0.4906710000000 1.0
C      1  0.5069960000000  0.5557860000000  0.4072200000000 1.0
C      1  0.4191240000000  0.4965970000000  0.4175040000000 1.0
C      1  0.4296670000000  0.5241880000000  0.5704880000000 1.0
C      1  0.4734340000000  0.5998580000000  0.4822680000000 1.0
C      1  0.5157330000000  0.4248440000000  0.4934700000000 1.0
C      1  0.5828240000000  0.5155220000000  0.4459300000000 1.0
C      1  0.4671920000000  0.4517940000000  0.4475470000000 1.0
C      1  0.5448390000000  0.4563680000000  0.5168270000000 1.0
C      1  0.5515250000000  0.4285730000000  0.5574180000000 1.0
C      1  0.4083640000000  0.4529960000000  0.4972510000000 1.0
C      1  0.4282300000000  0.4726020000000  0.5583080000000 1.0
C      1  0.4567430000000  0.4674390000000  0.4250980000000 1.0
C      1  0.4893940000000  0.4761920000000  0.5962110000000 1.0
C      1  0.4147080000000  0.5014250000000  0.5155840000000 1.0
C      1  0.5130650000000  0.5559270000000  0.5192890000000 1.0
C      1  0.4464580000000  0.5766380000000  0.4885730000000 1.0
C      1  0.4453540000000  0.4286760000000  0.5595110000000 1.0
C      1  0.4417710000000  0.5745960000000  0.5175910000000 1.0
C      1  0.5567600000000  0.5240040000000  0.4192290000000 1.0
C      1  0.5573320000000  0.4974930000000  0.5752320000000 1.0
C      1  0.5871910000000  0.5070130000000  0.5335050000000 1.0
C      1  0.4575680000000  0.5595650000000  0.5716030000000 1.0
C      1  0.4109490000000  0.4651960000000  0.4513020000000 1.0
C      1  0.4723060000000  0.5613290000000  0.4543330000000 1.0
C      1  0.4587010000000  0.4163840000000  0.5360940000000 1.0
C      1  0.4881140000000  0.4245380000000  0.4144590000000 1.0
C      1  0.5306120000000  0.5363910000000  0.5360930000000 1.0
C      1  0.4631230000000  0.5527610000000  0.4805410000000 1.0
C      1  0.5654180000000  0.4919130000000  0.4779350000000 1.0
C      1  0.4235530000000  0.4456040000000  0.5486190000000 1.0
C      1  0.5801840000000  0.5758900000000  0.4552610000000 1.0
C      1  0.6078760000000  0.5040970000000  0.5075940000000 1.0
C      1  0.4932950000000  0.4666690000000  0.5494830000000 1.0
C      1  0.4034940000000  0.4894550000000  0.4684700000000 1.0
C      1  0.4265250000000  0.4707680000000  0.4256300000000 1.0
C      1  0.5184770000000  0.4845210000000  0.5480280000000 1.0
C      1  0.4271350000000  0.5635700000000  0.4441910000000 1.0
C      1  0.5862660000000  0.4839640000000  0.4581190000000 1.0
C      1  0.4000230000000  0.4821990000000  0.4966630000000 1.0
C      1  0.4520840000000  0.5549880000000  0.4337110000000 1.0
C      1  0.4540610000000  0.5274520000000  0.4255400000000 1.0
C      1  0.5732590000000  0.5488290000000  0.5606180000000 1.0
C      1  0.4586860000000  0.4442770000000  0.5810260000000 1.0
C      1  0.5278660000000  0.5465920000000  0.5651480000000 1.0
END
