TITL C-951337-3020-51 3.25992452903808e-06 125000 -569.141219241928 0 0 93 (C1) n - 1
REM
REM in /home/bkarasulu/work/CARBON/AIRSS/Generating-Clusters/EDIP-Nigel-Params/with-SteepDescent/Only-C1/SD-CG/HFTN-CG
REM
REM
REM
REM
REM
REM ./C.cell (11c1c37f851c82e70ff6c80c92926a4b)
REM
REM compiler GCC version 9.2.1 20190827 (Red Hat 9.2.1-1)
REM options -cpp -mtune=generic -march=x86-64 -g -O0 -fpre-include=/usr/include/finclude/math-vector-fortran.h
REM seed -803918270 771542304 532883734 -1360937882 1982663935 -2065874667 1091215002 -29563818 211609924 -733829300 193075395 -1784367036 -1605861615 -1432436821 -2141516039 790969934 -1763556670 -502687907 541816188 1738700477 -903017657 -1588900680 1583673016 2080641572 -30944616 1849685274 1658235056 1446527453 1082400001 407566152 -1224289637 -1346175041 1283079962
REM
CELL 1.54180   50.00000   50.00000   50.00000   90.00000   90.00000   90.00000
LATT -1
SFAC C  
C      1  0.5088750000000  0.5261350000000  0.4309060000000 1.0
C      1  0.4473210000000  0.4425110000000  0.4774430000000 1.0
C      1  0.4548190000000  0.4506740000000  0.5244890000000 1.0
C      1  0.5648470000000  0.4495890000000  0.5160680000000 1.0
C      1  0.4848620000000  0.4606780000000  0.5578750000000 1.0
C      1  0.5596810000000  0.4744410000000  0.4463780000000 1.0
C      1  0.5441230000000  0.4297740000000  0.5238380000000 1.0
C      1  0.5048550000000  0.5557100000000  0.5619000000000 1.0
C      1  0.5061020000000  0.5272980000000  0.4908720000000 1.0
C      1  0.5672860000000  0.5017410000000  0.4546330000000 1.0
C      1  0.4923680000000  0.4204380000000  0.4776230000000 1.0
C      1  0.4695760000000  0.5579990000000  0.4473250000000 1.0
C      1  0.4426540000000  0.5616790000000  0.4885350000000 1.0
C      1  0.5805970000000  0.5382430000000  0.5444280000000 1.0
C      1  0.4547910000000  0.5568290000000  0.5172300000000 1.0
C      1  0.4613210000000  0.5367340000000  0.5642650000000 1.0
C      1  0.4513130000000  0.4290670000000  0.5034950000000 1.0
C      1  0.5396380000000  0.4315090000000  0.4575100000000 1.0
C      1  0.5247530000000  0.4801810000000  0.4859750000000 1.0
C      1  0.5799890000000  0.4990360000000  0.4814100000000 1.0
C      1  0.5318700000000  0.4719800000000  0.4356460000000 1.0
C      1  0.5567000000000  0.5393510000000  0.5140870000000 1.0
C      1  0.4476370000000  0.5154670000000  0.4258520000000 1.0
C      1  0.5068610000000  0.4983970000000  0.4997470000000 1.0
C      1  0.5377440000000  0.4908190000000  0.5686560000000 1.0
C      1  0.4438580000000  0.4869060000000  0.4336330000000 1.0
C      1  0.4845690000000  0.4873100000000  0.4576400000000 1.0
C      1  0.5432250000000  0.5362750000000  0.4689650000000 1.0
C      1  0.5441450000000  0.5211210000000  0.4946020000000 1.0
C      1  0.5320470000000  0.4788440000000  0.5409610000000 1.0
C      1  0.4766070000000  0.4463490000000  0.4359190000000 1.0
C      1  0.5580440000000  0.4781350000000  0.5232050000000 1.0
C      1  0.4734680000000  0.4392920000000  0.4640440000000 1.0
C      1  0.5622950000000  0.4496070000000  0.4637290000000 1.0
C      1  0.4948330000000  0.4267720000000  0.5291900000000 1.0
C      1  0.5005520000000  0.4360990000000  0.4265480000000 1.0
C      1  0.5141700000000  0.4813630000000  0.4587270000000 1.0
C      1  0.4209100000000  0.4793150000000  0.5065550000000 1.0
C      1  0.5359050000000  0.4120160000000  0.5027550000000 1.0
C      1  0.4851180000000  0.5670060000000  0.5163140000000 1.0
C      1  0.4978120000000  0.5558360000000  0.4341180000000 1.0
C      1  0.5546950000000  0.5395850000000  0.5582940000000 1.0
C      1  0.4162650000000  0.5142960000000  0.5510880000000 1.0
C      1  0.4565250000000  0.5281740000000  0.5165360000000 1.0
C      1  0.4648160000000  0.5738910000000  0.4727660000000 1.0
C      1  0.4636710000000  0.4868230000000  0.4853450000000 1.0
C      1  0.4461050000000  0.5378920000000  0.4457100000000 1.0
C      1  0.4825140000000  0.4837490000000  0.5364250000000 1.0
C      1  0.4731840000000  0.4375030000000  0.5448040000000 1.0
C      1  0.4424730000000  0.4720060000000  0.5540290000000 1.0
C      1  0.5065920000000  0.5448270000000  0.5153090000000 1.0
C      1  0.4807740000000  0.5328110000000  0.4749120000000 1.0
C      1  0.5910200000000  0.5161230000000  0.5282590000000 1.0
C      1  0.5539460000000  0.5626620000000  0.4710950000000 1.0
C      1  0.4273240000000  0.4814850000000  0.4556040000000 1.0
C      1  0.5461130000000  0.5170420000000  0.5719720000000 1.0
C      1  0.4062780000000  0.4983830000000  0.5274630000000 1.0
C      1  0.5200410000000  0.4540840000000  0.4957750000000 1.0
C      1  0.4898830000000  0.4963510000000  0.4132100000000 1.0
C      1  0.5218500000000  0.4283690000000  0.4828110000000 1.0
C      1  0.5020830000000  0.5253510000000  0.5381690000000 1.0
C      1  0.4386120000000  0.4907650000000  0.5308940000000 1.0
C      1  0.5273300000000  0.4423290000000  0.4320130000000 1.0
C      1  0.5128300000000  0.4841400000000  0.5826740000000 1.0
C      1  0.5878740000000  0.5212270000000  0.4994900000000 1.0
C      1  0.5369270000000  0.5225410000000  0.4441290000000 1.0
C      1  0.4360680000000  0.5346970000000  0.4739030000000 1.0
C      1  0.5127850000000  0.5752030000000  0.4478040000000 1.0
C      1  0.5208210000000  0.4425990000000  0.5384050000000 1.0
C      1  0.4717460000000  0.5180200000000  0.4106940000000 1.0
C      1  0.4726990000000  0.4763900000000  0.4318320000000 1.0
C      1  0.5801470000000  0.4914290000000  0.5356910000000 1.0
C      1  0.4390410000000  0.5161430000000  0.5702910000000 1.0
C      1  0.4793210000000  0.4165890000000  0.5041000000000 1.0
C      1  0.4851460000000  0.5741440000000  0.5471130000000 1.0
C      1  0.4569300000000  0.4918080000000  0.5717490000000 1.0
C      1  0.4709490000000  0.5191760000000  0.5398280000000 1.0
C      1  0.4883700000000  0.5319580000000  0.5792620000000 1.0
C      1  0.4570890000000  0.5638670000000  0.5506480000000 1.0
C      1  0.5529890000000  0.4910200000000  0.4952550000000 1.0
C      1  0.5339590000000  0.5593010000000  0.5500120000000 1.0
C      1  0.4578720000000  0.5184920000000  0.4889940000000 1.0
C      1  0.5127820000000  0.5805660000000  0.4755750000000 1.0
C      1  0.5370280000000  0.5746240000000  0.4905260000000 1.0
C      1  0.4728960000000  0.4720260000000  0.5107220000000 1.0
C      1  0.5736300000000  0.4471390000000  0.4894790000000 1.0
C      1  0.4374800000000  0.4717500000000  0.4805590000000 1.0
C      1  0.4877150000000  0.5011590000000  0.5766740000000 1.0
C      1  0.5096690000000  0.4567280000000  0.5722640000000 1.0
C      1  0.5088120000000  0.4963940000000  0.5288600000000 1.0
C      1  0.4873980000000  0.5818560000000  0.4898580000000 1.0
C      1  0.5342740000000  0.5595100000000  0.5184340000000 1.0
C      1  0.4845200000000  0.5164750000000  0.4496010000000 1.0
END
