TITL C-951343-2256-613 -9.5914837549951e-08 125000 -318.399421812987 0 0 52 (C1) n - 1
REM
REM in /home/bkarasulu/work/CARBON/AIRSS/Generating-Clusters/EDIP-Nigel-Params/with-SteepDescent/Only-C1/SD-CG/HFTN-CG
REM
REM
REM
REM
REM
REM ./C.cell (11c1c37f851c82e70ff6c80c92926a4b)
REM
REM compiler GCC version 9.2.1 20190827 (Red Hat 9.2.1-1)
REM options -cpp -mtune=generic -march=x86-64 -g -O0 -fpre-include=/usr/include/finclude/math-vector-fortran.h
REM seed -1294583996 663886342 455452312 -1275558726 2005041569 914068693 -1964673681 -1022833916 -401720996 -1753385905 1568563875 688402295 1490537580 -810949392 -1575263784 -1043708682 -294926720 1243041685 -2065143951 -1976248800 -1719521423 947020128 -590350218 -43682711 -1305518934 1447475462 1334213654 -1191987827 -1461364468 -1733512958 365046851 -968823459 763226320
REM
CELL 1.54180   50.00000   50.00000   50.00000   90.00000   90.00000   90.00000
LATT -1
SFAC C  
C      1  0.5028780000000  0.4955610000000  0.4970400000000 1.0
C      1  0.5139320000000  0.4592010000000  0.5619530000000 1.0
C      1  0.4524520000000  0.5069250000000  0.5403090000000 1.0
C      1  0.5325800000000  0.4346400000000  0.4858330000000 1.0
C      1  0.4938660000000  0.5265030000000  0.4322580000000 1.0
C      1  0.4966390000000  0.5035640000000  0.5693800000000 1.0
C      1  0.4375680000000  0.5340800000000  0.5027420000000 1.0
C      1  0.4486400000000  0.4675010000000  0.4753010000000 1.0
C      1  0.4882490000000  0.5495560000000  0.5536860000000 1.0
C      1  0.5528400000000  0.5176010000000  0.4940470000000 1.0
C      1  0.4952970000000  0.4462330000000  0.5156860000000 1.0
C      1  0.4776000000000  0.5064400000000  0.4454740000000 1.0
C      1  0.4904130000000  0.4413240000000  0.4607430000000 1.0
C      1  0.5071050000000  0.4484900000000  0.4856100000000 1.0
C      1  0.5067490000000  0.5316340000000  0.5644190000000 1.0
C      1  0.5655540000000  0.4722360000000  0.4863140000000 1.0
C      1  0.5151600000000  0.4763750000000  0.4800380000000 1.0
C      1  0.5340270000000  0.5266420000000  0.4505460000000 1.0
C      1  0.5582890000000  0.4846440000000  0.5327150000000 1.0
C      1  0.5206140000000  0.5177250000000  0.4268550000000 1.0
C      1  0.5149200000000  0.5404220000000  0.4688090000000 1.0
C      1  0.5524640000000  0.5104500000000  0.4657590000000 1.0
C      1  0.5490570000000  0.4817460000000  0.4639570000000 1.0
C      1  0.4339960000000  0.4899400000000  0.5243280000000 1.0
C      1  0.5676000000000  0.4951200000000  0.5064550000000 1.0
C      1  0.5205580000000  0.4860590000000  0.5688800000000 1.0
C      1  0.5056090000000  0.4897560000000  0.5260500000000 1.0
C      1  0.4566890000000  0.5164970000000  0.4633480000000 1.0
C      1  0.5466810000000  0.4577750000000  0.5267430000000 1.0
C      1  0.5352180000000  0.5507810000000  0.5284990000000 1.0
C      1  0.5020840000000  0.5218220000000  0.4875690000000 1.0
C      1  0.4759050000000  0.4791410000000  0.4344740000000 1.0
C      1  0.4452070000000  0.4626770000000  0.5191900000000 1.0
C      1  0.4724960000000  0.4611630000000  0.5298310000000 1.0
C      1  0.4271790000000  0.5058530000000  0.4993710000000 1.0
C      1  0.4796930000000  0.4924060000000  0.5451460000000 1.0
C      1  0.5536600000000  0.4482440000000  0.4996530000000 1.0
C      1  0.4947980000000  0.5502290000000  0.4489840000000 1.0
C      1  0.5169460000000  0.4604820000000  0.5327790000000 1.0
C      1  0.4827120000000  0.5578640000000  0.5043740000000 1.0
C      1  0.4491730000000  0.5348670000000  0.5301900000000 1.0
C      1  0.5321880000000  0.5305620000000  0.5492990000000 1.0
C      1  0.4725240000000  0.5520350000000  0.5308890000000 1.0
C      1  0.5291900000000  0.5608220000000  0.4858060000000 1.0
C      1  0.4585730000000  0.5398780000000  0.4823470000000 1.0
C      1  0.5487510000000  0.5457440000000  0.5029670000000 1.0
C      1  0.5097560000000  0.5686300000000  0.5060480000000 1.0
C      1  0.4379920000000  0.4505340000000  0.4946720000000 1.0
C      1  0.5364230000000  0.5007920000000  0.5470280000000 1.0
C      1  0.4625710000000  0.4558520000000  0.4521320000000 1.0
C      1  0.4982840000000  0.4596100000000  0.4381890000000 1.0
C      1  0.4406490000000  0.4953730000000  0.4752850000000 1.0
END
