TITL C-951334-9093-420 -2.63251370565103e-06 125000 -1104.64994091277 0 0 175 (C1) n - 1
REM
REM in /home/bkarasulu/work/CARBON/AIRSS/Generating-Clusters/EDIP-Nigel-Params/with-SteepDescent/Only-C1/SD-CG/HFTN-CG
REM
REM
REM
REM
REM
REM ./C.cell (11c1c37f851c82e70ff6c80c92926a4b)
REM
REM compiler GCC version 9.2.1 20190827 (Red Hat 9.2.1-1)
REM options -cpp -mtune=generic -march=x86-64 -g -O0 -fpre-include=/usr/include/finclude/math-vector-fortran.h
REM seed 1085446642 -1207300543 1404401338 1561458998 1148492416 -2117929586 1590339884 -1732826257 -155714317 -1781891952 -1242901114 -144561844 -489690283 590492245 -1085056664 -1926147794 -1866153033 757402009 647679087 430590463 -1549745058 2022007011 592858750 1669285160 -270091011 96570531 1461432302 1053814963 -701779946 1778970225 -1528441143 -1491921442 1790730943
REM
CELL 1.54180   50.00000   50.00000   50.00000   90.00000   90.00000   90.00000
LATT -1
SFAC C  
C      1  0.4508650000000  0.5830790000000  0.4296960000000 1.0
C      1  0.4206860000000  0.4218840000000  0.4913510000000 1.0
C      1  0.4939760000000  0.5175220000000  0.3886690000000 1.0
C      1  0.5817250000000  0.5442540000000  0.5207140000000 1.0
C      1  0.5765620000000  0.4454490000000  0.5232170000000 1.0
C      1  0.4238860000000  0.4682100000000  0.5372740000000 1.0
C      1  0.5200680000000  0.4463240000000  0.5343610000000 1.0
C      1  0.5239910000000  0.4940780000000  0.6091860000000 1.0
C      1  0.5319150000000  0.4007660000000  0.5009960000000 1.0
C      1  0.5497640000000  0.5772360000000  0.4936760000000 1.0
C      1  0.6052080000000  0.5251530000000  0.4800710000000 1.0
C      1  0.5392430000000  0.5953560000000  0.5442840000000 1.0
C      1  0.4641760000000  0.5648860000000  0.4105250000000 1.0
C      1  0.4122870000000  0.5583580000000  0.5193260000000 1.0
C      1  0.4898930000000  0.5044810000000  0.5007150000000 1.0
C      1  0.5230350000000  0.5903820000000  0.4501800000000 1.0
C      1  0.5615500000000  0.5602510000000  0.4311930000000 1.0
C      1  0.4637430000000  0.5186510000000  0.5965440000000 1.0
C      1  0.5718540000000  0.5153100000000  0.4134670000000 1.0
C      1  0.5587590000000  0.4864420000000  0.4357390000000 1.0
C      1  0.4790430000000  0.4680350000000  0.4078510000000 1.0
C      1  0.5940530000000  0.5092810000000  0.4314920000000 1.0
C      1  0.4973410000000  0.4966820000000  0.5466450000000 1.0
C      1  0.5303900000000  0.4732370000000  0.5230350000000 1.0
C      1  0.4395190000000  0.5493930000000  0.4852150000000 1.0
C      1  0.4853470000000  0.5340370000000  0.5155120000000 1.0
C      1  0.4722370000000  0.5694800000000  0.5639230000000 1.0
C      1  0.4973850000000  0.4295780000000  0.4942020000000 1.0
C      1  0.4595390000000  0.4086850000000  0.4689830000000 1.0
C      1  0.5438200000000  0.5813380000000  0.4338630000000 1.0
C      1  0.5730750000000  0.4948450000000  0.5133530000000 1.0
C      1  0.5457210000000  0.4798230000000  0.4088730000000 1.0
C      1  0.4253100000000  0.5541570000000  0.4284770000000 1.0
C      1  0.4605440000000  0.4965960000000  0.5095790000000 1.0
C      1  0.5968270000000  0.4794570000000  0.4378860000000 1.0
C      1  0.4104680000000  0.5109880000000  0.5564440000000 1.0
C      1  0.6130820000000  0.4607640000000  0.4931880000000 1.0
C      1  0.5064940000000  0.5852860000000  0.5896040000000 1.0
C      1  0.5714640000000  0.4927550000000  0.5893340000000 1.0
C      1  0.5133220000000  0.6087250000000  0.4945840000000 1.0
C      1  0.5113030000000  0.4548350000000  0.5612600000000 1.0
C      1  0.5399040000000  0.4780480000000  0.5717600000000 1.0
C      1  0.4053990000000  0.4573870000000  0.4577620000000 1.0
C      1  0.4664240000000  0.4794760000000  0.4552970000000 1.0
C      1  0.4722210000000  0.4360470000000  0.4764170000000 1.0
C      1  0.4814860000000  0.4676280000000  0.5994860000000 1.0
C      1  0.4632720000000  0.4426160000000  0.4113300000000 1.0
C      1  0.5034070000000  0.4004150000000  0.4916640000000 1.0
C      1  0.4702470000000  0.5917320000000  0.4498890000000 1.0
C      1  0.4032310000000  0.5495270000000  0.4712360000000 1.0
C      1  0.5789220000000  0.4454920000000  0.5562570000000 1.0
C      1  0.5288140000000  0.5685440000000  0.5846400000000 1.0
C      1  0.5931800000000  0.5495310000000  0.4945950000000 1.0
C      1  0.4798820000000  0.4205490000000  0.5781370000000 1.0
C      1  0.5507100000000  0.5102990000000  0.5039720000000 1.0
C      1  0.5519770000000  0.4923930000000  0.6091240000000 1.0
C      1  0.5919140000000  0.4995300000000  0.4900850000000 1.0
C      1  0.5775100000000  0.5528070000000  0.4531430000000 1.0
C      1  0.5088670000000  0.4267230000000  0.5756280000000 1.0
C      1  0.4397660000000  0.5311910000000  0.5878960000000 1.0
C      1  0.5225960000000  0.4403070000000  0.6013150000000 1.0
C      1  0.4665570000000  0.4430720000000  0.5913960000000 1.0
C      1  0.5064670000000  0.5397850000000  0.4038190000000 1.0
C      1  0.4507630000000  0.5118240000000  0.5373220000000 1.0
C      1  0.4704700000000  0.4539230000000  0.5364780000000 1.0
C      1  0.4093650000000  0.5082890000000  0.4389980000000 1.0
C      1  0.5997740000000  0.4622350000000  0.5664850000000 1.0
C      1  0.4634940000000  0.4899230000000  0.5934810000000 1.0
C      1  0.5273140000000  0.4957370000000  0.5460190000000 1.0
C      1  0.5051890000000  0.4230350000000  0.4236790000000 1.0
C      1  0.5336700000000  0.5419160000000  0.3984390000000 1.0
C      1  0.4495060000000  0.4534240000000  0.4905090000000 1.0
C      1  0.5753330000000  0.5664110000000  0.4786790000000 1.0
C      1  0.6070780000000  0.4776600000000  0.5440010000000 1.0
C      1  0.4916250000000  0.5916070000000  0.5662870000000 1.0
C      1  0.5075520000000  0.5541970000000  0.5172640000000 1.0
C      1  0.4905600000000  0.5058110000000  0.4707930000000 1.0
C      1  0.6005340000000  0.5267810000000  0.5348070000000 1.0
C      1  0.5315280000000  0.5522440000000  0.4988530000000 1.0
C      1  0.5713860000000  0.5084860000000  0.5658350000000 1.0
C      1  0.5371960000000  0.5397720000000  0.5901940000000 1.0
C      1  0.3894190000000  0.4670110000000  0.5018090000000 1.0
C      1  0.3998020000000  0.5409130000000  0.4987130000000 1.0
C      1  0.4226220000000  0.5851930000000  0.5083300000000 1.0
C      1  0.4426120000000  0.4762640000000  0.4714500000000 1.0
C      1  0.4927480000000  0.4337930000000  0.5248110000000 1.0
C      1  0.4483940000000  0.5260820000000  0.4684520000000 1.0
C      1  0.4443540000000  0.5164610000000  0.4011320000000 1.0
C      1  0.5079550000000  0.4060110000000  0.5473890000000 1.0
C      1  0.5239540000000  0.4415900000000  0.4851690000000 1.0
C      1  0.4845550000000  0.3845140000000  0.5048600000000 1.0
C      1  0.4283290000000  0.4423310000000  0.4469520000000 1.0
C      1  0.5580830000000  0.5403770000000  0.4111360000000 1.0
C      1  0.5105890000000  0.4680190000000  0.6033920000000 1.0
C      1  0.4572050000000  0.5462250000000  0.5100650000000 1.0
C      1  0.5460570000000  0.5077110000000  0.4755960000000 1.0
C      1  0.4389190000000  0.4799130000000  0.5820420000000 1.0
C      1  0.4491090000000  0.5714570000000  0.5457730000000 1.0
C      1  0.4469100000000  0.5933220000000  0.5253610000000 1.0
C      1  0.4427020000000  0.5017530000000  0.4859470000000 1.0
C      1  0.5877480000000  0.5019710000000  0.5405370000000 1.0
C      1  0.4896880000000  0.5321340000000  0.5913320000000 1.0
C      1  0.5506960000000  0.4381540000000  0.5973420000000 1.0
C      1  0.4884490000000  0.5442180000000  0.5634670000000 1.0
C      1  0.4315350000000  0.4172190000000  0.4630800000000 1.0
C      1  0.4354160000000  0.4477060000000  0.4190820000000 1.0
C      1  0.5464060000000  0.4217020000000  0.4827760000000 1.0
C      1  0.5506580000000  0.5348300000000  0.5168110000000 1.0
C      1  0.4449180000000  0.4167740000000  0.5395310000000 1.0
C      1  0.4101240000000  0.4505550000000  0.4868620000000 1.0
C      1  0.5090590000000  0.5908270000000  0.5409440000000 1.0
C      1  0.4594340000000  0.5948860000000  0.4779750000000 1.0
C      1  0.4377630000000  0.5468090000000  0.5327050000000 1.0
C      1  0.5231790000000  0.4687470000000  0.4729170000000 1.0
C      1  0.5494810000000  0.5822160000000  0.5692080000000 1.0
C      1  0.5563090000000  0.5346540000000  0.5667260000000 1.0
C      1  0.3958540000000  0.4737720000000  0.5299830000000 1.0
C      1  0.3914530000000  0.5036080000000  0.5340670000000 1.0
C      1  0.5736100000000  0.4308020000000  0.4946440000000 1.0
C      1  0.4635610000000  0.4875920000000  0.4271500000000 1.0
C      1  0.5536880000000  0.4492420000000  0.5712610000000 1.0
C      1  0.4761420000000  0.5279670000000  0.4568820000000 1.0
C      1  0.4697880000000  0.5957640000000  0.5064720000000 1.0
C      1  0.4685820000000  0.5011810000000  0.3894710000000 1.0
C      1  0.4929180000000  0.5634850000000  0.4160040000000 1.0
C      1  0.5476450000000  0.4182670000000  0.4522830000000 1.0
C      1  0.5128730000000  0.4816450000000  0.4999960000000 1.0
C      1  0.6052460000000  0.4563260000000  0.5220950000000 1.0
C      1  0.6180690000000  0.4890320000000  0.4876270000000 1.0
C      1  0.5957810000000  0.5302130000000  0.4525630000000 1.0
C      1  0.4956500000000  0.5757220000000  0.4451170000000 1.0
C      1  0.5491340000000  0.4817230000000  0.4649230000000 1.0
C      1  0.5785190000000  0.5695610000000  0.5350680000000 1.0
C      1  0.5849240000000  0.4540230000000  0.4488200000000 1.0
C      1  0.4433980000000  0.4143640000000  0.5099500000000 1.0
C      1  0.4236750000000  0.4997230000000  0.4143810000000 1.0
C      1  0.5236620000000  0.4101390000000  0.4401300000000 1.0
C      1  0.5121170000000  0.4510290000000  0.4182500000000 1.0
C      1  0.4595710000000  0.3941910000000  0.4955060000000 1.0
C      1  0.5143190000000  0.5522860000000  0.5463230000000 1.0
C      1  0.4866140000000  0.4711430000000  0.5555160000000 1.0
C      1  0.5201200000000  0.5435460000000  0.4713260000000 1.0
C      1  0.4015760000000  0.4876120000000  0.4595590000000 1.0
C      1  0.4964110000000  0.6035210000000  0.5157840000000 1.0
C      1  0.4413110000000  0.4503970000000  0.5787300000000 1.0
C      1  0.5312510000000  0.4104200000000  0.5288880000000 1.0
C      1  0.4155260000000  0.5313000000000  0.5754380000000 1.0
C      1  0.5422860000000  0.4515120000000  0.4148450000000 1.0
C      1  0.5704260000000  0.5624790000000  0.5624680000000 1.0
C      1  0.5075020000000  0.4673290000000  0.4448290000000 1.0
C      1  0.5161170000000  0.5198200000000  0.5962550000000 1.0
C      1  0.4769440000000  0.4227460000000  0.4269150000000 1.0
C      1  0.4698320000000  0.4086480000000  0.5527720000000 1.0
C      1  0.3946480000000  0.5131210000000  0.5060220000000 1.0
C      1  0.5580290000000  0.5870160000000  0.5222490000000 1.0
C      1  0.5321380000000  0.5969420000000  0.4780840000000 1.0
C      1  0.3880550000000  0.4925220000000  0.4862550000000 1.0
C      1  0.5368420000000  0.5297630000000  0.5439070000000 1.0
C      1  0.5586200000000  0.4422560000000  0.4387310000000 1.0
C      1  0.4800070000000  0.5139440000000  0.4276810000000 1.0
C      1  0.4089440000000  0.5374360000000  0.4453310000000 1.0
C      1  0.5206070000000  0.5155810000000  0.4626890000000 1.0
C      1  0.5077710000000  0.4978400000000  0.4310670000000 1.0
C      1  0.5917830000000  0.4466200000000  0.4769800000000 1.0
C      1  0.4418480000000  0.4454250000000  0.5488670000000 1.0
C      1  0.4609760000000  0.4679910000000  0.5129390000000 1.0
C      1  0.5211670000000  0.4950660000000  0.4049560000000 1.0
C      1  0.4265120000000  0.4724640000000  0.4098530000000 1.0
C      1  0.4802430000000  0.5212400000000  0.5439010000000 1.0
C      1  0.4320410000000  0.4915020000000  0.5545490000000 1.0
C      1  0.4796740000000  0.4525470000000  0.4509810000000 1.0
C      1  0.4333340000000  0.5810110000000  0.4800370000000 1.0
C      1  0.4476150000000  0.5414520000000  0.4152420000000 1.0
C      1  0.4937730000000  0.5524420000000  0.4636460000000 1.0
C      1  0.5595380000000  0.4689250000000  0.5166060000000 1.0
END
