TITL C-951343-2256-623 8.96153726011808e-07 125000 -150.194739150644 0 0 26 (C1) n - 1
REM
REM in /home/bkarasulu/work/CARBON/AIRSS/Generating-Clusters/EDIP-Nigel-Params/with-SteepDescent/Only-C1/SD-CG/HFTN-CG
REM
REM
REM
REM
REM
REM ./C.cell (11c1c37f851c82e70ff6c80c92926a4b)
REM
REM compiler GCC version 9.2.1 20190827 (Red Hat 9.2.1-1)
REM options -cpp -mtune=generic -march=x86-64 -g -O0 -fpre-include=/usr/include/finclude/math-vector-fortran.h
REM seed 418015321 -231056825 -1900171908 992772295 45919757 -375617330 438674573 -92862566 -1625634247 -413980417 1436237705 -1388082594 312896700 -794872494 -395423231 -1002391308 -1534286804 -619593782 -1246532610 491098730 530447469 286558596 -93991336 145027428 5365509 2125196930 1677130585 553882693 1272624998 -431794391 -1317272329 1679365925 -136814002
REM
CELL 1.54180   50.00000   50.00000   50.00000   90.00000   90.00000   90.00000
LATT -1
SFAC C  
C      1  0.4796500000000  0.5550570000000  0.4725840000000 1.0
C      1  0.5203410000000  0.5080060000000  0.5043570000000 1.0
C      1  0.4923060000000  0.4511960000000  0.5317110000000 1.0
C      1  0.4462870000000  0.4992030000000  0.5206050000000 1.0
C      1  0.4594960000000  0.4746810000000  0.4793490000000 1.0
C      1  0.4844230000000  0.4951300000000  0.5479130000000 1.0
C      1  0.5028360000000  0.4750690000000  0.5422220000000 1.0
C      1  0.4680390000000  0.5368340000000  0.4882400000000 1.0
C      1  0.5354530000000  0.5216560000000  0.4594330000000 1.0
C      1  0.5246970000000  0.4837110000000  0.5235820000000 1.0
C      1  0.5064370000000  0.5412510000000  0.5198720000000 1.0
C      1  0.4398910000000  0.4944080000000  0.4936110000000 1.0
C      1  0.4824660000000  0.5274100000000  0.5120250000000 1.0
C      1  0.4651900000000  0.4959160000000  0.4576210000000 1.0
C      1  0.4871550000000  0.4734290000000  0.4888000000000 1.0
C      1  0.4996200000000  0.4521370000000  0.5044360000000 1.0
C      1  0.5222640000000  0.5020420000000  0.4753830000000 1.0
C      1  0.5269010000000  0.4480420000000  0.4996640000000 1.0
C      1  0.4687920000000  0.5110280000000  0.5314450000000 1.0
C      1  0.5426050000000  0.5476620000000  0.4864770000000 1.0
C      1  0.5333080000000  0.5350960000000  0.5106300000000 1.0
C      1  0.5520240000000  0.4765620000000  0.5305790000000 1.0
C      1  0.5503350000000  0.4570370000000  0.5111060000000 1.0
C      1  0.5584740000000  0.5346460000000  0.4678390000000 1.0
C      1  0.4501870000000  0.5173570000000  0.4740700000000 1.0
C      1  0.5008240000000  0.4854370000000  0.4664470000000 1.0
END
