TITL C-951337-3020-361 -1.06569952888515e-06 125000 -1093.72407791635 0 0 176 (C1) n - 1
REM
REM in /home/bkarasulu/work/CARBON/AIRSS/Generating-Clusters/EDIP-Nigel-Params/with-SteepDescent/Only-C1/SD-CG/HFTN-CG
REM
REM
REM
REM
REM
REM ./C.cell (11c1c37f851c82e70ff6c80c92926a4b)
REM
REM compiler GCC version 9.2.1 20190827 (Red Hat 9.2.1-1)
REM options -cpp -mtune=generic -march=x86-64 -g -O0 -fpre-include=/usr/include/finclude/math-vector-fortran.h
REM seed -957792530 1439202216 1410838297 177469226 -1461937507 -1151625189 -1090689881 -298700133 -564651396 -222248624 82932971 1687063634 -2075086778 731911397 288526448 1011592300 -1225793720 -1681232764 702940677 1310536005 739019642 896479436 -442541141 -124074821 -884529772 671879778 -1483751839 -1387169131 -966457358 1561089535 584238532 1985970575 -1612429260
REM
CELL 1.54180   50.00000   50.00000   50.00000   90.00000   90.00000   90.00000
LATT -1
SFAC C  
C      1  0.5760910000000  0.4595470000000  0.4301750000000 1.0
C      1  0.4639050000000  0.4098500000000  0.4610270000000 1.0
C      1  0.5168130000000  0.4925270000000  0.3902440000000 1.0
C      1  0.5802790000000  0.5436520000000  0.5232810000000 1.0
C      1  0.6063360000000  0.5044090000000  0.5239960000000 1.0
C      1  0.4456170000000  0.5661910000000  0.5549940000000 1.0
C      1  0.5489110000000  0.5632510000000  0.4216070000000 1.0
C      1  0.4525710000000  0.5507520000000  0.4379730000000 1.0
C      1  0.3957830000000  0.5169050000000  0.4423200000000 1.0
C      1  0.5014620000000  0.5845350000000  0.4157200000000 1.0
C      1  0.4368740000000  0.4494880000000  0.4220200000000 1.0
C      1  0.4620110000000  0.5137860000000  0.5952220000000 1.0
C      1  0.5548510000000  0.4634650000000  0.5994660000000 1.0
C      1  0.5688060000000  0.5706950000000  0.5286480000000 1.0
C      1  0.4002100000000  0.5445420000000  0.5463640000000 1.0
C      1  0.5945320000000  0.4664490000000  0.5711380000000 1.0
C      1  0.4950410000000  0.4324070000000  0.4174560000000 1.0
C      1  0.3777480000000  0.4946980000000  0.5099350000000 1.0
C      1  0.4905350000000  0.4356000000000  0.5458140000000 1.0
C      1  0.4421240000000  0.4253390000000  0.5260040000000 1.0
C      1  0.5309220000000  0.5613470000000  0.4967410000000 1.0
C      1  0.5831070000000  0.5272060000000  0.4593800000000 1.0
C      1  0.5083480000000  0.4094460000000  0.4603190000000 1.0
C      1  0.4713400000000  0.5512130000000  0.5520760000000 1.0
C      1  0.4876260000000  0.4279690000000  0.4680910000000 1.0
C      1  0.5571040000000  0.4092280000000  0.4933160000000 1.0
C      1  0.5334520000000  0.5256940000000  0.5374730000000 1.0
C      1  0.5936260000000  0.5401130000000  0.5495600000000 1.0
C      1  0.4838920000000  0.3845570000000  0.4945600000000 1.0
C      1  0.4173760000000  0.5758810000000  0.5105350000000 1.0
C      1  0.5201470000000  0.4156070000000  0.5158260000000 1.0
C      1  0.4917710000000  0.4488310000000  0.5186600000000 1.0
C      1  0.5343240000000  0.5059300000000  0.5598200000000 1.0
C      1  0.5941700000000  0.4959540000000  0.5764460000000 1.0
C      1  0.5482260000000  0.4324880000000  0.5145910000000 1.0
C      1  0.4259000000000  0.4955040000000  0.5663660000000 1.0
C      1  0.4724550000000  0.5211760000000  0.4784680000000 1.0
C      1  0.4898730000000  0.4281980000000  0.4980420000000 1.0
C      1  0.4763960000000  0.5091390000000  0.4513540000000 1.0
C      1  0.4741800000000  0.4934610000000  0.5440880000000 1.0
C      1  0.5876910000000  0.5350350000000  0.4329740000000 1.0
C      1  0.3949620000000  0.5374820000000  0.4890300000000 1.0
C      1  0.5911270000000  0.4336740000000  0.5321210000000 1.0
C      1  0.4421940000000  0.5193890000000  0.5711730000000 1.0
C      1  0.5206820000000  0.6166710000000  0.5000980000000 1.0
C      1  0.5759720000000  0.5464410000000  0.4809010000000 1.0
C      1  0.4974510000000  0.4726300000000  0.4816260000000 1.0
C      1  0.5084700000000  0.5903870000000  0.4621790000000 1.0
C      1  0.5766650000000  0.5522570000000  0.5699290000000 1.0
C      1  0.4899120000000  0.5663970000000  0.5346190000000 1.0
C      1  0.5619060000000  0.5960760000000  0.4882710000000 1.0
C      1  0.5092380000000  0.3865740000000  0.4794330000000 1.0
C      1  0.5073180000000  0.4085860000000  0.4308170000000 1.0
C      1  0.3849610000000  0.5215370000000  0.5541810000000 1.0
C      1  0.5318690000000  0.5287180000000  0.6158570000000 1.0
C      1  0.4608720000000  0.5779190000000  0.4464980000000 1.0
C      1  0.4057810000000  0.5447050000000  0.4412450000000 1.0
C      1  0.4782340000000  0.5390220000000  0.3938470000000 1.0
C      1  0.4604290000000  0.5220360000000  0.5469320000000 1.0
C      1  0.4690020000000  0.4459200000000  0.5636800000000 1.0
C      1  0.4783260000000  0.4751670000000  0.5688690000000 1.0
C      1  0.5243050000000  0.5426020000000  0.4515120000000 1.0
C      1  0.5998040000000  0.5126710000000  0.5517720000000 1.0
C      1  0.5545180000000  0.4255350000000  0.5690390000000 1.0
C      1  0.5579190000000  0.5261180000000  0.6007510000000 1.0
C      1  0.4229410000000  0.4826130000000  0.4937360000000 1.0
C      1  0.5155790000000  0.4476960000000  0.5562370000000 1.0
C      1  0.5304470000000  0.5594450000000  0.5800250000000 1.0
C      1  0.4736760000000  0.4861110000000  0.5960090000000 1.0
C      1  0.3958970000000  0.4705430000000  0.5461730000000 1.0
C      1  0.4548850000000  0.4756470000000  0.5307680000000 1.0
C      1  0.3921480000000  0.5125940000000  0.4715880000000 1.0
C      1  0.5921950000000  0.4790300000000  0.5230870000000 1.0
C      1  0.5670000000000  0.4817320000000  0.6171840000000 1.0
C      1  0.4675030000000  0.4468740000000  0.4154100000000 1.0
C      1  0.4282040000000  0.4360000000000  0.4576660000000 1.0
C      1  0.5515600000000  0.4827130000000  0.5524220000000 1.0
C      1  0.5548350000000  0.4782390000000  0.4789960000000 1.0
C      1  0.5278960000000  0.4348690000000  0.5785320000000 1.0
C      1  0.4419890000000  0.4392030000000  0.5525820000000 1.0
C      1  0.5300690000000  0.5700160000000  0.4660100000000 1.0
C      1  0.5268710000000  0.4566540000000  0.5996020000000 1.0
C      1  0.5756420000000  0.5024490000000  0.6001390000000 1.0
C      1  0.5018990000000  0.4693450000000  0.3904670000000 1.0
C      1  0.4547290000000  0.5799310000000  0.4754170000000 1.0
C      1  0.4305250000000  0.4799590000000  0.4621390000000 1.0
C      1  0.5509780000000  0.5377810000000  0.5750810000000 1.0
C      1  0.5493880000000  0.4563760000000  0.4236710000000 1.0
C      1  0.5616800000000  0.4206830000000  0.4670980000000 1.0
C      1  0.5879030000000  0.4332280000000  0.4695770000000 1.0
C      1  0.5141600000000  0.4451920000000  0.3990370000000 1.0
C      1  0.5025610000000  0.4834680000000  0.6053980000000 1.0
C      1  0.4748310000000  0.4704920000000  0.4002540000000 1.0
C      1  0.4247180000000  0.5472230000000  0.5645620000000 1.0
C      1  0.3779570000000  0.4896560000000  0.4818970000000 1.0
C      1  0.4991920000000  0.5999420000000  0.4876270000000 1.0
C      1  0.4777170000000  0.4788600000000  0.4432670000000 1.0
C      1  0.5405910000000  0.4961720000000  0.4609980000000 1.0
C      1  0.5334370000000  0.6040710000000  0.5242990000000 1.0
C      1  0.5543950000000  0.4056060000000  0.4438220000000 1.0
C      1  0.4431220000000  0.4171950000000  0.4419680000000 1.0
C      1  0.3847260000000  0.4686480000000  0.5206440000000 1.0
C      1  0.4194570000000  0.4733620000000  0.4354780000000 1.0
C      1  0.5898950000000  0.4385190000000  0.5002350000000 1.0
C      1  0.4098800000000  0.5533580000000  0.4695110000000 1.0
C      1  0.5069350000000  0.5389260000000  0.4005160000000 1.0
C      1  0.5089630000000  0.5237410000000  0.5221860000000 1.0
C      1  0.5976690000000  0.4660270000000  0.4979930000000 1.0
C      1  0.5648810000000  0.4618330000000  0.5711650000000 1.0
C      1  0.4034420000000  0.5003450000000  0.5458880000000 1.0
C      1  0.4211870000000  0.4222970000000  0.4815130000000 1.0
C      1  0.5035190000000  0.4542790000000  0.4551200000000 1.0
C      1  0.5853790000000  0.4787660000000  0.4750010000000 1.0
C      1  0.4493220000000  0.5507480000000  0.5074280000000 1.0
C      1  0.5917220000000  0.4584940000000  0.4532770000000 1.0
C      1  0.5308570000000  0.3908060000000  0.5001990000000 1.0
C      1  0.5032420000000  0.4945080000000  0.5312000000000 1.0
C      1  0.4912420000000  0.5554970000000  0.6097150000000 1.0
C      1  0.5481830000000  0.5359110000000  0.4919430000000 1.0
C      1  0.4589940000000  0.3930780000000  0.4841920000000 1.0
C      1  0.5425270000000  0.4459070000000  0.3987250000000 1.0
C      1  0.5411330000000  0.5167340000000  0.4284450000000 1.0
C      1  0.4861490000000  0.5947670000000  0.5351980000000 1.0
C      1  0.4577820000000  0.5177270000000  0.3948860000000 1.0
C      1  0.5199820000000  0.5558530000000  0.6074700000000 1.0
C      1  0.4750230000000  0.5497070000000  0.4894360000000 1.0
C      1  0.4628640000000  0.4030100000000  0.5214980000000 1.0
C      1  0.5317860000000  0.5212290000000  0.4710890000000 1.0
C      1  0.5005450000000  0.5511980000000  0.5102740000000 1.0
C      1  0.5197910000000  0.5629280000000  0.4120340000000 1.0
C      1  0.4521220000000  0.4809210000000  0.5025290000000 1.0
C      1  0.4688380000000  0.4646770000000  0.4846460000000 1.0
C      1  0.5620040000000  0.5369480000000  0.4215720000000 1.0
C      1  0.4440700000000  0.5759220000000  0.5259460000000 1.0
C      1  0.5726980000000  0.5762180000000  0.4686760000000 1.0
C      1  0.4028660000000  0.5502620000000  0.5163720000000 1.0
C      1  0.4698210000000  0.6009240000000  0.4911250000000 1.0
C      1  0.6018630000000  0.5217940000000  0.4993250000000 1.0
C      1  0.6031500000000  0.4592750000000  0.5435340000000 1.0
C      1  0.4554740000000  0.4637220000000  0.4591360000000 1.0
C      1  0.4960280000000  0.5486790000000  0.4467870000000 1.0
C      1  0.5490200000000  0.5824480000000  0.5109060000000 1.0
C      1  0.4764380000000  0.5322710000000  0.4317560000000 1.0
C      1  0.5589310000000  0.5809780000000  0.4428780000000 1.0
C      1  0.5084300000000  0.5117960000000  0.6084330000000 1.0
C      1  0.5121730000000  0.3940570000000  0.5342660000000 1.0
C      1  0.4668210000000  0.4956800000000  0.4102480000000 1.0
C      1  0.5430510000000  0.6166800000000  0.4811690000000 1.0
C      1  0.3860500000000  0.4620120000000  0.4766880000000 1.0
C      1  0.4245970000000  0.5761990000000  0.4812380000000 1.0
C      1  0.5347470000000  0.4073530000000  0.4238800000000 1.0
C      1  0.4860800000000  0.4053200000000  0.5418780000000 1.0
C      1  0.5345260000000  0.4404690000000  0.4435410000000 1.0
C      1  0.5104240000000  0.4717200000000  0.5095290000000 1.0
C      1  0.4042770000000  0.4588080000000  0.5004660000000 1.0
C      1  0.5432830000000  0.4665290000000  0.5058990000000 1.0
C      1  0.5406850000000  0.5849230000000  0.5686690000000 1.0
C      1  0.4630460000000  0.5984960000000  0.5196070000000 1.0
C      1  0.4609880000000  0.5080920000000  0.5011270000000 1.0
C      1  0.5631880000000  0.4304170000000  0.5410710000000 1.0
C      1  0.5560590000000  0.5212110000000  0.5190740000000 1.0
C      1  0.4196050000000  0.4318610000000  0.5072670000000 1.0
C      1  0.4445360000000  0.5235980000000  0.5197830000000 1.0
C      1  0.4326910000000  0.4674780000000  0.5493690000000 1.0
C      1  0.4135600000000  0.5080000000000  0.5151710000000 1.0
C      1  0.4093830000000  0.4983970000000  0.4231020000000 1.0
C      1  0.5097000000000  0.4760800000000  0.5642300000000 1.0
C      1  0.5264400000000  0.6027970000000  0.5518500000000 1.0
C      1  0.4856040000000  0.5283160000000  0.6044450000000 1.0
C      1  0.5671060000000  0.5770130000000  0.5572940000000 1.0
C      1  0.4908100000000  0.5774840000000  0.4423580000000 1.0
C      1  0.4283670000000  0.5471240000000  0.4221380000000 1.0
C      1  0.5975360000000  0.5069110000000  0.4735000000000 1.0
C      1  0.5611840000000  0.4857900000000  0.5245950000000 1.0
C      1  0.4303580000000  0.5235180000000  0.4048680000000 1.0
C      1  0.5208310000000  0.5144390000000  0.4065860000000 1.0
END
