TITL C-951336-9012-529 -6.73800789263517e-07 125000 -1120.85675803166 0 0 178 (C1) n - 1
REM
REM in /home/bkarasulu/work/CARBON/AIRSS/Generating-Clusters/EDIP-Nigel-Params/with-SteepDescent/Only-C1/SD-CG/HFTN-CG
REM
REM
REM
REM
REM
REM ./C.cell (11c1c37f851c82e70ff6c80c92926a4b)
REM
REM compiler GCC version 9.2.1 20190827 (Red Hat 9.2.1-1)
REM options -cpp -mtune=generic -march=x86-64 -g -O0 -fpre-include=/usr/include/finclude/math-vector-fortran.h
REM seed 1595948960 1454396889 -2008261926 1274682441 1828672926 -2007450610 853393330 212878357 455550651 -2043022463 1895264330 2008712087 -1577688999 -1396347916 338439662 1447060243 1824445834 -1750572503 -1991954391 773042521 -389153555 829771185 1397366456 412247543 556866760 1234230719 -1375159553 1826670151 -596192241 -221926350 -658896068 905516895 1996915987
REM
CELL 1.54180   50.00000   50.00000   50.00000   90.00000   90.00000   90.00000
LATT -1
SFAC C  
C      1  0.4433540000000  0.4250340000000  0.4663610000000 1.0
C      1  0.4201070000000  0.4584780000000  0.4409130000000 1.0
C      1  0.4661940000000  0.4479120000000  0.5019920000000 1.0
C      1  0.5792840000000  0.5445970000000  0.4603520000000 1.0
C      1  0.5312190000000  0.5546080000000  0.4604610000000 1.0
C      1  0.5574130000000  0.4911720000000  0.5341830000000 1.0
C      1  0.4949090000000  0.5216480000000  0.4153900000000 1.0
C      1  0.4621650000000  0.5883420000000  0.4320550000000 1.0
C      1  0.4972930000000  0.3974190000000  0.5420810000000 1.0
C      1  0.5031220000000  0.5726180000000  0.4251420000000 1.0
C      1  0.5421470000000  0.5431700000000  0.5405450000000 1.0
C      1  0.4991170000000  0.5563500000000  0.5579100000000 1.0
C      1  0.4122610000000  0.5814700000000  0.5140580000000 1.0
C      1  0.4283560000000  0.4293140000000  0.4907420000000 1.0
C      1  0.4968730000000  0.4334870000000  0.5865350000000 1.0
C      1  0.5506860000000  0.4596550000000  0.5354520000000 1.0
C      1  0.4483140000000  0.5512910000000  0.5767760000000 1.0
C      1  0.4181470000000  0.5397170000000  0.4039050000000 1.0
C      1  0.4834230000000  0.4125540000000  0.4448020000000 1.0
C      1  0.5576280000000  0.4761300000000  0.5910560000000 1.0
C      1  0.5968690000000  0.4580290000000  0.5502680000000 1.0
C      1  0.5807200000000  0.5659350000000  0.5049160000000 1.0
C      1  0.4656070000000  0.5016140000000  0.4780550000000 1.0
C      1  0.6043540000000  0.4535400000000  0.4847790000000 1.0
C      1  0.3831040000000  0.5221860000000  0.5400980000000 1.0
C      1  0.5627090000000  0.4971030000000  0.4161860000000 1.0
C      1  0.5154210000000  0.4720680000000  0.6097320000000 1.0
C      1  0.4247820000000  0.4730060000000  0.4667420000000 1.0
C      1  0.4247100000000  0.4371560000000  0.5358120000000 1.0
C      1  0.4371030000000  0.4357930000000  0.4397970000000 1.0
C      1  0.4980030000000  0.4762220000000  0.4936100000000 1.0
C      1  0.5339090000000  0.4905420000000  0.6002130000000 1.0
C      1  0.4831630000000  0.4194600000000  0.5129320000000 1.0
C      1  0.4073610000000  0.5089610000000  0.5055670000000 1.0
C      1  0.5223550000000  0.4434890000000  0.4257180000000 1.0
C      1  0.4383170000000  0.4402810000000  0.5616650000000 1.0
C      1  0.5225160000000  0.5198540000000  0.5220930000000 1.0
C      1  0.5768460000000  0.4962940000000  0.5779520000000 1.0
C      1  0.4416370000000  0.5140460000000  0.4385140000000 1.0
C      1  0.4368710000000  0.4192080000000  0.5177360000000 1.0
C      1  0.4588160000000  0.5073510000000  0.5071590000000 1.0
C      1  0.5031130000000  0.6102260000000  0.5196550000000 1.0
C      1  0.5532100000000  0.5107340000000  0.4836770000000 1.0
C      1  0.5111590000000  0.4302520000000  0.5167110000000 1.0
C      1  0.5428450000000  0.5741280000000  0.5724940000000 1.0
C      1  0.4724510000000  0.5355890000000  0.5862080000000 1.0
C      1  0.5248550000000  0.5086880000000  0.5768990000000 1.0
C      1  0.5109480000000  0.6105150000000  0.4907370000000 1.0
C      1  0.4387680000000  0.5435170000000  0.4904640000000 1.0
C      1  0.5786980000000  0.5268720000000  0.5843450000000 1.0
C      1  0.5698680000000  0.4537700000000  0.4372500000000 1.0
C      1  0.5868380000000  0.5389890000000  0.5084050000000 1.0
C      1  0.4570890000000  0.4726480000000  0.4742480000000 1.0
C      1  0.4118930000000  0.5505280000000  0.4801870000000 1.0
C      1  0.4042980000000  0.5196490000000  0.4767870000000 1.0
C      1  0.5037490000000  0.5551120000000  0.4487740000000 1.0
C      1  0.5543940000000  0.5433910000000  0.4414460000000 1.0
C      1  0.4053760000000  0.5345690000000  0.5240540000000 1.0
C      1  0.5818060000000  0.5235980000000  0.4834020000000 1.0
C      1  0.5222770000000  0.5954140000000  0.5654700000000 1.0
C      1  0.5521910000000  0.4488900000000  0.5789680000000 1.0
C      1  0.5649990000000  0.4371720000000  0.4620040000000 1.0
C      1  0.5883350000000  0.4992570000000  0.5336380000000 1.0
C      1  0.5268450000000  0.4758560000000  0.4979180000000 1.0
C      1  0.4855240000000  0.4673090000000  0.4575730000000 1.0
C      1  0.5422900000000  0.4521350000000  0.4862990000000 1.0
C      1  0.4121760000000  0.4541670000000  0.4911720000000 1.0
C      1  0.5224320000000  0.4338300000000  0.5684510000000 1.0
C      1  0.5493310000000  0.4004390000000  0.5404290000000 1.0
C      1  0.4188850000000  0.5030280000000  0.4578320000000 1.0
C      1  0.4788330000000  0.4217090000000  0.4179300000000 1.0
C      1  0.4651020000000  0.5236860000000  0.4576050000000 1.0
C      1  0.4931280000000  0.5277450000000  0.4452760000000 1.0
C      1  0.5082360000000  0.4731820000000  0.4360540000000 1.0
C      1  0.4222900000000  0.4743860000000  0.4177980000000 1.0
C      1  0.5553610000000  0.3986500000000  0.5112980000000 1.0
C      1  0.6045000000000  0.4890230000000  0.5114350000000 1.0
C      1  0.4732200000000  0.5670630000000  0.5028470000000 1.0
C      1  0.4901980000000  0.6033720000000  0.4700830000000 1.0
C      1  0.5280640000000  0.5294840000000  0.4773890000000 1.0
C      1  0.5508910000000  0.5676100000000  0.4234220000000 1.0
C      1  0.5466930000000  0.4762690000000  0.4003000000000 1.0
C      1  0.5739370000000  0.4819530000000  0.4443770000000 1.0
C      1  0.5974740000000  0.4860950000000  0.5584880000000 1.0
C      1  0.4619080000000  0.4913200000000  0.5762420000000 1.0
C      1  0.5105550000000  0.5333270000000  0.5001290000000 1.0
C      1  0.4328590000000  0.4929020000000  0.5123160000000 1.0
C      1  0.4493210000000  0.5802760000000  0.4603020000000 1.0
C      1  0.5897720000000  0.5281370000000  0.5347540000000 1.0
C      1  0.4570560000000  0.6020690000000  0.5064970000000 1.0
C      1  0.4765050000000  0.6031290000000  0.5274270000000 1.0
C      1  0.5753120000000  0.4226130000000  0.5102690000000 1.0
C      1  0.4459260000000  0.4890620000000  0.4219690000000 1.0
C      1  0.5817980000000  0.5422060000000  0.5590030000000 1.0
C      1  0.4844140000000  0.4549090000000  0.5498080000000 1.0
C      1  0.4333840000000  0.5137570000000  0.5512280000000 1.0
C      1  0.5116930000000  0.5376120000000  0.5832020000000 1.0
C      1  0.4977500000000  0.4539490000000  0.3843290000000 1.0
C      1  0.4271700000000  0.4640510000000  0.5727000000000 1.0
C      1  0.6072540000000  0.4604750000000  0.5141010000000 1.0
C      1  0.3814680000000  0.4977550000000  0.5204910000000 1.0
C      1  0.5751450000000  0.5697320000000  0.4766110000000 1.0
C      1  0.4656280000000  0.4077460000000  0.4661280000000 1.0
C      1  0.5723310000000  0.4169040000000  0.5479380000000 1.0
C      1  0.4817040000000  0.3998340000000  0.4895050000000 1.0
C      1  0.5020050000000  0.5585310000000  0.5087550000000 1.0
C      1  0.4822050000000  0.4897500000000  0.5173900000000 1.0
C      1  0.5235340000000  0.5952120000000  0.5352160000000 1.0
C      1  0.4693460000000  0.4305670000000  0.5653840000000 1.0
C      1  0.5875880000000  0.4295140000000  0.4810650000000 1.0
C      1  0.4866520000000  0.4757990000000  0.5715730000000 1.0
C      1  0.4492770000000  0.5732200000000  0.5567470000000 1.0
C      1  0.5695910000000  0.4454070000000  0.5547260000000 1.0
C      1  0.5162320000000  0.4492660000000  0.5404610000000 1.0
C      1  0.4690630000000  0.4578800000000  0.3907930000000 1.0
C      1  0.5078730000000  0.4002530000000  0.4500110000000 1.0
C      1  0.6012510000000  0.5003580000000  0.4844280000000 1.0
C      1  0.4806970000000  0.5304780000000  0.5484260000000 1.0
C      1  0.4157450000000  0.5970690000000  0.4900760000000 1.0
C      1  0.5397850000000  0.6023340000000  0.4915170000000 1.0
C      1  0.4503730000000  0.3991200000000  0.5326970000000 1.0
C      1  0.5511210000000  0.4884440000000  0.4630520000000 1.0
C      1  0.5494160000000  0.4511260000000  0.4154710000000 1.0
C      1  0.4548830000000  0.5287400000000  0.5318600000000 1.0
C      1  0.3991580000000  0.5568610000000  0.5065730000000 1.0
C      1  0.5413680000000  0.4990730000000  0.5097460000000 1.0
C      1  0.5169920000000  0.5634710000000  0.5343960000000 1.0
C      1  0.5424810000000  0.5174820000000  0.4257370000000 1.0
C      1  0.5549540000000  0.5897750000000  0.4695530000000 1.0
C      1  0.5225760000000  0.5308450000000  0.4064320000000 1.0
C      1  0.4907340000000  0.4423550000000  0.4769440000000 1.0
C      1  0.4665060000000  0.5415270000000  0.4082160000000 1.0
C      1  0.4986500000000  0.5077360000000  0.5373990000000 1.0
C      1  0.4603160000000  0.5532670000000  0.4728480000000 1.0
C      1  0.4683560000000  0.4822760000000  0.4054480000000 1.0
C      1  0.4676250000000  0.4665510000000  0.5282860000000 1.0
C      1  0.5073350000000  0.3894380000000  0.4779180000000 1.0
C      1  0.4529390000000  0.4337580000000  0.4147630000000 1.0
C      1  0.4625210000000  0.6014080000000  0.4782130000000 1.0
C      1  0.4639950000000  0.5104450000000  0.5967930000000 1.0
C      1  0.5270160000000  0.4209890000000  0.4452770000000 1.0
C      1  0.5263450000000  0.5608830000000  0.4073900000000 1.0
C      1  0.5985400000000  0.4779360000000  0.4662300000000 1.0
C      1  0.5147320000000  0.4797170000000  0.3904260000000 1.0
C      1  0.4948210000000  0.5839680000000  0.5716460000000 1.0
C      1  0.5206660000000  0.4307850000000  0.4881060000000 1.0
C      1  0.4269260000000  0.5791590000000  0.5393510000000 1.0
C      1  0.5536010000000  0.3906930000000  0.4674710000000 1.0
C      1  0.5033670000000  0.4331000000000  0.4045810000000 1.0
C      1  0.4472060000000  0.5541330000000  0.5173810000000 1.0
C      1  0.4956430000000  0.4902090000000  0.4120550000000 1.0
C      1  0.5227900000000  0.4073610000000  0.5529440000000 1.0
C      1  0.4757220000000  0.5692730000000  0.4119130000000 1.0
C      1  0.4405070000000  0.4783190000000  0.5397620000000 1.0
C      1  0.4016240000000  0.5065100000000  0.5582030000000 1.0
C      1  0.4412130000000  0.4795090000000  0.5911560000000 1.0
C      1  0.5531780000000  0.4131160000000  0.4513330000000 1.0
C      1  0.5349160000000  0.3982340000000  0.4887140000000 1.0
C      1  0.4897510000000  0.6006420000000  0.4403650000000 1.0
C      1  0.5593320000000  0.4480420000000  0.5097940000000 1.0
C      1  0.5437830000000  0.5876370000000  0.4432840000000 1.0
C      1  0.5073990000000  0.4930410000000  0.5604700000000 1.0
C      1  0.4083370000000  0.4571000000000  0.5212420000000 1.0
C      1  0.5285000000000  0.4959810000000  0.4456070000000 1.0
C      1  0.4940470000000  0.4607460000000  0.5963650000000 1.0
C      1  0.5485310000000  0.5990870000000  0.5197770000000 1.0
C      1  0.5579360000000  0.5382080000000  0.5996580000000 1.0
C      1  0.4710400000000  0.4038740000000  0.5515380000000 1.0
C      1  0.5679080000000  0.5688020000000  0.5551880000000 1.0
C      1  0.4194390000000  0.5794560000000  0.4676990000000 1.0
C      1  0.5355230000000  0.5537810000000  0.5927530000000 1.0
C      1  0.5659500000000  0.5776380000000  0.5265010000000 1.0
C      1  0.4718900000000  0.5914520000000  0.5544000000000 1.0
C      1  0.4263990000000  0.5326230000000  0.5733190000000 1.0
C      1  0.3921400000000  0.4763820000000  0.5364160000000 1.0
C      1  0.5115700000000  0.5124170000000  0.4610220000000 1.0
C      1  0.5483040000000  0.5136250000000  0.5573950000000 1.0
C      1  0.4395560000000  0.5368700000000  0.4193550000000 1.0
END
