TITL C-951339-9237-273 -2.5791557831937e-06 125000 -804.248766750263 0 0 129 (C1) n - 1
REM
REM in /home/bkarasulu/work/CARBON/AIRSS/Generating-Clusters/EDIP-Nigel-Params/with-SteepDescent/Only-C1/SD-CG/HFTN-CG
REM
REM
REM
REM
REM
REM ./C.cell (11c1c37f851c82e70ff6c80c92926a4b)
REM
REM compiler GCC version 9.2.1 20190827 (Red Hat 9.2.1-1)
REM options -cpp -mtune=generic -march=x86-64 -g -O0 -fpre-include=/usr/include/finclude/math-vector-fortran.h
REM seed -2040307545 1570369052 1084461554 -1633382600 -1230585746 -575488677 -247133752 599620808 1012777362 -107093818 -1763506806 -1893995598 331177602 1279652490 1463337748 1033584767 1299837684 1079338105 -332310629 1388010095 -1746988983 -2001145434 1684910535 -1654833746 530973843 -952411211 -1266762622 293111160 421641672 990816556 -123918928 1084484117 -796697037
REM
CELL 1.54180   50.00000   50.00000   50.00000   90.00000   90.00000   90.00000
LATT -1
SFAC C  
C      1  0.5761070000000  0.5374190000000  0.5551210000000 1.0
C      1  0.4963020000000  0.4561810000000  0.4074360000000 1.0
C      1  0.5450130000000  0.5429820000000  0.4204010000000 1.0
C      1  0.5550800000000  0.4662510000000  0.4191130000000 1.0
C      1  0.4621610000000  0.4424910000000  0.4944900000000 1.0
C      1  0.4297720000000  0.5346890000000  0.4348910000000 1.0
C      1  0.4597430000000  0.5032720000000  0.4148870000000 1.0
C      1  0.5943500000000  0.5173440000000  0.5459940000000 1.0
C      1  0.5309530000000  0.4553310000000  0.5366510000000 1.0
C      1  0.5222850000000  0.4284690000000  0.4302670000000 1.0
C      1  0.4348410000000  0.4882670000000  0.5562650000000 1.0
C      1  0.4341300000000  0.5159770000000  0.5448340000000 1.0
C      1  0.4931800000000  0.4852060000000  0.4596420000000 1.0
C      1  0.4718300000000  0.4695110000000  0.5048070000000 1.0
C      1  0.5037700000000  0.4482820000000  0.5293330000000 1.0
C      1  0.4191730000000  0.4481520000000  0.5346770000000 1.0
C      1  0.4561260000000  0.5686950000000  0.5437840000000 1.0
C      1  0.4760380000000  0.4598050000000  0.4277790000000 1.0
C      1  0.4807300000000  0.5886030000000  0.5059490000000 1.0
C      1  0.5909520000000  0.4476200000000  0.5218450000000 1.0
C      1  0.5864300000000  0.4721860000000  0.4577330000000 1.0
C      1  0.4573060000000  0.4749950000000  0.5679950000000 1.0
C      1  0.4995750000000  0.4252140000000  0.5762520000000 1.0
C      1  0.4117350000000  0.5274480000000  0.4795390000000 1.0
C      1  0.4959950000000  0.4745500000000  0.4865890000000 1.0
C      1  0.4502750000000  0.5315720000000  0.5672780000000 1.0
C      1  0.5190520000000  0.5472740000000  0.5768690000000 1.0
C      1  0.5784270000000  0.4342000000000  0.4978690000000 1.0
C      1  0.5252810000000  0.6065730000000  0.5190250000000 1.0
C      1  0.5495140000000  0.4810800000000  0.4889390000000 1.0
C      1  0.4809130000000  0.5203720000000  0.5261390000000 1.0
C      1  0.5733470000000  0.4440080000000  0.5462380000000 1.0
C      1  0.5692900000000  0.5515030000000  0.4301670000000 1.0
C      1  0.4972430000000  0.4969440000000  0.5364950000000 1.0
C      1  0.4950050000000  0.5717470000000  0.4641580000000 1.0
C      1  0.4060370000000  0.5544840000000  0.4871710000000 1.0
C      1  0.5397420000000  0.4474740000000  0.5931170000000 1.0
C      1  0.4956750000000  0.5353960000000  0.5861730000000 1.0
C      1  0.5920870000000  0.4773980000000  0.5201540000000 1.0
C      1  0.5758980000000  0.4498920000000  0.4718040000000 1.0
C      1  0.5654360000000  0.5535190000000  0.5334690000000 1.0
C      1  0.4800430000000  0.5495670000000  0.4849450000000 1.0
C      1  0.4028510000000  0.4820060000000  0.4914800000000 1.0
C      1  0.5014670000000  0.5849110000000  0.5499350000000 1.0
C      1  0.5067310000000  0.6011590000000  0.4986280000000 1.0
C      1  0.5716770000000  0.5212420000000  0.5143160000000 1.0
C      1  0.5876850000000  0.5485340000000  0.4508700000000 1.0
C      1  0.5152970000000  0.4098170000000  0.4506240000000 1.0
C      1  0.4537100000000  0.4752320000000  0.4178310000000 1.0
C      1  0.5901290000000  0.5199220000000  0.4579880000000 1.0
C      1  0.4452700000000  0.5448730000000  0.5020000000000 1.0
C      1  0.4814060000000  0.4349760000000  0.4728460000000 1.0
C      1  0.5604590000000  0.4944490000000  0.4225190000000 1.0
C      1  0.5267930000000  0.5861990000000  0.5379020000000 1.0
C      1  0.4780250000000  0.5846240000000  0.5347840000000 1.0
C      1  0.5282340000000  0.4914500000000  0.5822160000000 1.0
C      1  0.5154290000000  0.4964820000000  0.5119070000000 1.0
C      1  0.4196650000000  0.5164390000000  0.4536270000000 1.0
C      1  0.5447920000000  0.4980380000000  0.4648300000000 1.0
C      1  0.4362480000000  0.4487910000000  0.4807620000000 1.0
C      1  0.5514070000000  0.4723310000000  0.5853800000000 1.0
C      1  0.5071030000000  0.4302800000000  0.4072000000000 1.0
C      1  0.5118940000000  0.4476600000000  0.5882090000000 1.0
C      1  0.4674420000000  0.5020330000000  0.4528150000000 1.0
C      1  0.5674320000000  0.5309930000000  0.4857240000000 1.0
C      1  0.5195860000000  0.5219430000000  0.4995580000000 1.0
C      1  0.4780380000000  0.5458380000000  0.4264120000000 1.0
C      1  0.5207770000000  0.4838620000000  0.4455540000000 1.0
C      1  0.4659080000000  0.5299120000000  0.4659440000000 1.0
C      1  0.4363180000000  0.5633630000000  0.5242310000000 1.0
C      1  0.5253130000000  0.4640560000000  0.4944130000000 1.0
C      1  0.5466910000000  0.4820410000000  0.5396960000000 1.0
C      1  0.5384360000000  0.5148550000000  0.4198440000000 1.0
C      1  0.4626090000000  0.4237440000000  0.5183160000000 1.0
C      1  0.4015880000000  0.5093490000000  0.4991560000000 1.0
C      1  0.5074040000000  0.4197660000000  0.4769760000000 1.0
C      1  0.5419360000000  0.5495340000000  0.5930610000000 1.0
C      1  0.5379600000000  0.5269100000000  0.4764480000000 1.0
C      1  0.4410520000000  0.5651530000000  0.4760060000000 1.0
C      1  0.5682970000000  0.4722530000000  0.5587240000000 1.0
C      1  0.4110470000000  0.5583790000000  0.5354310000000 1.0
C      1  0.5346570000000  0.3963790000000  0.5086070000000 1.0
C      1  0.4453200000000  0.4352340000000  0.5399980000000 1.0
C      1  0.4024240000000  0.5159430000000  0.5293040000000 1.0
C      1  0.4123580000000  0.4710680000000  0.5517430000000 1.0
C      1  0.5077930000000  0.4042150000000  0.5038910000000 1.0
C      1  0.5482370000000  0.4329520000000  0.5354130000000 1.0
C      1  0.4748760000000  0.5931640000000  0.4612390000000 1.0
C      1  0.4530650000000  0.5478160000000  0.4457290000000 1.0
C      1  0.3919050000000  0.4863190000000  0.5360520000000 1.0
C      1  0.4390300000000  0.4440520000000  0.4514920000000 1.0
C      1  0.4624270000000  0.4487150000000  0.5589200000000 1.0
C      1  0.5271400000000  0.5028830000000  0.5540090000000 1.0
C      1  0.4679730000000  0.4375800000000  0.4461010000000 1.0
C      1  0.5941100000000  0.4886070000000  0.5485780000000 1.0
C      1  0.5002570000000  0.5605320000000  0.4370080000000 1.0
C      1  0.5144600000000  0.4782890000000  0.4075980000000 1.0
C      1  0.5501240000000  0.4417350000000  0.4622090000000 1.0
C      1  0.4926140000000  0.4201410000000  0.5264620000000 1.0
C      1  0.5192090000000  0.5842130000000  0.4781090000000 1.0
C      1  0.4594820000000  0.5885860000000  0.4843890000000 1.0
C      1  0.5368530000000  0.5620280000000  0.4931980000000 1.0
C      1  0.4843230000000  0.5183630000000  0.4168300000000 1.0
C      1  0.5611770000000  0.5341390000000  0.5795490000000 1.0
C      1  0.5323220000000  0.4365970000000  0.4850880000000 1.0
C      1  0.5037340000000  0.4760060000000  0.5839800000000 1.0
C      1  0.5498470000000  0.4216660000000  0.5072750000000 1.0
C      1  0.5325510000000  0.5341050000000  0.5533820000000 1.0
C      1  0.4792080000000  0.4905500000000  0.5765570000000 1.0
C      1  0.4506440000000  0.4900730000000  0.5027410000000 1.0
C      1  0.5782770000000  0.5586870000000  0.4780820000000 1.0
C      1  0.4950160000000  0.4102320000000  0.5538060000000 1.0
C      1  0.4319780000000  0.4696590000000  0.4365950000000 1.0
C      1  0.5366030000000  0.4540470000000  0.4386760000000 1.0
C      1  0.4495220000000  0.5598010000000  0.5696070000000 1.0
C      1  0.5725690000000  0.4967080000000  0.4500930000000 1.0
C      1  0.4367040000000  0.4915420000000  0.4564190000000 1.0
C      1  0.5371700000000  0.5603430000000  0.5263380000000 1.0
C      1  0.3928870000000  0.4664000000000  0.5132310000000 1.0
C      1  0.4958450000000  0.5359680000000  0.5061920000000 1.0
C      1  0.4311380000000  0.4782950000000  0.4833610000000 1.0
C      1  0.5640820000000  0.4908040000000  0.5145190000000 1.0
C      1  0.5578320000000  0.5785420000000  0.4797780000000 1.0
C      1  0.4747020000000  0.5191270000000  0.5781280000000 1.0
C      1  0.4521800000000  0.5165750000000  0.5185200000000 1.0
C      1  0.4831850000000  0.4685700000000  0.5331840000000 1.0
C      1  0.5116960000000  0.5066440000000  0.4100970000000 1.0
C      1  0.5241620000000  0.5604980000000  0.4233000000000 1.0
C      1  0.3953910000000  0.5502700000000  0.5141740000000 1.0
END
