TITL C-951341-1326-531 3.58181317569566e-06 125000 -1100.00940818179 0 0 176 (C1) n - 1
REM
REM in /home/bkarasulu/work/CARBON/AIRSS/Generating-Clusters/EDIP-Nigel-Params/with-SteepDescent/Only-C1/SD-CG/HFTN-CG
REM
REM
REM
REM
REM
REM ./C.cell (11c1c37f851c82e70ff6c80c92926a4b)
REM
REM compiler GCC version 9.2.1 20190827 (Red Hat 9.2.1-1)
REM options -cpp -mtune=generic -march=x86-64 -g -O0 -fpre-include=/usr/include/finclude/math-vector-fortran.h
REM seed 636803285 1477375900 673170570 836039389 1267421705 1543926379 -928167612 798795978 -550293769 600284240 1275535438 221134037 -79008253 -115615841 -594960131 770768709 -453372760 -956564066 155621942 -1784093034 141946876 -1557998771 1611654374 -110874258 1873278931 -209530127 -1998299861 1009306567 484393945 565279616 -1526694592 -1662942915 1901398687
REM
CELL 1.54180   50.00000   50.00000   50.00000   90.00000   90.00000   90.00000
LATT -1
SFAC C  
C      1  0.5895080000000  0.5875880000000  0.4632830000000 1.0
C      1  0.5315100000000  0.4393650000000  0.5173050000000 1.0
C      1  0.5187930000000  0.4135010000000  0.4318650000000 1.0
C      1  0.5348950000000  0.4843180000000  0.4124620000000 1.0
C      1  0.4336000000000  0.6048840000000  0.5221370000000 1.0
C      1  0.4359170000000  0.4095460000000  0.5389260000000 1.0
C      1  0.4338800000000  0.5568040000000  0.4487860000000 1.0
C      1  0.4010810000000  0.5328920000000  0.5085400000000 1.0
C      1  0.4953610000000  0.4398600000000  0.5978420000000 1.0
C      1  0.4399410000000  0.5330130000000  0.5247300000000 1.0
C      1  0.5002310000000  0.5271120000000  0.4041780000000 1.0
C      1  0.5465160000000  0.4371480000000  0.5442910000000 1.0
C      1  0.4361890000000  0.5170890000000  0.5859760000000 1.0
C      1  0.5863950000000  0.5645150000000  0.4809040000000 1.0
C      1  0.4735640000000  0.6114350000000  0.4649740000000 1.0
C      1  0.5793790000000  0.4108130000000  0.5144190000000 1.0
C      1  0.5244940000000  0.4448080000000  0.5903610000000 1.0
C      1  0.4505660000000  0.4926950000000  0.5902340000000 1.0
C      1  0.4788580000000  0.3891740000000  0.5228180000000 1.0
C      1  0.5863870000000  0.4599240000000  0.5244720000000 1.0
C      1  0.5230270000000  0.5783480000000  0.5288900000000 1.0
C      1  0.5509070000000  0.5668210000000  0.4377360000000 1.0
C      1  0.5009790000000  0.5546020000000  0.4142700000000 1.0
C      1  0.4033940000000  0.4557560000000  0.5006980000000 1.0
C      1  0.5051060000000  0.4748470000000  0.5434220000000 1.0
C      1  0.5008790000000  0.6090470000000  0.4550220000000 1.0
C      1  0.5285560000000  0.5674550000000  0.5760770000000 1.0
C      1  0.5109210000000  0.5620130000000  0.5050720000000 1.0
C      1  0.4801750000000  0.4560970000000  0.5752810000000 1.0
C      1  0.4511880000000  0.4672010000000  0.5000390000000 1.0
C      1  0.5359040000000  0.5535530000000  0.4909250000000 1.0
C      1  0.5173580000000  0.6061260000000  0.4774060000000 1.0
C      1  0.5502740000000  0.5173410000000  0.3996240000000 1.0
C      1  0.5625320000000  0.5902200000000  0.4531270000000 1.0
C      1  0.4676680000000  0.5442670000000  0.6015750000000 1.0
C      1  0.4562580000000  0.4784250000000  0.4508730000000 1.0
C      1  0.5865120000000  0.5415560000000  0.4619430000000 1.0
C      1  0.4681470000000  0.5382130000000  0.5373620000000 1.0
C      1  0.5442580000000  0.5318200000000  0.5971890000000 1.0
C      1  0.5185480000000  0.4889410000000  0.3779900000000 1.0
C      1  0.4790400000000  0.4916800000000  0.4591710000000 1.0
C      1  0.5950860000000  0.4927610000000  0.4587850000000 1.0
C      1  0.5648620000000  0.5120440000000  0.4887730000000 1.0
C      1  0.4146380000000  0.5432180000000  0.5521740000000 1.0
C      1  0.5569620000000  0.3966490000000  0.5203220000000 1.0
C      1  0.4763520000000  0.5616650000000  0.5788390000000 1.0
C      1  0.6068480000000  0.5602320000000  0.5013990000000 1.0
C      1  0.5760110000000  0.4899750000000  0.4368900000000 1.0
C      1  0.4497920000000  0.5522300000000  0.4240690000000 1.0
C      1  0.3996730000000  0.4891540000000  0.4527250000000 1.0
C      1  0.4579050000000  0.4405280000000  0.4218780000000 1.0
C      1  0.5607740000000  0.5681200000000  0.4971680000000 1.0
C      1  0.5195700000000  0.4806410000000  0.4736670000000 1.0
C      1  0.5026870000000  0.4752860000000  0.4503710000000 1.0
C      1  0.5725070000000  0.4363070000000  0.4551420000000 1.0
C      1  0.4824320000000  0.5165290000000  0.4434490000000 1.0
C      1  0.4734960000000  0.5138360000000  0.4010650000000 1.0
C      1  0.4672530000000  0.4123620000000  0.5371420000000 1.0
C      1  0.4740250000000  0.4311720000000  0.4785640000000 1.0
C      1  0.5465250000000  0.5600690000000  0.5961240000000 1.0
C      1  0.5336670000000  0.4754650000000  0.5897530000000 1.0
C      1  0.5023960000000  0.4431120000000  0.3965140000000 1.0
C      1  0.5677070000000  0.5418180000000  0.4392770000000 1.0
C      1  0.6072210000000  0.4967900000000  0.5457380000000 1.0
C      1  0.4710510000000  0.6125530000000  0.4931180000000 1.0
C      1  0.4239440000000  0.4949910000000  0.5408570000000 1.0
C      1  0.4802850000000  0.4176170000000  0.5773950000000 1.0
C      1  0.4295730000000  0.5588960000000  0.5082820000000 1.0
C      1  0.4984070000000  0.4722720000000  0.3911540000000 1.0
C      1  0.4543490000000  0.4721070000000  0.5685320000000 1.0
C      1  0.4216500000000  0.5804680000000  0.5276170000000 1.0
C      1  0.6014220000000  0.4866870000000  0.5197180000000 1.0
C      1  0.5514240000000  0.4858350000000  0.5453870000000 1.0
C      1  0.4211250000000  0.5172430000000  0.5615520000000 1.0
C      1  0.5931330000000  0.4428900000000  0.4762790000000 1.0
C      1  0.5173380000000  0.4914760000000  0.6086930000000 1.0
C      1  0.4728930000000  0.3974390000000  0.4477340000000 1.0
C      1  0.4522820000000  0.6017760000000  0.4497310000000 1.0
C      1  0.4639440000000  0.5399140000000  0.4873810000000 1.0
C      1  0.4096150000000  0.4652110000000  0.4366910000000 1.0
C      1  0.4783850000000  0.4385790000000  0.5275790000000 1.0
C      1  0.4270310000000  0.4782770000000  0.4153260000000 1.0
C      1  0.4253210000000  0.5083280000000  0.4182460000000 1.0
C      1  0.5222630000000  0.4216520000000  0.4596990000000 1.0
C      1  0.5379660000000  0.5246440000000  0.4907790000000 1.0
C      1  0.4384770000000  0.4697200000000  0.4727340000000 1.0
C      1  0.5051130000000  0.4088170000000  0.5602570000000 1.0
C      1  0.4561310000000  0.5712170000000  0.4899070000000 1.0
C      1  0.5280320000000  0.4279040000000  0.5658260000000 1.0
C      1  0.5797120000000  0.5335500000000  0.5620750000000 1.0
C      1  0.4905150000000  0.4053030000000  0.4255290000000 1.0
C      1  0.5414290000000  0.4879850000000  0.5183980000000 1.0
C      1  0.5095220000000  0.5941060000000  0.4327110000000 1.0
C      1  0.5118460000000  0.4159880000000  0.5099440000000 1.0
C      1  0.5617800000000  0.5154120000000  0.4266030000000 1.0
C      1  0.4264840000000  0.4457020000000  0.4579420000000 1.0
C      1  0.5221510000000  0.5113460000000  0.4705790000000 1.0
C      1  0.4558710000000  0.4856260000000  0.5399670000000 1.0
C      1  0.4852440000000  0.5378030000000  0.5113710000000 1.0
C      1  0.4298160000000  0.4219610000000  0.5115520000000 1.0
C      1  0.5668230000000  0.4608450000000  0.5482140000000 1.0
C      1  0.4079180000000  0.5042460000000  0.5159400000000 1.0
C      1  0.4551190000000  0.4702840000000  0.4212020000000 1.0
C      1  0.5967030000000  0.4713150000000  0.4781890000000 1.0
C      1  0.4077380000000  0.5148370000000  0.4412520000000 1.0
C      1  0.5241020000000  0.5711780000000  0.4242260000000 1.0
C      1  0.4367140000000  0.5206530000000  0.4871670000000 1.0
C      1  0.6075810000000  0.5119440000000  0.5012910000000 1.0
C      1  0.5372210000000  0.6012940000000  0.5213180000000 1.0
C      1  0.5296810000000  0.5315200000000  0.5418940000000 1.0
C      1  0.5267470000000  0.4876010000000  0.5621780000000 1.0
C      1  0.5441620000000  0.4575090000000  0.4193940000000 1.0
C      1  0.5064060000000  0.3884320000000  0.5366860000000 1.0
C      1  0.5192900000000  0.5205270000000  0.6083900000000 1.0
C      1  0.4932020000000  0.5770360000000  0.4842980000000 1.0
C      1  0.4975360000000  0.5609800000000  0.4575380000000 1.0
C      1  0.4009780000000  0.4255500000000  0.5004990000000 1.0
C      1  0.5796540000000  0.4378190000000  0.5037110000000 1.0
C      1  0.5051990000000  0.5510160000000  0.5799760000000 1.0
C      1  0.4844190000000  0.4966590000000  0.5383970000000 1.0
C      1  0.5100310000000  0.4931550000000  0.4278440000000 1.0
C      1  0.5632990000000  0.4620600000000  0.4408690000000 1.0
C      1  0.6072730000000  0.5362590000000  0.5171730000000 1.0
C      1  0.5230030000000  0.5170770000000  0.3868820000000 1.0
C      1  0.5297170000000  0.3916300000000  0.5157790000000 1.0
C      1  0.4799280000000  0.4270930000000  0.4082600000000 1.0
C      1  0.5509750000000  0.4412890000000  0.4939670000000 1.0
C      1  0.4755700000000  0.5869510000000  0.5359270000000 1.0
C      1  0.4775400000000  0.5021060000000  0.5922160000000 1.0
C      1  0.4866890000000  0.5156950000000  0.5629370000000 1.0
C      1  0.4768970000000  0.4527170000000  0.5002320000000 1.0
C      1  0.4504200000000  0.4281340000000  0.4480240000000 1.0
C      1  0.4864410000000  0.3886290000000  0.4723440000000 1.0
C      1  0.4932020000000  0.4501220000000  0.5499580000000 1.0
C      1  0.4506600000000  0.4130120000000  0.4894480000000 1.0
C      1  0.5480300000000  0.4672220000000  0.4761270000000 1.0
C      1  0.4761290000000  0.5661060000000  0.4255080000000 1.0
C      1  0.5647200000000  0.5157830000000  0.5826400000000 1.0
C      1  0.5907040000000  0.5161830000000  0.4761090000000 1.0
C      1  0.4295200000000  0.4546390000000  0.5171040000000 1.0
C      1  0.4423780000000  0.5798260000000  0.4644520000000 1.0
C      1  0.4962290000000  0.5109600000000  0.5140200000000 1.0
C      1  0.4741370000000  0.5416400000000  0.4584240000000 1.0
C      1  0.4326860000000  0.4517210000000  0.5678280000000 1.0
C      1  0.4668100000000  0.3880230000000  0.4948250000000 1.0
C      1  0.5261200000000  0.5147710000000  0.5166780000000 1.0
C      1  0.5008730000000  0.4143620000000  0.4799160000000 1.0
C      1  0.5633110000000  0.4848970000000  0.5881720000000 1.0
C      1  0.5490720000000  0.4232060000000  0.4703370000000 1.0
C      1  0.5643780000000  0.4839580000000  0.4959460000000 1.0
C      1  0.5677810000000  0.5577960000000  0.5529020000000 1.0
C      1  0.5790990000000  0.4653530000000  0.5743200000000 1.0
C      1  0.4312740000000  0.5671480000000  0.5519550000000 1.0
C      1  0.3990760000000  0.5428650000000  0.4820050000000 1.0
C      1  0.4943790000000  0.5362040000000  0.6144390000000 1.0
C      1  0.4177170000000  0.4906370000000  0.4767380000000 1.0
C      1  0.4911650000000  0.4827880000000  0.6080220000000 1.0
C      1  0.4438850000000  0.4234130000000  0.5661140000000 1.0
C      1  0.4748700000000  0.4848070000000  0.4026050000000 1.0
C      1  0.4190100000000  0.5340230000000  0.4629970000000 1.0
C      1  0.5024630000000  0.5924410000000  0.5409450000000 1.0
C      1  0.6003020000000  0.5239020000000  0.5437580000000 1.0
C      1  0.5461010000000  0.6039060000000  0.4748990000000 1.0
C      1  0.5193350000000  0.4674130000000  0.5180290000000 1.0
C      1  0.5014860000000  0.4709740000000  0.4961240000000 1.0
C      1  0.4500730000000  0.5243580000000  0.4153530000000 1.0
C      1  0.5266000000000  0.4347230000000  0.4118400000000 1.0
C      1  0.4177880000000  0.4637990000000  0.5448780000000 1.0
C      1  0.4625410000000  0.5647230000000  0.5518160000000 1.0
C      1  0.4399900000000  0.5380650000000  0.6047380000000 1.0
C      1  0.3920850000000  0.4824810000000  0.5041850000000 1.0
C      1  0.4609870000000  0.6046780000000  0.5181460000000 1.0
C      1  0.5569050000000  0.5972660000000  0.5014960000000 1.0
C      1  0.5178760000000  0.5176290000000  0.5649480000000 1.0
C      1  0.5386770000000  0.5596320000000  0.5491200000000 1.0
C      1  0.5119900000000  0.5264420000000  0.4467500000000 1.0
END
