TITL C-950533-5798-142 -2.81801039274462e-06 125000 -950.27624889082 0 0 152 (C1) n - 1
REM
REM in /home/bkarasulu/work/CARBON/AIRSS/Generating-Clusters/EDIP-Nigel-Params/with-SteepDescent/Only-C1/SD-CG/HFTN-CG
REM
REM
REM
REM
REM
REM ./C.cell (11c1c37f851c82e70ff6c80c92926a4b)
REM
REM compiler GCC version 9.2.1 20190827 (Red Hat 9.2.1-1)
REM options -cpp -mtune=generic -march=x86-64 -g -O0 -fpre-include=/usr/include/finclude/math-vector-fortran.h
REM seed 1854184790 -668781299 -692927215 373317940 -640116592 1676688539 -769179924 1226182379 -883318449 1661820736 -1209039025 -682494619 887426132 1707875982 2050000941 587231771 1101439423 42714680 1127316960 -1935050629 199003211 698958358 -2054238669 1122351528 1105408020 -703699362 -746856714 2074272466 1279124859 591000811 -1464099983 -405700798 -440319171
REM
CELL 1.54180   50.00000   50.00000   50.00000   90.00000   90.00000   90.00000
LATT -1
SFAC C  
C      1  0.4718320000000  0.5422000000000  0.5893810000000 1.0
C      1  0.5448470000000  0.4803350000000  0.5452440000000 1.0
C      1  0.4869400000000  0.5718220000000  0.4257300000000 1.0
C      1  0.5168300000000  0.5641220000000  0.5788100000000 1.0
C      1  0.4929460000000  0.4459420000000  0.5869040000000 1.0
C      1  0.4875370000000  0.5645210000000  0.5794400000000 1.0
C      1  0.4079450000000  0.4258140000000  0.5089020000000 1.0
C      1  0.5258330000000  0.4097250000000  0.4660790000000 1.0
C      1  0.5070250000000  0.5478250000000  0.5022960000000 1.0
C      1  0.4174180000000  0.4763010000000  0.4806760000000 1.0
C      1  0.4563870000000  0.5312950000000  0.5054820000000 1.0
C      1  0.5099480000000  0.4907280000000  0.5869570000000 1.0
C      1  0.5218910000000  0.4537800000000  0.4550090000000 1.0
C      1  0.4696210000000  0.4719150000000  0.4748010000000 1.0
C      1  0.4290780000000  0.5319560000000  0.4248300000000 1.0
C      1  0.4422180000000  0.4174680000000  0.4661020000000 1.0
C      1  0.4295370000000  0.5534260000000  0.5613050000000 1.0
C      1  0.5258180000000  0.4411010000000  0.4104300000000 1.0
C      1  0.4096030000000  0.4985610000000  0.4600200000000 1.0
C      1  0.4448810000000  0.4675040000000  0.4905060000000 1.0
C      1  0.3974180000000  0.5298940000000  0.5278150000000 1.0
C      1  0.4220740000000  0.5658770000000  0.4839450000000 1.0
C      1  0.5802210000000  0.4302480000000  0.5015780000000 1.0
C      1  0.5654060000000  0.5073060000000  0.5042250000000 1.0
C      1  0.4692320000000  0.5433640000000  0.5291670000000 1.0
C      1  0.5057070000000  0.5266390000000  0.4277840000000 1.0
C      1  0.5898680000000  0.4546640000000  0.5144780000000 1.0
C      1  0.4005810000000  0.4811390000000  0.5286750000000 1.0
C      1  0.5315540000000  0.5958360000000  0.4942790000000 1.0
C      1  0.4665690000000  0.5040890000000  0.4981850000000 1.0
C      1  0.5697980000000  0.5135970000000  0.4253230000000 1.0
C      1  0.5740630000000  0.5353760000000  0.5499300000000 1.0
C      1  0.5064680000000  0.5625340000000  0.4682950000000 1.0
C      1  0.5284660000000  0.4762520000000  0.4991610000000 1.0
C      1  0.5517840000000  0.4198000000000  0.5395440000000 1.0
C      1  0.4200150000000  0.4335010000000  0.5338760000000 1.0
C      1  0.5322780000000  0.5235500000000  0.4705050000000 1.0
C      1  0.4494390000000  0.4633770000000  0.5207540000000 1.0
C      1  0.4221320000000  0.5031030000000  0.4338920000000 1.0
C      1  0.4899930000000  0.4960990000000  0.4437940000000 1.0
C      1  0.4843480000000  0.3995760000000  0.5270120000000 1.0
C      1  0.5161020000000  0.5987500000000  0.5408600000000 1.0
C      1  0.5148360000000  0.4568090000000  0.4834750000000 1.0
C      1  0.4106570000000  0.4920600000000  0.5042140000000 1.0
C      1  0.5916970000000  0.4793880000000  0.4719520000000 1.0
C      1  0.5496920000000  0.5264260000000  0.5334200000000 1.0
C      1  0.5329760000000  0.4950660000000  0.6040130000000 1.0
C      1  0.4867590000000  0.4225740000000  0.5689900000000 1.0
C      1  0.4459260000000  0.4342970000000  0.4421430000000 1.0
C      1  0.4802180000000  0.4926260000000  0.5466160000000 1.0
C      1  0.4674310000000  0.5372520000000  0.4605800000000 1.0
C      1  0.5318260000000  0.4871280000000  0.4139860000000 1.0
C      1  0.5751550000000  0.5219420000000  0.4522240000000 1.0
C      1  0.5553100000000  0.4793150000000  0.5929970000000 1.0
C      1  0.4644880000000  0.5864150000000  0.4649570000000 1.0
C      1  0.4697350000000  0.5041110000000  0.4151960000000 1.0
C      1  0.4658890000000  0.4898500000000  0.5756840000000 1.0
C      1  0.4797980000000  0.5647060000000  0.4544280000000 1.0
C      1  0.5043330000000  0.4262530000000  0.4510730000000 1.0
C      1  0.6012610000000  0.4775920000000  0.4985670000000 1.0
C      1  0.4045430000000  0.5204450000000  0.4986620000000 1.0
C      1  0.4587060000000  0.5313610000000  0.4136050000000 1.0
C      1  0.4829400000000  0.5136380000000  0.4695400000000 1.0
C      1  0.5245460000000  0.4654560000000  0.3959290000000 1.0
C      1  0.5385420000000  0.5441610000000  0.5855380000000 1.0
C      1  0.4268260000000  0.4545800000000  0.4341810000000 1.0
C      1  0.3921430000000  0.5181830000000  0.4717500000000 1.0
C      1  0.4222910000000  0.4298000000000  0.4845780000000 1.0
C      1  0.4383840000000  0.5319090000000  0.4626810000000 1.0
C      1  0.5085740000000  0.5987980000000  0.5140210000000 1.0
C      1  0.5707810000000  0.5507460000000  0.4546760000000 1.0
C      1  0.5733890000000  0.5020480000000  0.5875670000000 1.0
C      1  0.4759030000000  0.5803030000000  0.5595720000000 1.0
C      1  0.4257970000000  0.5379550000000  0.5361250000000 1.0
C      1  0.5797170000000  0.4576160000000  0.4597340000000 1.0
C      1  0.5886470000000  0.5553440000000  0.5298490000000 1.0
C      1  0.4949720000000  0.3962810000000  0.5004300000000 1.0
C      1  0.5860410000000  0.4583540000000  0.5439200000000 1.0
C      1  0.5605790000000  0.4857950000000  0.4198840000000 1.0
C      1  0.5099220000000  0.4646560000000  0.5714340000000 1.0
C      1  0.4857140000000  0.5452810000000  0.4141970000000 1.0
C      1  0.5436620000000  0.4626270000000  0.5700150000000 1.0
C      1  0.5121630000000  0.5844800000000  0.4229480000000 1.0
C      1  0.5932980000000  0.5488440000000  0.5013520000000 1.0
C      1  0.5096060000000  0.4987870000000  0.5056320000000 1.0
C      1  0.5565070000000  0.5776100000000  0.5568570000000 1.0
C      1  0.5698970000000  0.5787210000000  0.5301980000000 1.0
C      1  0.5258910000000  0.5166810000000  0.4079430000000 1.0
C      1  0.5206900000000  0.4097030000000  0.4955240000000 1.0
C      1  0.4973660000000  0.5381810000000  0.5292740000000 1.0
C      1  0.5270830000000  0.4306570000000  0.5258850000000 1.0
C      1  0.5697260000000  0.4350750000000  0.4746990000000 1.0
C      1  0.4649540000000  0.4617250000000  0.3998560000000 1.0
C      1  0.5205270000000  0.4832510000000  0.4428110000000 1.0
C      1  0.5531350000000  0.5330660000000  0.4903470000000 1.0
C      1  0.5466260000000  0.5560250000000  0.4371530000000 1.0
C      1  0.4638360000000  0.4603420000000  0.4449940000000 1.0
C      1  0.5348510000000  0.5852440000000  0.4398570000000 1.0
C      1  0.4339550000000  0.4793630000000  0.4205120000000 1.0
C      1  0.5073370000000  0.5202250000000  0.4866700000000 1.0
C      1  0.5756290000000  0.5643130000000  0.4820970000000 1.0
C      1  0.4465060000000  0.4233930000000  0.5396370000000 1.0
C      1  0.4636140000000  0.4578130000000  0.5823270000000 1.0
C      1  0.4575500000000  0.4305810000000  0.5656520000000 1.0
C      1  0.4561180000000  0.3994840000000  0.5285580000000 1.0
C      1  0.5745410000000  0.4863660000000  0.5415790000000 1.0
C      1  0.5336170000000  0.4617780000000  0.5235690000000 1.0
C      1  0.4796880000000  0.4282040000000  0.4696210000000 1.0
C      1  0.5501990000000  0.5333220000000  0.4137240000000 1.0
C      1  0.5486070000000  0.4381630000000  0.4312670000000 1.0
C      1  0.4826000000000  0.4584840000000  0.4218250000000 1.0
C      1  0.3941600000000  0.5050070000000  0.5434190000000 1.0
C      1  0.4298240000000  0.5376780000000  0.4915740000000 1.0
C      1  0.4998440000000  0.4347800000000  0.4221660000000 1.0
C      1  0.5283630000000  0.5826550000000  0.5596630000000 1.0
C      1  0.4346620000000  0.5849030000000  0.5018880000000 1.0
C      1  0.5513500000000  0.4207510000000  0.4566060000000 1.0
C      1  0.4828570000000  0.5249270000000  0.6080320000000 1.0
C      1  0.4613370000000  0.5930570000000  0.4915350000000 1.0
C      1  0.5640660000000  0.4406440000000  0.5580100000000 1.0
C      1  0.4172980000000  0.4613030000000  0.5409220000000 1.0
C      1  0.4739690000000  0.4020230000000  0.4816580000000 1.0
C      1  0.5046500000000  0.5096500000000  0.5329310000000 1.0
C      1  0.5957980000000  0.5052050000000  0.5079450000000 1.0
C      1  0.4794760000000  0.4486880000000  0.5244360000000 1.0
C      1  0.4848510000000  0.5001580000000  0.5957940000000 1.0
C      1  0.4377520000000  0.5747060000000  0.5299910000000 1.0
C      1  0.5525980000000  0.5751000000000  0.5047590000000 1.0
C      1  0.5630110000000  0.5530240000000  0.5717330000000 1.0
C      1  0.6093720000000  0.5264720000000  0.4952240000000 1.0
C      1  0.4444330000000  0.5360340000000  0.5797930000000 1.0
C      1  0.4409750000000  0.5073580000000  0.5728180000000 1.0
C      1  0.4672560000000  0.5725880000000  0.5330480000000 1.0
C      1  0.5203450000000  0.5888420000000  0.4667570000000 1.0
C      1  0.5373120000000  0.5489130000000  0.5111830000000 1.0
C      1  0.5224790000000  0.5427830000000  0.4499160000000 1.0
C      1  0.4029100000000  0.4506340000000  0.4792580000000 1.0
C      1  0.5445600000000  0.5219570000000  0.6036590000000 1.0
C      1  0.4242920000000  0.5538610000000  0.4476480000000 1.0
C      1  0.4827650000000  0.5845660000000  0.5096190000000 1.0
C      1  0.4319990000000  0.5074310000000  0.5442250000000 1.0
C      1  0.4949060000000  0.4677660000000  0.5437970000000 1.0
C      1  0.5840780000000  0.5077520000000  0.5610330000000 1.0
C      1  0.5552660000000  0.4851400000000  0.4842060000000 1.0
C      1  0.5448030000000  0.4995070000000  0.4587920000000 1.0
C      1  0.4596290000000  0.4878260000000  0.3937290000000 1.0
C      1  0.5681460000000  0.4603850000000  0.4333890000000 1.0
C      1  0.5697010000000  0.4114030000000  0.5194400000000 1.0
C      1  0.5309840000000  0.5073070000000  0.5464140000000 1.0
C      1  0.4964630000000  0.4236850000000  0.5392130000000 1.0
C      1  0.4867650000000  0.4509600000000  0.4896270000000 1.0
C      1  0.4563230000000  0.4926290000000  0.5273990000000 1.0
END
