TITL C-950530-3293-612 -3.6574798702363e-06 125000 -987.514205818674 0 0 158 (C1) n - 1
REM
REM in /home/bkarasulu/work/CARBON/AIRSS/Generating-Clusters/EDIP-Nigel-Params/with-SteepDescent/Only-C1/SD-CG/HFTN-CG
REM
REM
REM
REM
REM
REM ./C.cell (11c1c37f851c82e70ff6c80c92926a4b)
REM
REM compiler GCC version 9.2.1 20190827 (Red Hat 9.2.1-1)
REM options -cpp -mtune=generic -march=x86-64 -g -O0 -fpre-include=/usr/include/finclude/math-vector-fortran.h
REM seed 1956403900 -1604384643 478405522 223728417 -1482805948 198458214 -189375183 -1455445076 1467735486 1579720088 -1553405962 -1097434400 19518495 413972777 -1324411881 1056130270 1593849853 -1375087005 269078045 -985910946 -1936646213 -85210838 1707224642 -1780687572 -734442163 1304263931 717753297 -1701837909 -1602280268 707702014 -1576094915 -1561273107 -1608410259
REM
CELL 1.54180   50.00000   50.00000   50.00000   90.00000   90.00000   90.00000
LATT -1
SFAC C  
C      1  0.5521040000000  0.5547910000000  0.5380040000000 1.0
C      1  0.5334050000000  0.4155440000000  0.5482870000000 1.0
C      1  0.4461300000000  0.4366870000000  0.4524000000000 1.0
C      1  0.5175940000000  0.5006560000000  0.4189240000000 1.0
C      1  0.5229180000000  0.5064580000000  0.5963780000000 1.0
C      1  0.4729080000000  0.4707840000000  0.3942880000000 1.0
C      1  0.4496970000000  0.4558630000000  0.4073420000000 1.0
C      1  0.5056730000000  0.4039380000000  0.5459550000000 1.0
C      1  0.4767050000000  0.4828940000000  0.5486080000000 1.0
C      1  0.5242250000000  0.5584280000000  0.5270050000000 1.0
C      1  0.5426940000000  0.5159700000000  0.4618910000000 1.0
C      1  0.6082370000000  0.4945700000000  0.4622590000000 1.0
C      1  0.4914360000000  0.5145010000000  0.4147020000000 1.0
C      1  0.5442580000000  0.4604660000000  0.5720290000000 1.0
C      1  0.5721150000000  0.4905340000000  0.4961580000000 1.0
C      1  0.4029440000000  0.5487690000000  0.4863500000000 1.0
C      1  0.4105120000000  0.5423080000000  0.5513900000000 1.0
C      1  0.5082470000000  0.4233870000000  0.5132920000000 1.0
C      1  0.4630550000000  0.5658080000000  0.5973640000000 1.0
C      1  0.5134460000000  0.5319210000000  0.5171590000000 1.0
C      1  0.4273740000000  0.4558090000000  0.5519090000000 1.0
C      1  0.5491390000000  0.4326930000000  0.5668010000000 1.0
C      1  0.6011950000000  0.4952560000000  0.4993880000000 1.0
C      1  0.5420300000000  0.5693650000000  0.4131930000000 1.0
C      1  0.4811300000000  0.4709990000000  0.5045800000000 1.0
C      1  0.5167320000000  0.4185380000000  0.4259300000000 1.0
C      1  0.4117730000000  0.5528510000000  0.4577730000000 1.0
C      1  0.5377530000000  0.5420920000000  0.4763540000000 1.0
C      1  0.4155440000000  0.5340260000000  0.4371050000000 1.0
C      1  0.4453960000000  0.4947080000000  0.5776410000000 1.0
C      1  0.4596090000000  0.5884090000000  0.5359150000000 1.0
C      1  0.4154730000000  0.5720390000000  0.5012090000000 1.0
C      1  0.4484420000000  0.5743600000000  0.5106740000000 1.0
C      1  0.4297250000000  0.5404010000000  0.5285510000000 1.0
C      1  0.5028930000000  0.5804460000000  0.4535120000000 1.0
C      1  0.4554660000000  0.5115490000000  0.4482960000000 1.0
C      1  0.5168800000000  0.4696270000000  0.5718080000000 1.0
C      1  0.4310490000000  0.4753900000000  0.4196110000000 1.0
C      1  0.5419600000000  0.4342760000000  0.4312580000000 1.0
C      1  0.4292100000000  0.5091850000000  0.5594360000000 1.0
C      1  0.4327250000000  0.5015260000000  0.4674030000000 1.0
C      1  0.5246380000000  0.5905100000000  0.5056910000000 1.0
C      1  0.4658860000000  0.4544160000000  0.5934350000000 1.0
C      1  0.5984220000000  0.4798060000000  0.5408210000000 1.0
C      1  0.4609480000000  0.4358190000000  0.4263710000000 1.0
C      1  0.4973520000000  0.5442530000000  0.4167930000000 1.0
C      1  0.5897770000000  0.5270340000000  0.5637690000000 1.0
C      1  0.5867140000000  0.5437060000000  0.4684160000000 1.0
C      1  0.5553030000000  0.5029150000000  0.5209370000000 1.0
C      1  0.4272510000000  0.5571350000000  0.5729430000000 1.0
C      1  0.4804220000000  0.4731100000000  0.4579540000000 1.0
C      1  0.5981420000000  0.4332550000000  0.5188640000000 1.0
C      1  0.4781570000000  0.5202670000000  0.4668590000000 1.0
C      1  0.5606870000000  0.4585330000000  0.4629160000000 1.0
C      1  0.5308940000000  0.4464650000000  0.5105130000000 1.0
C      1  0.4824590000000  0.4534120000000  0.5449140000000 1.0
C      1  0.4898930000000  0.5536580000000  0.5982960000000 1.0
C      1  0.5735620000000  0.4296110000000  0.5365410000000 1.0
C      1  0.4660410000000  0.4300010000000  0.5338190000000 1.0
C      1  0.4794730000000  0.4808460000000  0.6029190000000 1.0
C      1  0.5086350000000  0.3986120000000  0.4443220000000 1.0
C      1  0.4833970000000  0.5304560000000  0.5798740000000 1.0
C      1  0.4717520000000  0.5171940000000  0.5170260000000 1.0
C      1  0.3939140000000  0.5149770000000  0.5041200000000 1.0
C      1  0.5898660000000  0.4387650000000  0.4907440000000 1.0
C      1  0.5087930000000  0.5674650000000  0.5505650000000 1.0
C      1  0.4291090000000  0.5892440000000  0.4810000000000 1.0
C      1  0.4494670000000  0.4667560000000  0.5708200000000 1.0
C      1  0.4235900000000  0.5171310000000  0.5099520000000 1.0
C      1  0.5012630000000  0.4509240000000  0.4519070000000 1.0
C      1  0.4029960000000  0.4984180000000  0.5502950000000 1.0
C      1  0.5350500000000  0.5703960000000  0.4614520000000 1.0
C      1  0.4887160000000  0.5987490000000  0.4734950000000 1.0
C      1  0.4322580000000  0.5736040000000  0.4563510000000 1.0
C      1  0.5653390000000  0.5294450000000  0.5774380000000 1.0
C      1  0.5201340000000  0.5552040000000  0.5752200000000 1.0
C      1  0.5942260000000  0.5279210000000  0.5360290000000 1.0
C      1  0.5091530000000  0.4798560000000  0.5994380000000 1.0
C      1  0.4352760000000  0.4887530000000  0.5154600000000 1.0
C      1  0.5669420000000  0.4828150000000  0.4225900000000 1.0
C      1  0.5263900000000  0.5460400000000  0.4137710000000 1.0
C      1  0.4860820000000  0.6034740000000  0.5296870000000 1.0
C      1  0.5058410000000  0.4865430000000  0.4970020000000 1.0
C      1  0.4987790000000  0.6050050000000  0.5006670000000 1.0
C      1  0.5226690000000  0.4968940000000  0.4507580000000 1.0
C      1  0.5823510000000  0.5325960000000  0.4207920000000 1.0
C      1  0.5563470000000  0.4544140000000  0.5299640000000 1.0
C      1  0.5373710000000  0.6020990000000  0.5310000000000 1.0
C      1  0.4629780000000  0.5109890000000  0.5950610000000 1.0
C      1  0.4714440000000  0.5452260000000  0.5563430000000 1.0
C      1  0.4044430000000  0.4943850000000  0.4583760000000 1.0
C      1  0.4845460000000  0.5636770000000  0.4354030000000 1.0
C      1  0.5492030000000  0.5516100000000  0.5679100000000 1.0
C      1  0.4204560000000  0.4353450000000  0.5059030000000 1.0
C      1  0.5614970000000  0.5820420000000  0.5291120000000 1.0
C      1  0.5678680000000  0.5320400000000  0.5219410000000 1.0
C      1  0.4641800000000  0.4648870000000  0.4815600000000 1.0
C      1  0.5543450000000  0.5697380000000  0.4385210000000 1.0
C      1  0.4363050000000  0.4371110000000  0.5316620000000 1.0
C      1  0.5220020000000  0.4743430000000  0.4053830000000 1.0
C      1  0.4135710000000  0.4590190000000  0.4856020000000 1.0
C      1  0.4107140000000  0.4706960000000  0.4400970000000 1.0
C      1  0.4803260000000  0.4319480000000  0.5062220000000 1.0
C      1  0.5630280000000  0.4802730000000  0.5796430000000 1.0
C      1  0.5769660000000  0.5510310000000  0.4416810000000 1.0
C      1  0.5667730000000  0.5773900000000  0.4992770000000 1.0
C      1  0.5451390000000  0.4618660000000  0.4183300000000 1.0
C      1  0.5100090000000  0.5182060000000  0.5723650000000 1.0
C      1  0.4761160000000  0.4125240000000  0.4828990000000 1.0
C      1  0.5679800000000  0.4597830000000  0.4929260000000 1.0
C      1  0.4376430000000  0.4776980000000  0.4868960000000 1.0
C      1  0.5543940000000  0.4084120000000  0.5267250000000 1.0
C      1  0.4934270000000  0.4382150000000  0.4245390000000 1.0
C      1  0.5113080000000  0.5390270000000  0.4896600000000 1.0
C      1  0.5445300000000  0.5888460000000  0.4833790000000 1.0
C      1  0.4969170000000  0.4972510000000  0.4686340000000 1.0
C      1  0.6059390000000  0.5231150000000  0.4659860000000 1.0
C      1  0.4143710000000  0.4758020000000  0.5345860000000 1.0
C      1  0.5714610000000  0.4182080000000  0.4771660000000 1.0
C      1  0.4562790000000  0.5698770000000  0.5633370000000 1.0
C      1  0.5688520000000  0.5037060000000  0.4685220000000 1.0
C      1  0.4655540000000  0.4893510000000  0.5220570000000 1.0
C      1  0.4680150000000  0.5579530000000  0.4950460000000 1.0
C      1  0.4556780000000  0.5292270000000  0.5389580000000 1.0
C      1  0.3865460000000  0.5166070000000  0.5343010000000 1.0
C      1  0.5035280000000  0.4446300000000  0.5633690000000 1.0
C      1  0.5245150000000  0.4663770000000  0.4895880000000 1.0
C      1  0.5372380000000  0.5197100000000  0.4088240000000 1.0
C      1  0.4982510000000  0.4575050000000  0.4025450000000 1.0
C      1  0.6095590000000  0.4559580000000  0.5307050000000 1.0
C      1  0.4778770000000  0.4102700000000  0.5548710000000 1.0
C      1  0.5638310000000  0.4232340000000  0.4483720000000 1.0
C      1  0.4845890000000  0.4322680000000  0.5835930000000 1.0
C      1  0.4639390000000  0.4870090000000  0.4340050000000 1.0
C      1  0.5485800000000  0.4140360000000  0.4973140000000 1.0
C      1  0.4555530000000  0.5597130000000  0.4420980000000 1.0
C      1  0.4299500000000  0.4141640000000  0.4903820000000 1.0
C      1  0.4339030000000  0.5257540000000  0.4847640000000 1.0
C      1  0.6086150000000  0.5034920000000  0.5264520000000 1.0
C      1  0.4497650000000  0.4142040000000  0.4705680000000 1.0
C      1  0.4187180000000  0.4484780000000  0.4573480000000 1.0
C      1  0.5198790000000  0.4082970000000  0.4902830000000 1.0
C      1  0.4424760000000  0.5435550000000  0.5961030000000 1.0
C      1  0.3921240000000  0.4883840000000  0.4856640000000 1.0
C      1  0.4435950000000  0.5344690000000  0.4326970000000 1.0
C      1  0.5521960000000  0.5054220000000  0.5887910000000 1.0
C      1  0.5021530000000  0.4150710000000  0.4673840000000 1.0
C      1  0.4722460000000  0.4999500000000  0.3986120000000 1.0
C      1  0.5678230000000  0.4814740000000  0.5417270000000 1.0
C      1  0.4951400000000  0.5635050000000  0.4877330000000 1.0
C      1  0.5210510000000  0.5031840000000  0.5219730000000 1.0
C      1  0.5104040000000  0.5967240000000  0.5477430000000 1.0
C      1  0.5295340000000  0.4658220000000  0.4599040000000 1.0
C      1  0.4635910000000  0.5299210000000  0.4910830000000 1.0
C      1  0.5785550000000  0.4799450000000  0.4495220000000 1.0
C      1  0.5666870000000  0.5478320000000  0.4920980000000 1.0
C      1  0.5646280000000  0.5115100000000  0.4134600000000 1.0
C      1  0.5071720000000  0.4943910000000  0.5517740000000 1.0
END
