TITL C-950529-3362-718 2.13696200255436e-07 125000 -360.170174935228 0 0 59 (C1) n - 1
REM
REM in /home/bkarasulu/work/CARBON/AIRSS/Generating-Clusters/EDIP-Nigel-Params/with-SteepDescent/Only-C1/SD-CG/HFTN-CG
REM
REM
REM
REM
REM
REM ./C.cell (11c1c37f851c82e70ff6c80c92926a4b)
REM
REM compiler GCC version 9.2.1 20190827 (Red Hat 9.2.1-1)
REM options -cpp -mtune=generic -march=x86-64 -g -O0 -fpre-include=/usr/include/finclude/math-vector-fortran.h
REM seed 701113972 -1273390318 1973213479 -1088408164 1940718655 80699270 -323223494 -200989078 365434782 -746243809 1454713203 -75604481 -873400714 1825485349 -295165850 1560485598 2146557444 475485464 935348137 774427998 -2136765809 -232508713 -1736271512 -1672853491 149235905 1107744185 -1583061296 -1416846119 562419715 326095942 -458374559 1926158041 34393087
REM
CELL 1.54180   50.00000   50.00000   50.00000   90.00000   90.00000   90.00000
LATT -1
SFAC C  
C      1  0.4915870000000  0.4343930000000  0.5171370000000 1.0
C      1  0.4594780000000  0.4779340000000  0.4469270000000 1.0
C      1  0.4853440000000  0.5606270000000  0.5073810000000 1.0
C      1  0.4334430000000  0.4600560000000  0.4968090000000 1.0
C      1  0.5435150000000  0.5292820000000  0.5479930000000 1.0
C      1  0.4675210000000  0.4534280000000  0.4618300000000 1.0
C      1  0.5194900000000  0.4961160000000  0.5077550000000 1.0
C      1  0.4658380000000  0.4556440000000  0.5854250000000 1.0
C      1  0.4833710000000  0.5310570000000  0.5169160000000 1.0
C      1  0.5575700000000  0.4808890000000  0.5395810000000 1.0
C      1  0.5047420000000  0.5432780000000  0.4521030000000 1.0
C      1  0.5527040000000  0.5193710000000  0.4597100000000 1.0
C      1  0.5414970000000  0.4472660000000  0.5132560000000 1.0
C      1  0.4680710000000  0.4279160000000  0.5034690000000 1.0
C      1  0.4461230000000  0.5028310000000  0.4604940000000 1.0
C      1  0.4569870000000  0.5276630000000  0.4478190000000 1.0
C      1  0.4835140000000  0.5179950000000  0.4881130000000 1.0
C      1  0.4923070000000  0.4419120000000  0.4559740000000 1.0
C      1  0.5202550000000  0.5400580000000  0.5614030000000 1.0
C      1  0.4897350000000  0.4462390000000  0.5436120000000 1.0
C      1  0.5501640000000  0.5026280000000  0.5593900000000 1.0
C      1  0.5322020000000  0.4859910000000  0.4276570000000 1.0
C      1  0.4715890000000  0.5342740000000  0.5634640000000 1.0
C      1  0.5124150000000  0.5129770000000  0.4846120000000 1.0
C      1  0.4973560000000  0.5251260000000  0.5703650000000 1.0
C      1  0.5550740000000  0.4703510000000  0.4681660000000 1.0
C      1  0.5277290000000  0.5343640000000  0.4708960000000 1.0
C      1  0.4896990000000  0.4604440000000  0.5709280000000 1.0
C      1  0.4675610000000  0.5620160000000  0.4834650000000 1.0
C      1  0.5728040000000  0.5200390000000  0.4792920000000 1.0
C      1  0.5573100000000  0.5363380000000  0.5218250000000 1.0
C      1  0.4650510000000  0.4428800000000  0.5602000000000 1.0
C      1  0.4321420000000  0.5076970000000  0.4884280000000 1.0
C      1  0.4348490000000  0.5328610000000  0.5307760000000 1.0
C      1  0.5020480000000  0.5258130000000  0.4283810000000 1.0
C      1  0.5068940000000  0.5138110000000  0.5286360000000 1.0
C      1  0.5486880000000  0.4911670000000  0.4500790000000 1.0
C      1  0.4776250000000  0.5391270000000  0.4665130000000 1.0
C      1  0.5556720000000  0.5601860000000  0.5073870000000 1.0
C      1  0.5018850000000  0.5000330000000  0.5547240000000 1.0
C      1  0.5334630000000  0.5575390000000  0.4905870000000 1.0
C      1  0.4535090000000  0.4440690000000  0.4858490000000 1.0
C      1  0.5516960000000  0.4908250000000  0.5118890000000 1.0
C      1  0.4453420000000  0.4849490000000  0.5013110000000 1.0
C      1  0.4404670000000  0.5573230000000  0.4892940000000 1.0
C      1  0.4985470000000  0.4729360000000  0.4975850000000 1.0
C      1  0.5099630000000  0.4537870000000  0.4745200000000 1.0
C      1  0.5576260000000  0.4665980000000  0.4959060000000 1.0
C      1  0.4716460000000  0.5195180000000  0.4230720000000 1.0
C      1  0.5108030000000  0.5691800000000  0.5011010000000 1.0
C      1  0.4616040000000  0.5295360000000  0.5377110000000 1.0
C      1  0.5260630000000  0.4844640000000  0.5638530000000 1.0
C      1  0.5399840000000  0.4567650000000  0.5413140000000 1.0
C      1  0.5161620000000  0.4380810000000  0.5000020000000 1.0
C      1  0.5684070000000  0.5146370000000  0.5063110000000 1.0
C      1  0.4787030000000  0.4884420000000  0.4265110000000 1.0
C      1  0.5074610000000  0.4966990000000  0.4346320000000 1.0
C      1  0.4344880000000  0.5333540000000  0.5027480000000 1.0
C      1  0.4722160000000  0.4892210000000  0.4869130000000 1.0
END
