TITL C-951335-1172-665 -2.47914987027518e-06 125000 -373.591235526699 0 0 62 (C1) n - 1
REM
REM in /home/bkarasulu/work/CARBON/AIRSS/Generating-Clusters/EDIP-Nigel-Params/with-SteepDescent/Only-C1/SD-CG/HFTN-CG
REM
REM
REM
REM
REM
REM ./C.cell (11c1c37f851c82e70ff6c80c92926a4b)
REM
REM compiler GCC version 9.2.1 20190827 (Red Hat 9.2.1-1)
REM options -cpp -mtune=generic -march=x86-64 -g -O0 -fpre-include=/usr/include/finclude/math-vector-fortran.h
REM seed -113515855 -1674204592 1946849669 -589947585 2095782589 1323700441 -1139036251 -519164097 538571801 1046128395 1917892360 -62634564 1571330560 -2121289957 -1005327934 81577836 -1628185960 -2032977567 1457397975 1084610422 -111023341 -290330614 -581668280 414184188 -910184835 1381516872 -1446434982 651184054 117717522 -1006207893 1534574998 -875555847 878449101
REM
CELL 1.54180   50.00000   50.00000   50.00000   90.00000   90.00000   90.00000
LATT -1
SFAC C  
C      1  0.4880370000000  0.5387860000000  0.5291780000000 1.0
C      1  0.4664080000000  0.4278810000000  0.4817920000000 1.0
C      1  0.4236870000000  0.4865690000000  0.4977120000000 1.0
C      1  0.4366570000000  0.5113410000000  0.4896730000000 1.0
C      1  0.5621240000000  0.5033250000000  0.5432750000000 1.0
C      1  0.5593090000000  0.5093920000000  0.4967080000000 1.0
C      1  0.4825650000000  0.4713920000000  0.5137680000000 1.0
C      1  0.5415810000000  0.5573940000000  0.5003730000000 1.0
C      1  0.4630140000000  0.5105490000000  0.4321660000000 1.0
C      1  0.5165900000000  0.4392180000000  0.5406650000000 1.0
C      1  0.4508940000000  0.4506460000000  0.4772560000000 1.0
C      1  0.5284910000000  0.5151550000000  0.4981080000000 1.0
C      1  0.5028500000000  0.4833670000000  0.5324860000000 1.0
C      1  0.5732750000000  0.5125810000000  0.4723150000000 1.0
C      1  0.5511570000000  0.5476370000000  0.4524810000000 1.0
C      1  0.5125800000000  0.4577760000000  0.4530200000000 1.0
C      1  0.4597000000000  0.5047160000000  0.5316610000000 1.0
C      1  0.4631720000000  0.5555880000000  0.4965810000000 1.0
C      1  0.4652500000000  0.5456570000000  0.5458860000000 1.0
C      1  0.4694450000000  0.4898060000000  0.5663460000000 1.0
C      1  0.5360700000000  0.4653840000000  0.5022470000000 1.0
C      1  0.5410820000000  0.5384140000000  0.5628180000000 1.0
C      1  0.4439650000000  0.4917280000000  0.4456240000000 1.0
C      1  0.5135680000000  0.5086060000000  0.4260050000000 1.0
C      1  0.5238870000000  0.4866300000000  0.4841070000000 1.0
C      1  0.4412860000000  0.5370760000000  0.5046330000000 1.0
C      1  0.4953970000000  0.5632860000000  0.5162380000000 1.0
C      1  0.4262540000000  0.5056280000000  0.4637940000000 1.0
C      1  0.4726630000000  0.4363720000000  0.5417300000000 1.0
C      1  0.4968790000000  0.5158630000000  0.4595550000000 1.0
C      1  0.4928240000000  0.4903830000000  0.4751980000000 1.0
C      1  0.5102850000000  0.5155860000000  0.5288410000000 1.0
C      1  0.5230480000000  0.5709620000000  0.5180950000000 1.0
C      1  0.4764520000000  0.4948300000000  0.4986260000000 1.0
C      1  0.4491210000000  0.4814520000000  0.5475970000000 1.0
C      1  0.4958260000000  0.4775260000000  0.5619800000000 1.0
C      1  0.4577700000000  0.4601820000000  0.5278780000000 1.0
C      1  0.4866740000000  0.4664830000000  0.4396800000000 1.0
C      1  0.5615650000000  0.5491460000000  0.5206700000000 1.0
C      1  0.4898610000000  0.4383180000000  0.4943170000000 1.0
C      1  0.5373930000000  0.4400700000000  0.4900020000000 1.0
C      1  0.5215510000000  0.5189010000000  0.5577430000000 1.0
C      1  0.5131610000000  0.4385680000000  0.4757200000000 1.0
C      1  0.5238420000000  0.4920190000000  0.5707700000000 1.0
C      1  0.5471320000000  0.5582550000000  0.5444390000000 1.0
C      1  0.5444930000000  0.5658660000000  0.4725690000000 1.0
C      1  0.5160570000000  0.5322030000000  0.4744570000000 1.0
C      1  0.5061180000000  0.5595240000000  0.4736420000000 1.0
C      1  0.4882330000000  0.4931830000000  0.4237100000000 1.0
C      1  0.4627150000000  0.4715610000000  0.4584850000000 1.0
C      1  0.5369770000000  0.4736550000000  0.4501800000000 1.0
C      1  0.5568680000000  0.5201270000000  0.4509580000000 1.0
C      1  0.4449190000000  0.5303210000000  0.5333500000000 1.0
C      1  0.5351220000000  0.5012880000000  0.4439440000000 1.0
C      1  0.5453300000000  0.4818830000000  0.5518960000000 1.0
C      1  0.4665390000000  0.5362790000000  0.4483610000000 1.0
C      1  0.4373160000000  0.4606190000000  0.5020630000000 1.0
C      1  0.5280440000000  0.4662570000000  0.5308470000000 1.0
C      1  0.4947950000000  0.4469220000000  0.5612080000000 1.0
C      1  0.5704500000000  0.5198920000000  0.5214780000000 1.0
C      1  0.4771080000000  0.5534780000000  0.4709140000000 1.0
C      1  0.4945750000000  0.4265010000000  0.5221810000000 1.0
END
