TITL C-951348-1603-672 -3.40459947931372e-07 125000 -94.4535478525914 0 0 17 (C1) n - 1
REM
REM in /home/bkarasulu/work/CARBON/AIRSS/Generating-Clusters/EDIP-Nigel-Params/with-SteepDescent/Only-C1/SD-CG/HFTN-CG
REM
REM
REM
REM
REM
REM ./C.cell (11c1c37f851c82e70ff6c80c92926a4b)
REM
REM compiler GCC version 9.2.1 20190827 (Red Hat 9.2.1-1)
REM options -cpp -mtune=generic -march=x86-64 -g -O0 -fpre-include=/usr/include/finclude/math-vector-fortran.h
REM seed 528313047 -1300983770 1708917155 -1280543012 -967481784 1289437236 -628984057 -81876117 1651733104 -1134389656 -550081416 794946909 -136441701 92409266 -201551730 2136322805 -1161513618 13931945 1872079224 -35083707 -175670953 -2105078901 1220009097 -1719755898 1500672197 2066369782 1399515937 -367946497 1595588997 -1539790114 1813444863 -709957059 -782206028
REM
CELL 1.54180   50.00000   50.00000   50.00000   90.00000   90.00000   90.00000
LATT -1
SFAC C  
C      1  0.4817470000000  0.5266910000000  0.5538470000000 1.0
C      1  0.5412240000000  0.4936690000000  0.4981630000000 1.0
C      1  0.5058550000000  0.5371270000000  0.4846610000000 1.0
C      1  0.4888130000000  0.5339940000000  0.5073200000000 1.0
C      1  0.5350410000000  0.4672890000000  0.4933950000000 1.0
C      1  0.4466430000000  0.4872180000000  0.4877350000000 1.0
C      1  0.5350100000000  0.5127530000000  0.4781150000000 1.0
C      1  0.5183730000000  0.4464240000000  0.4873480000000 1.0
C      1  0.4606620000000  0.4650640000000  0.4838660000000 1.0
C      1  0.5406510000000  0.5032030000000  0.5240970000000 1.0
C      1  0.4616300000000  0.5324060000000  0.5028670000000 1.0
C      1  0.4803410000000  0.4461130000000  0.4834920000000 1.0
C      1  0.4455020000000  0.5127900000000  0.4947500000000 1.0
C      1  0.4987180000000  0.5282480000000  0.5336260000000 1.0
C      1  0.5013680000000  0.4467170000000  0.4654950000000 1.0
C      1  0.5249480000000  0.5204830000000  0.5371780000000 1.0
C      1  0.5334720000000  0.5398120000000  0.4840470000000 1.0
END
