TITL C-950534-5965-211 -2.94892621646908e-07 125000 -277.309361166505 0 0 46 (C1) n - 1
REM
REM in /home/bkarasulu/work/CARBON/AIRSS/Generating-Clusters/EDIP-Nigel-Params/with-SteepDescent/Only-C1/SD-CG/HFTN-CG
REM
REM
REM
REM
REM
REM ./C.cell (11c1c37f851c82e70ff6c80c92926a4b)
REM
REM compiler GCC version 9.2.1 20190827 (Red Hat 9.2.1-1)
REM options -cpp -mtune=generic -march=x86-64 -g -O0 -fpre-include=/usr/include/finclude/math-vector-fortran.h
REM seed 532602436 -98158375 1518503402 92267243 1223866810 -1480340542 -1398090871 768753928 -1735243839 2130147924 -834107786 2013353330 -825162749 70779514 -1742447064 979650908 -873269794 -2005709557 -1655501204 -1652514939 -1286835252 -71507804 231520061 -733405317 172681694 408410360 -1781622524 -1401078264 351074825 1965244724 684595417 -699715975 1948467256
REM
CELL 1.54180   50.00000   50.00000   50.00000   90.00000   90.00000   90.00000
LATT -1
SFAC C  
C      1  0.4373480000000  0.5038430000000  0.5357500000000 1.0
C      1  0.4591160000000  0.5234890000000  0.5337120000000 1.0
C      1  0.5155270000000  0.4641530000000  0.5656950000000 1.0
C      1  0.5070430000000  0.5457040000000  0.4825670000000 1.0
C      1  0.4812900000000  0.5022700000000  0.4674560000000 1.0
C      1  0.4900320000000  0.4637250000000  0.5520740000000 1.0
C      1  0.5137000000000  0.5370600000000  0.5279930000000 1.0
C      1  0.5659960000000  0.4851000000000  0.4661960000000 1.0
C      1  0.5291000000000  0.4914810000000  0.4972390000000 1.0
C      1  0.5338540000000  0.5372400000000  0.4366740000000 1.0
C      1  0.4930770000000  0.5449930000000  0.5075860000000 1.0
C      1  0.5276040000000  0.4624900000000  0.4460400000000 1.0
C      1  0.5049180000000  0.5312970000000  0.4373420000000 1.0
C      1  0.5473870000000  0.5315040000000  0.4634350000000 1.0
C      1  0.4262460000000  0.5193290000000  0.4910560000000 1.0
C      1  0.5286520000000  0.4976860000000  0.5532740000000 1.0
C      1  0.4759060000000  0.5370040000000  0.4354630000000 1.0
C      1  0.4903400000000  0.5364290000000  0.5684930000000 1.0
C      1  0.5137680000000  0.4466870000000  0.5028750000000 1.0
C      1  0.5085290000000  0.5509260000000  0.5534630000000 1.0
C      1  0.4449690000000  0.4828810000000  0.5535170000000 1.0
C      1  0.4609660000000  0.5220070000000  0.4554020000000 1.0
C      1  0.5043220000000  0.5206820000000  0.4653790000000 1.0
C      1  0.4547280000000  0.4819820000000  0.4968010000000 1.0
C      1  0.5018520000000  0.4697400000000  0.4606740000000 1.0
C      1  0.4683520000000  0.5282830000000  0.5054210000000 1.0
C      1  0.4812440000000  0.5135920000000  0.5521210000000 1.0
C      1  0.5413770000000  0.5375770000000  0.5131330000000 1.0
C      1  0.4929840000000  0.4634230000000  0.5206330000000 1.0
C      1  0.4964210000000  0.4458460000000  0.4788040000000 1.0
C      1  0.5069070000000  0.5085740000000  0.5362580000000 1.0
C      1  0.4304440000000  0.4961520000000  0.5074820000000 1.0
C      1  0.5260560000000  0.4414260000000  0.4296030000000 1.0
C      1  0.5016140000000  0.4915170000000  0.5123080000000 1.0
C      1  0.5492510000000  0.4620710000000  0.4671980000000 1.0
C      1  0.5360330000000  0.5489120000000  0.4857700000000 1.0
C      1  0.4718300000000  0.4857900000000  0.5620330000000 1.0
C      1  0.5384610000000  0.4717340000000  0.5521560000000 1.0
C      1  0.5252340000000  0.4994440000000  0.4686270000000 1.0
C      1  0.5381960000000  0.4630530000000  0.4959310000000 1.0
C      1  0.4654530000000  0.4573820000000  0.5082500000000 1.0
C      1  0.5521610000000  0.5103560000000  0.5056160000000 1.0
C      1  0.4700110000000  0.4394830000000  0.4870490000000 1.0
C      1  0.4485970000000  0.5337480000000  0.4808840000000 1.0
C      1  0.5660360000000  0.5108920000000  0.4780780000000 1.0
C      1  0.4770670000000  0.5010400000000  0.4964930000000 1.0
END
