TITL C-951339-9237-645 -4.94402615167981e-08 125000 -1065.03463661711 0 0 167 (C1) n - 1
REM
REM in /home/bkarasulu/work/CARBON/AIRSS/Generating-Clusters/EDIP-Nigel-Params/with-SteepDescent/Only-C1/SD-CG/HFTN-CG
REM
REM
REM
REM
REM
REM ./C.cell (11c1c37f851c82e70ff6c80c92926a4b)
REM
REM compiler GCC version 9.2.1 20190827 (Red Hat 9.2.1-1)
REM options -cpp -mtune=generic -march=x86-64 -g -O0 -fpre-include=/usr/include/finclude/math-vector-fortran.h
REM seed 1827839558 -493267226 -90716549 -1986942844 -1126372275 1309667453 -225511039 -511684683 -436763331 -500709321 -1217300976 492588655 1429957480 1944867069 503697102 1412619758 -955132855 -701132697 -411273020 830818464 1476444920 426952479 -258483713 -3132668 796812097 1493882038 -462596761 -514271556 1626668067 1109461820 785457659 -706316959 1964299361
REM
CELL 1.54180   50.00000   50.00000   50.00000   90.00000   90.00000   90.00000
LATT -1
SFAC C  
C      1  0.6066720000000  0.5082600000000  0.4508320000000 1.0
C      1  0.5284400000000  0.4403690000000  0.4460190000000 1.0
C      1  0.5854590000000  0.5643050000000  0.5318530000000 1.0
C      1  0.4089380000000  0.5422140000000  0.5631460000000 1.0
C      1  0.5687520000000  0.5032780000000  0.5648940000000 1.0
C      1  0.4198500000000  0.4951950000000  0.5040210000000 1.0
C      1  0.5622700000000  0.4448630000000  0.5605420000000 1.0
C      1  0.4661660000000  0.5201600000000  0.5033220000000 1.0
C      1  0.5899470000000  0.4435860000000  0.4574100000000 1.0
C      1  0.5008360000000  0.5199330000000  0.4342270000000 1.0
C      1  0.5076590000000  0.4834820000000  0.3968510000000 1.0
C      1  0.4520900000000  0.4693060000000  0.4097860000000 1.0
C      1  0.4231100000000  0.4579400000000  0.5468380000000 1.0
C      1  0.4804690000000  0.5048330000000  0.5983270000000 1.0
C      1  0.4883390000000  0.4993940000000  0.4160030000000 1.0
C      1  0.5268270000000  0.4397040000000  0.4152230000000 1.0
C      1  0.5702330000000  0.4266150000000  0.4710980000000 1.0
C      1  0.4786850000000  0.5385130000000  0.3871810000000 1.0
C      1  0.5579090000000  0.4943700000000  0.6121220000000 1.0
C      1  0.5083960000000  0.4709440000000  0.4884010000000 1.0
C      1  0.4641170000000  0.4802650000000  0.5935880000000 1.0
C      1  0.5715620000000  0.4065390000000  0.4921960000000 1.0
C      1  0.5749790000000  0.4685500000000  0.4482520000000 1.0
C      1  0.4835750000000  0.4151000000000  0.4447820000000 1.0
C      1  0.4637530000000  0.5608090000000  0.4249000000000 1.0
C      1  0.6039870000000  0.5454730000000  0.5363720000000 1.0
C      1  0.5332230000000  0.5549180000000  0.4402000000000 1.0
C      1  0.3888860000000  0.5087160000000  0.5325900000000 1.0
C      1  0.4514630000000  0.4949120000000  0.4515620000000 1.0
C      1  0.5074270000000  0.5698130000000  0.4486270000000 1.0
C      1  0.4917950000000  0.5524490000000  0.4701900000000 1.0
C      1  0.5824420000000  0.4832200000000  0.4142400000000 1.0
C      1  0.5015130000000  0.5545760000000  0.4010260000000 1.0
C      1  0.4660930000000  0.5743540000000  0.4750700000000 1.0
C      1  0.4373670000000  0.4713450000000  0.4635100000000 1.0
C      1  0.4715860000000  0.3999750000000  0.5135170000000 1.0
C      1  0.3894910000000  0.5070160000000  0.4637290000000 1.0
C      1  0.3881960000000  0.4818800000000  0.5218550000000 1.0
C      1  0.4216730000000  0.5381610000000  0.4784390000000 1.0
C      1  0.5384030000000  0.4738540000000  0.4863130000000 1.0
C      1  0.4032740000000  0.5551680000000  0.5160140000000 1.0
C      1  0.4309490000000  0.5141820000000  0.4375070000000 1.0
C      1  0.6079530000000  0.5249310000000  0.5181320000000 1.0
C      1  0.5546810000000  0.5176090000000  0.5428940000000 1.0
C      1  0.4978020000000  0.4425260000000  0.4862380000000 1.0
C      1  0.4038040000000  0.5169170000000  0.4869820000000 1.0
C      1  0.5091640000000  0.5048690000000  0.6010560000000 1.0
C      1  0.5799560000000  0.5007010000000  0.4935110000000 1.0
C      1  0.4904200000000  0.5721370000000  0.4226290000000 1.0
C      1  0.6012230000000  0.4977600000000  0.5258710000000 1.0
C      1  0.5823990000000  0.4583900000000  0.5452540000000 1.0
C      1  0.5724860000000  0.5289170000000  0.5831440000000 1.0
C      1  0.5659280000000  0.5753350000000  0.5155150000000 1.0
C      1  0.4545400000000  0.5436730000000  0.4028660000000 1.0
C      1  0.4625490000000  0.4694080000000  0.5049940000000 1.0
C      1  0.5502720000000  0.4486330000000  0.4027260000000 1.0
C      1  0.5448180000000  0.4676110000000  0.4562850000000 1.0
C      1  0.5382780000000  0.4928260000000  0.4426360000000 1.0
C      1  0.4779560000000  0.4572590000000  0.5826260000000 1.0
C      1  0.5096220000000  0.5367120000000  0.4923450000000 1.0
C      1  0.4498310000000  0.4957670000000  0.3918240000000 1.0
C      1  0.5555170000000  0.5221940000000  0.6061610000000 1.0
C      1  0.4648360000000  0.5483320000000  0.5140700000000 1.0
C      1  0.5066570000000  0.5843280000000  0.5671230000000 1.0
C      1  0.4307060000000  0.5406450000000  0.4523570000000 1.0
C      1  0.5208370000000  0.4854130000000  0.5839290000000 1.0
C      1  0.4382990000000  0.4306000000000  0.4355670000000 1.0
C      1  0.4805430000000  0.5811270000000  0.5506280000000 1.0
C      1  0.5333930000000  0.5769210000000  0.5549660000000 1.0
C      1  0.4639870000000  0.4051840000000  0.4645800000000 1.0
C      1  0.5151620000000  0.5042610000000  0.4538510000000 1.0
C      1  0.4345860000000  0.5811670000000  0.5464810000000 1.0
C      1  0.5519610000000  0.4534180000000  0.5855410000000 1.0
C      1  0.5846260000000  0.5078700000000  0.4302140000000 1.0
C      1  0.5579980000000  0.4753930000000  0.4004920000000 1.0
C      1  0.4427620000000  0.5245010000000  0.5861240000000 1.0
C      1  0.4726490000000  0.4726400000000  0.5330250000000 1.0
C      1  0.5381990000000  0.5219320000000  0.4019380000000 1.0
C      1  0.4438060000000  0.4274260000000  0.4678150000000 1.0
C      1  0.4497240000000  0.5742670000000  0.5727730000000 1.0
C      1  0.4944140000000  0.5973210000000  0.5066720000000 1.0
C      1  0.4265410000000  0.4557000000000  0.4233830000000 1.0
C      1  0.4980100000000  0.4066880000000  0.5237040000000 1.0
C      1  0.4648820000000  0.4241450000000  0.4226240000000 1.0
C      1  0.4531830000000  0.4238390000000  0.5150020000000 1.0
C      1  0.5116530000000  0.5209130000000  0.5608030000000 1.0
C      1  0.4606170000000  0.5179190000000  0.5609140000000 1.0
C      1  0.4496290000000  0.5703630000000  0.5012920000000 1.0
C      1  0.5095120000000  0.5964660000000  0.4625070000000 1.0
C      1  0.5000800000000  0.5700820000000  0.5924900000000 1.0
C      1  0.4461020000000  0.4394080000000  0.5447760000000 1.0
C      1  0.5789380000000  0.4464470000000  0.5175110000000 1.0
C      1  0.6072020000000  0.5324880000000  0.4674050000000 1.0
C      1  0.5189800000000  0.5545190000000  0.6053180000000 1.0
C      1  0.5244090000000  0.4408660000000  0.5836380000000 1.0
C      1  0.4961170000000  0.5168820000000  0.5111210000000 1.0
C      1  0.4292630000000  0.4225740000000  0.4953300000000 1.0
C      1  0.4053390000000  0.4590840000000  0.5241660000000 1.0
C      1  0.5232960000000  0.5985620000000  0.5085480000000 1.0
C      1  0.5903700000000  0.4866490000000  0.5501860000000 1.0
C      1  0.5234190000000  0.4187080000000  0.5645170000000 1.0
C      1  0.4049500000000  0.4983780000000  0.4417030000000 1.0
C      1  0.5775400000000  0.4159950000000  0.5183140000000 1.0
C      1  0.4678110000000  0.4831530000000  0.4303240000000 1.0
C      1  0.4163220000000  0.5589930000000  0.5412320000000 1.0
C      1  0.5147670000000  0.4236420000000  0.5043930000000 1.0
C      1  0.5505650000000  0.4554610000000  0.5070070000000 1.0
C      1  0.5922460000000  0.5283320000000  0.4932500000000 1.0
C      1  0.5440590000000  0.4272300000000  0.5456200000000 1.0
C      1  0.3887360000000  0.5291420000000  0.5103690000000 1.0
C      1  0.5202390000000  0.5378660000000  0.4182290000000 1.0
C      1  0.5061440000000  0.4623000000000  0.5721640000000 1.0
C      1  0.5004780000000  0.4366870000000  0.4567160000000 1.0
C      1  0.4621640000000  0.4341960000000  0.5697410000000 1.0
C      1  0.4292040000000  0.5502640000000  0.5829510000000 1.0
C      1  0.5582130000000  0.5992020000000  0.4731890000000 1.0
C      1  0.5337890000000  0.4071100000000  0.4862390000000 1.0
C      1  0.4522790000000  0.4946980000000  0.5437730000000 1.0
C      1  0.4382960000000  0.5187880000000  0.4077180000000 1.0
C      1  0.4824940000000  0.5546520000000  0.5367110000000 1.0
C      1  0.4495650000000  0.5632390000000  0.4497660000000 1.0
C      1  0.5369990000000  0.5380740000000  0.5546090000000 1.0
C      1  0.5566250000000  0.5518760000000  0.5731000000000 1.0
C      1  0.5119190000000  0.5013910000000  0.5340600000000 1.0
C      1  0.4738360000000  0.4469590000000  0.4056370000000 1.0
C      1  0.4760360000000  0.6014360000000  0.5290870000000 1.0
C      1  0.4716580000000  0.5081170000000  0.4707310000000 1.0
C      1  0.4845240000000  0.5362790000000  0.5597990000000 1.0
C      1  0.5442440000000  0.4184880000000  0.4596520000000 1.0
C      1  0.5366540000000  0.5281610000000  0.4841850000000 1.0
C      1  0.5483640000000  0.5019990000000  0.4963130000000 1.0
C      1  0.5595760000000  0.4047020000000  0.5364320000000 1.0
C      1  0.4738480000000  0.3919570000000  0.4870630000000 1.0
C      1  0.4680490000000  0.4432950000000  0.4943630000000 1.0
C      1  0.5414350000000  0.5861410000000  0.5276400000000 1.0
C      1  0.4216280000000  0.5614930000000  0.4941530000000 1.0
C      1  0.4801070000000  0.5313510000000  0.4535280000000 1.0
C      1  0.5598900000000  0.5126230000000  0.4457930000000 1.0
C      1  0.4483540000000  0.5930680000000  0.5221790000000 1.0
C      1  0.4090900000000  0.4421270000000  0.5010400000000 1.0
C      1  0.5317480000000  0.5970580000000  0.4812480000000 1.0
C      1  0.5717350000000  0.5784780000000  0.4863910000000 1.0
C      1  0.5030820000000  0.4547550000000  0.4045650000000 1.0
C      1  0.5928080000000  0.4866170000000  0.4683910000000 1.0
C      1  0.5287050000000  0.4441580000000  0.5237280000000 1.0
C      1  0.4338870000000  0.4703190000000  0.4929070000000 1.0
C      1  0.4845270000000  0.5988280000000  0.4789470000000 1.0
C      1  0.4979010000000  0.4152150000000  0.5515640000000 1.0
C      1  0.4781420000000  0.5076940000000  0.3876420000000 1.0
C      1  0.4278860000000  0.4844950000000  0.5599890000000 1.0
C      1  0.6016660000000  0.4536130000000  0.5017760000000 1.0
C      1  0.4043440000000  0.5133770000000  0.5570400000000 1.0
C      1  0.4132200000000  0.4699390000000  0.4464830000000 1.0
C      1  0.4366600000000  0.4809650000000  0.5874060000000 1.0
C      1  0.4761940000000  0.4096020000000  0.5679540000000 1.0
C      1  0.5042170000000  0.4689470000000  0.5395300000000 1.0
C      1  0.6082120000000  0.4602120000000  0.4758410000000 1.0
C      1  0.4667460000000  0.5304110000000  0.6032370000000 1.0
C      1  0.4432900000000  0.5071020000000  0.5185420000000 1.0
C      1  0.5510080000000  0.5388390000000  0.4593790000000 1.0
C      1  0.5404360000000  0.5007130000000  0.5252860000000 1.0
C      1  0.5355280000000  0.4941920000000  0.3985380000000 1.0
C      1  0.4959660000000  0.4885420000000  0.4686290000000 1.0
C      1  0.5273630000000  0.5287760000000  0.5965400000000 1.0
C      1  0.5764970000000  0.5541180000000  0.4688110000000 1.0
C      1  0.5500810000000  0.4830610000000  0.5862490000000 1.0
C      1  0.4767630000000  0.5533460000000  0.5849670000000 1.0
END
