TITL C-950528-5794-219 -5.78634430026942e-07 125000 -1250.68779091908 0 0 198 (C1) n - 1
REM
REM in /home/bkarasulu/work/CARBON/AIRSS/Generating-Clusters/EDIP-Nigel-Params/with-SteepDescent/Only-C1/SD-CG/HFTN-CG
REM
REM
REM
REM
REM
REM ./C.cell (11c1c37f851c82e70ff6c80c92926a4b)
REM
REM compiler GCC version 9.2.1 20190827 (Red Hat 9.2.1-1)
REM options -cpp -mtune=generic -march=x86-64 -g -O0 -fpre-include=/usr/include/finclude/math-vector-fortran.h
REM seed 1262247516 -957761957 -17516767 -637805174 795476441 -1994563862 1993399197 -1143029739 777147222 1791998463 -923298325 303500858 -1810110979 -754049930 1752147773 687108052 -751643152 -478065100 -776913404 765240468 1241009402 1844719664 -1067626079 680213626 204260123 -824414710 -27143016 1677704313 -1157986199 291444151 -1530999230 40770192 -1873996318
REM
CELL 1.54180   50.00000   50.00000   50.00000   90.00000   90.00000   90.00000
LATT -1
SFAC C  
C      1  0.5331750000000  0.5365290000000  0.3819310000000 1.0
C      1  0.5184090000000  0.4300260000000  0.4771210000000 1.0
C      1  0.5312420000000  0.5309770000000  0.4723760000000 1.0
C      1  0.5106350000000  0.4333960000000  0.4288510000000 1.0
C      1  0.4445740000000  0.4750570000000  0.5896340000000 1.0
C      1  0.5467600000000  0.5165540000000  0.5899810000000 1.0
C      1  0.4738540000000  0.4621780000000  0.4468470000000 1.0
C      1  0.4663300000000  0.4232140000000  0.5085190000000 1.0
C      1  0.4783360000000  0.4681050000000  0.4966190000000 1.0
C      1  0.4624430000000  0.5857520000000  0.5683540000000 1.0
C      1  0.5408170000000  0.5359080000000  0.5187750000000 1.0
C      1  0.5641850000000  0.4271960000000  0.5360720000000 1.0
C      1  0.4336580000000  0.4556900000000  0.4839270000000 1.0
C      1  0.4533950000000  0.4324660000000  0.4802200000000 1.0
C      1  0.5245560000000  0.5479430000000  0.4973950000000 1.0
C      1  0.5352020000000  0.4300850000000  0.4137740000000 1.0
C      1  0.4417650000000  0.4157120000000  0.4381060000000 1.0
C      1  0.5623830000000  0.5263820000000  0.4696360000000 1.0
C      1  0.4596560000000  0.4499090000000  0.5226730000000 1.0
C      1  0.4392110000000  0.5658320000000  0.4277590000000 1.0
C      1  0.5748460000000  0.4822780000000  0.5712050000000 1.0
C      1  0.4245890000000  0.4600760000000  0.4175320000000 1.0
C      1  0.4810540000000  0.3972070000000  0.4588210000000 1.0
C      1  0.4815860000000  0.5160410000000  0.4984990000000 1.0
C      1  0.4878180000000  0.5586580000000  0.5913400000000 1.0
C      1  0.5432110000000  0.4453160000000  0.4784600000000 1.0
C      1  0.4306500000000  0.4545550000000  0.5132770000000 1.0
C      1  0.5422570000000  0.5948520000000  0.5145880000000 1.0
C      1  0.5256300000000  0.4351050000000  0.5956590000000 1.0
C      1  0.5028530000000  0.6060350000000  0.4314190000000 1.0
C      1  0.6133720000000  0.4755860000000  0.5135880000000 1.0
C      1  0.5349090000000  0.4894090000000  0.5974730000000 1.0
C      1  0.4896340000000  0.4656250000000  0.6099250000000 1.0
C      1  0.5840220000000  0.5410510000000  0.5111070000000 1.0
C      1  0.4635880000000  0.5980670000000  0.4555160000000 1.0
C      1  0.4138690000000  0.4561890000000  0.5592920000000 1.0
C      1  0.5472830000000  0.3936540000000  0.5304050000000 1.0
C      1  0.5027560000000  0.4711130000000  0.3826640000000 1.0
C      1  0.4318960000000  0.5984350000000  0.5189450000000 1.0
C      1  0.5876770000000  0.5635950000000  0.4405580000000 1.0
C      1  0.4086340000000  0.4897860000000  0.5268650000000 1.0
C      1  0.5234050000000  0.4895060000000  0.5016330000000 1.0
C      1  0.4505930000000  0.5606900000000  0.4982100000000 1.0
C      1  0.5872020000000  0.5291400000000  0.5570510000000 1.0
C      1  0.4959590000000  0.4170930000000  0.5155870000000 1.0
C      1  0.5730410000000  0.5889840000000  0.5115360000000 1.0
C      1  0.4592840000000  0.3850110000000  0.5059380000000 1.0
C      1  0.4445970000000  0.4452290000000  0.5937780000000 1.0
C      1  0.5558870000000  0.4758670000000  0.4176520000000 1.0
C      1  0.5663440000000  0.4280140000000  0.5651210000000 1.0
C      1  0.4428980000000  0.5417330000000  0.4728290000000 1.0
C      1  0.5508410000000  0.4418740000000  0.5844520000000 1.0
C      1  0.5757530000000  0.5112680000000  0.5787110000000 1.0
C      1  0.5232120000000  0.5573230000000  0.3980000000000 1.0
C      1  0.4156850000000  0.4934570000000  0.4988270000000 1.0
C      1  0.5539240000000  0.4154740000000  0.4296280000000 1.0
C      1  0.5165770000000  0.4104120000000  0.4970400000000 1.0
C      1  0.5721280000000  0.5556430000000  0.5533700000000 1.0
C      1  0.5432680000000  0.5462010000000  0.5467370000000 1.0
C      1  0.5370300000000  0.5368550000000  0.6099590000000 1.0
C      1  0.4075480000000  0.4485420000000  0.4736290000000 1.0
C      1  0.4484550000000  0.5180500000000  0.4275210000000 1.0
C      1  0.5343340000000  0.5244760000000  0.5645660000000 1.0
C      1  0.4867940000000  0.5532510000000  0.4480550000000 1.0
C      1  0.4954490000000  0.5451780000000  0.5054480000000 1.0
C      1  0.5459100000000  0.5778670000000  0.4361540000000 1.0
C      1  0.4129310000000  0.4130680000000  0.4874810000000 1.0
C      1  0.5396520000000  0.5067620000000  0.5218050000000 1.0
C      1  0.4446760000000  0.5266470000000  0.6043180000000 1.0
C      1  0.4420590000000  0.3929770000000  0.5263680000000 1.0
C      1  0.5986690000000  0.4601360000000  0.5344090000000 1.0
C      1  0.5586680000000  0.3998530000000  0.4770020000000 1.0
C      1  0.5797960000000  0.5340540000000  0.4202720000000 1.0
C      1  0.4963540000000  0.6185110000000  0.4809150000000 1.0
C      1  0.5049130000000  0.4911190000000  0.5601050000000 1.0
C      1  0.4868070000000  0.5818240000000  0.4215560000000 1.0
C      1  0.4604700000000  0.6068820000000  0.5230650000000 1.0
C      1  0.5151070000000  0.5694700000000  0.5810220000000 1.0
C      1  0.4182240000000  0.4790770000000  0.4384990000000 1.0
C      1  0.4046840000000  0.5634470000000  0.4901000000000 1.0
C      1  0.4643800000000  0.5300910000000  0.4540790000000 1.0
C      1  0.4942430000000  0.5525830000000  0.5353900000000 1.0
C      1  0.4784230000000  0.5661700000000  0.4930930000000 1.0
C      1  0.5462780000000  0.4976000000000  0.4360760000000 1.0
C      1  0.5886300000000  0.5367960000000  0.4822370000000 1.0
C      1  0.4004920000000  0.4634170000000  0.5348190000000 1.0
C      1  0.5033830000000  0.4638970000000  0.4382300000000 1.0
C      1  0.4889060000000  0.5477920000000  0.6190690000000 1.0
C      1  0.4797980000000  0.5328570000000  0.5780340000000 1.0
C      1  0.4594170000000  0.5086970000000  0.5392150000000 1.0
C      1  0.4297790000000  0.5827940000000  0.4940320000000 1.0
C      1  0.4812870000000  0.4201920000000  0.5592440000000 1.0
C      1  0.5656170000000  0.4987480000000  0.4604730000000 1.0
C      1  0.4704060000000  0.5832760000000  0.5394080000000 1.0
C      1  0.4367090000000  0.5709960000000  0.5730340000000 1.0
C      1  0.4842680000000  0.4141810000000  0.5880900000000 1.0
C      1  0.4671960000000  0.4810360000000  0.4704460000000 1.0
C      1  0.4767970000000  0.4359810000000  0.4622110000000 1.0
C      1  0.5897880000000  0.5079770000000  0.4117580000000 1.0
C      1  0.5933530000000  0.5635450000000  0.4694040000000 1.0
C      1  0.5513370000000  0.5274340000000  0.4211800000000 1.0
C      1  0.4478590000000  0.4430310000000  0.4254950000000 1.0
C      1  0.4511490000000  0.5602160000000  0.5304250000000 1.0
C      1  0.4690940000000  0.4042730000000  0.4326880000000 1.0
C      1  0.5364230000000  0.5088490000000  0.3843370000000 1.0
C      1  0.4777040000000  0.5085700000000  0.4695670000000 1.0
C      1  0.6124550000000  0.5145830000000  0.4849130000000 1.0
C      1  0.4945150000000  0.5648880000000  0.3977460000000 1.0
C      1  0.5412750000000  0.3965230000000  0.5021290000000 1.0
C      1  0.5832350000000  0.5654280000000  0.5270620000000 1.0
C      1  0.4624440000000  0.5389310000000  0.6224100000000 1.0
C      1  0.4911230000000  0.5132920000000  0.4071320000000 1.0
C      1  0.4094390000000  0.5479180000000  0.5388530000000 1.0
C      1  0.5202070000000  0.5647180000000  0.5505970000000 1.0
C      1  0.5972200000000  0.4694020000000  0.4892320000000 1.0
C      1  0.5140150000000  0.5399130000000  0.4457150000000 1.0
C      1  0.4304790000000  0.4732040000000  0.3935860000000 1.0
C      1  0.5093950000000  0.4978240000000  0.3880490000000 1.0
C      1  0.4083480000000  0.5180490000000  0.4586480000000 1.0
C      1  0.4577410000000  0.5883990000000  0.4277180000000 1.0
C      1  0.4257000000000  0.5618600000000  0.4567310000000 1.0
C      1  0.5696670000000  0.4826060000000  0.4934930000000 1.0
C      1  0.5246430000000  0.3972010000000  0.5483700000000 1.0
C      1  0.5365240000000  0.5624020000000  0.5989780000000 1.0
C      1  0.4334830000000  0.4331700000000  0.5625450000000 1.0
C      1  0.4672830000000  0.4389760000000  0.4026650000000 1.0
C      1  0.4574510000000  0.3881120000000  0.4772100000000 1.0
C      1  0.4852930000000  0.5769600000000  0.4672720000000 1.0
C      1  0.5537920000000  0.4700070000000  0.5866600000000 1.0
C      1  0.5094390000000  0.4874850000000  0.6141510000000 1.0
C      1  0.4183730000000  0.5279170000000  0.5590830000000 1.0
C      1  0.4254650000000  0.5727130000000  0.5437980000000 1.0
C      1  0.5686650000000  0.4967730000000  0.5218770000000 1.0
C      1  0.4554030000000  0.5174170000000  0.5117640000000 1.0
C      1  0.5675900000000  0.4937920000000  0.3973280000000 1.0
C      1  0.5212200000000  0.5027860000000  0.4750920000000 1.0
C      1  0.5165840000000  0.6121180000000  0.5573550000000 1.0
C      1  0.5039420000000  0.5146000000000  0.4342180000000 1.0
C      1  0.5138430000000  0.4616900000000  0.5701230000000 1.0
C      1  0.4378390000000  0.4098720000000  0.4691400000000 1.0
C      1  0.4004350000000  0.5466400000000  0.4604290000000 1.0
C      1  0.4953920000000  0.4468840000000  0.4825980000000 1.0
C      1  0.5334440000000  0.5522150000000  0.4254620000000 1.0
C      1  0.4934300000000  0.4899530000000  0.5109320000000 1.0
C      1  0.5089800000000  0.5988880000000  0.5813250000000 1.0
C      1  0.4563170000000  0.4832840000000  0.3900100000000 1.0
C      1  0.5261380000000  0.3921390000000  0.5756480000000 1.0
C      1  0.4764380000000  0.6153810000000  0.5009940000000 1.0
C      1  0.5901240000000  0.4343690000000  0.5215090000000 1.0
C      1  0.5196140000000  0.4473220000000  0.5444260000000 1.0
C      1  0.5468330000000  0.4521180000000  0.5308210000000 1.0
C      1  0.4845080000000  0.4579090000000  0.5810860000000 1.0
C      1  0.5445250000000  0.4643410000000  0.5004030000000 1.0
C      1  0.5099130000000  0.5265100000000  0.6169160000000 1.0
C      1  0.4462630000000  0.4983850000000  0.6051440000000 1.0
C      1  0.5677240000000  0.4295150000000  0.4729150000000 1.0
C      1  0.4252730000000  0.4803770000000  0.5696070000000 1.0
C      1  0.4203550000000  0.5076980000000  0.4339280000000 1.0
C      1  0.6146500000000  0.5057540000000  0.5143850000000 1.0
C      1  0.5916770000000  0.4948010000000  0.4465680000000 1.0
C      1  0.5414660000000  0.3984570000000  0.4506750000000 1.0
C      1  0.4158110000000  0.4273260000000  0.5143200000000 1.0
C      1  0.4804480000000  0.5966030000000  0.5881840000000 1.0
C      1  0.4834860000000  0.4899390000000  0.5392210000000 1.0
C      1  0.4289540000000  0.5205350000000  0.4978910000000 1.0
C      1  0.5177590000000  0.4918840000000  0.4464490000000 1.0
C      1  0.4691420000000  0.4332090000000  0.6065760000000 1.0
C      1  0.4091030000000  0.5406470000000  0.5099610000000 1.0
C      1  0.5291150000000  0.5022000000000  0.5485500000000 1.0
C      1  0.4700350000000  0.5357100000000  0.5502360000000 1.0
C      1  0.4760110000000  0.4619090000000  0.3851070000000 1.0
C      1  0.5060860000000  0.4201130000000  0.5425910000000 1.0
C      1  0.5899330000000  0.5177160000000  0.5275190000000 1.0
C      1  0.4867320000000  0.4204530000000  0.4141640000000 1.0
C      1  0.5148920000000  0.4141120000000  0.4526940000000 1.0
C      1  0.6100500000000  0.4893970000000  0.4683350000000 1.0
C      1  0.5726480000000  0.5851270000000  0.4314770000000 1.0
C      1  0.3971140000000  0.4960390000000  0.4758180000000 1.0
C      1  0.4777300000000  0.5406110000000  0.3982370000000 1.0
C      1  0.4273950000000  0.5013180000000  0.5485180000000 1.0
C      1  0.5734530000000  0.4329040000000  0.4429630000000 1.0
C      1  0.4618670000000  0.4426560000000  0.5534770000000 1.0
C      1  0.5123710000000  0.5923070000000  0.4730390000000 1.0
C      1  0.5727420000000  0.4737350000000  0.5419040000000 1.0
C      1  0.4661180000000  0.4985940000000  0.4125760000000 1.0
C      1  0.5275580000000  0.5987330000000  0.4471280000000 1.0
C      1  0.4840730000000  0.6197550000000  0.4525860000000 1.0
C      1  0.5827630000000  0.5848070000000  0.4849050000000 1.0
C      1  0.5132630000000  0.4092730000000  0.5940980000000 1.0
C      1  0.5297430000000  0.5776520000000  0.4931210000000 1.0
C      1  0.5290280000000  0.5917610000000  0.5421860000000 1.0
C      1  0.3982470000000  0.4715400000000  0.4585080000000 1.0
C      1  0.5737130000000  0.4580160000000  0.4302010000000 1.0
C      1  0.4364260000000  0.5410410000000  0.5787450000000 1.0
C      1  0.4257170000000  0.4126230000000  0.5381460000000 1.0
C      1  0.4499010000000  0.5428240000000  0.4115260000000 1.0
C      1  0.4977890000000  0.5097240000000  0.5842660000000 1.0
C      1  0.5906300000000  0.4392300000000  0.4912670000000 1.0
END
