TITL C-950528-5794-567 -3.42699896414968e-06 125000 -482.012924603269 0 0 80 (C1) n - 1
REM
REM in /home/bkarasulu/work/CARBON/AIRSS/Generating-Clusters/EDIP-Nigel-Params/with-SteepDescent/Only-C1/SD-CG/HFTN-CG
REM
REM
REM
REM
REM
REM ./C.cell (11c1c37f851c82e70ff6c80c92926a4b)
REM
REM compiler GCC version 9.2.1 20190827 (Red Hat 9.2.1-1)
REM options -cpp -mtune=generic -march=x86-64 -g -O0 -fpre-include=/usr/include/finclude/math-vector-fortran.h
REM seed 1398050553 2080738053 -1203850802 364201027 -411107209 749215069 946127638 -702160497 -1072206306 -1373927466 -1504075472 1255414912 1646625704 1972391667 -1194722523 -1771523387 90284958 687215301 -815871908 1233859287 -59528923 1955605395 -359469833 -1240323147 974676548 -1691857998 152308728 873342524 -2008098923 -2022511662 1496959179 371055890 195720311
REM
CELL 1.54180   50.00000   50.00000   50.00000   90.00000   90.00000   90.00000
LATT -1
SFAC C  
C      1  0.4249140000000  0.4947050000000  0.4723350000000 1.0
C      1  0.5009870000000  0.4409990000000  0.5191180000000 1.0
C      1  0.5343230000000  0.5029170000000  0.4476890000000 1.0
C      1  0.4445500000000  0.5452190000000  0.5220460000000 1.0
C      1  0.4606800000000  0.5706450000000  0.5222010000000 1.0
C      1  0.4944030000000  0.4668630000000  0.4540490000000 1.0
C      1  0.4844880000000  0.4649200000000  0.5299250000000 1.0
C      1  0.5612950000000  0.5074380000000  0.4604560000000 1.0
C      1  0.4855850000000  0.5556260000000  0.5325990000000 1.0
C      1  0.5288470000000  0.5749220000000  0.4680770000000 1.0
C      1  0.5081060000000  0.5023880000000  0.5692840000000 1.0
C      1  0.4715050000000  0.5252960000000  0.4215500000000 1.0
C      1  0.5575180000000  0.4917440000000  0.5658390000000 1.0
C      1  0.5150180000000  0.4666430000000  0.4321360000000 1.0
C      1  0.4636380000000  0.4636330000000  0.5715590000000 1.0
C      1  0.5442000000000  0.4472730000000  0.5138470000000 1.0
C      1  0.4516710000000  0.5117640000000  0.5598530000000 1.0
C      1  0.5761090000000  0.4858510000000  0.5072310000000 1.0
C      1  0.4649720000000  0.5809650000000  0.4939190000000 1.0
C      1  0.4821460000000  0.5504370000000  0.4642680000000 1.0
C      1  0.5467250000000  0.5575750000000  0.5128920000000 1.0
C      1  0.5217560000000  0.4470740000000  0.5614200000000 1.0
C      1  0.5201870000000  0.5412350000000  0.4306050000000 1.0
C      1  0.4639030000000  0.5190780000000  0.4904020000000 1.0
C      1  0.4417330000000  0.4971720000000  0.4487220000000 1.0
C      1  0.4530250000000  0.4533550000000  0.4975290000000 1.0
C      1  0.5062910000000  0.4047840000000  0.5057400000000 1.0
C      1  0.4485600000000  0.5236150000000  0.4396090000000 1.0
C      1  0.4587220000000  0.5214590000000  0.5346170000000 1.0
C      1  0.4754660000000  0.4449910000000  0.4520020000000 1.0
C      1  0.5348700000000  0.5486340000000  0.4564360000000 1.0
C      1  0.5669720000000  0.4621960000000  0.5255220000000 1.0
C      1  0.5573870000000  0.5339460000000  0.4705830000000 1.0
C      1  0.4564110000000  0.4900370000000  0.5747990000000 1.0
C      1  0.5044850000000  0.5886310000000  0.4619270000000 1.0
C      1  0.5295820000000  0.4472700000000  0.4858590000000 1.0
C      1  0.5205760000000  0.5244320000000  0.5331480000000 1.0
C      1  0.5289950000000  0.5139000000000  0.4196810000000 1.0
C      1  0.4779540000000  0.5175950000000  0.4637980000000 1.0
C      1  0.5078450000000  0.4905280000000  0.4149150000000 1.0
C      1  0.4921070000000  0.5899560000000  0.4874640000000 1.0
C      1  0.5424020000000  0.4667470000000  0.4414530000000 1.0
C      1  0.5556510000000  0.5112560000000  0.5432640000000 1.0
C      1  0.5340520000000  0.4989600000000  0.5080100000000 1.0
C      1  0.4549960000000  0.5602130000000  0.4752740000000 1.0
C      1  0.5055520000000  0.5431470000000  0.4891260000000 1.0
C      1  0.5735480000000  0.5136220000000  0.5192030000000 1.0
C      1  0.4194090000000  0.5187080000000  0.4871310000000 1.0
C      1  0.5339250000000  0.4978150000000  0.5795030000000 1.0
C      1  0.5167090000000  0.5688030000000  0.5511150000000 1.0
C      1  0.4901210000000  0.5464840000000  0.4326170000000 1.0
C      1  0.4594700000000  0.4539960000000  0.5437540000000 1.0
C      1  0.5592920000000  0.5339200000000  0.5004180000000 1.0
C      1  0.4815500000000  0.4243110000000  0.4720550000000 1.0
C      1  0.5041640000000  0.4674230000000  0.4836150000000 1.0
C      1  0.4344520000000  0.4600780000000  0.5199400000000 1.0
C      1  0.5256450000000  0.4389020000000  0.5343190000000 1.0
C      1  0.5015690000000  0.4865510000000  0.5445480000000 1.0
C      1  0.5556950000000  0.4640540000000  0.5549040000000 1.0
C      1  0.4631880000000  0.4251740000000  0.4962780000000 1.0
C      1  0.5359820000000  0.5503220000000  0.5394360000000 1.0
C      1  0.5107640000000  0.5134340000000  0.4686920000000 1.0
C      1  0.4612880000000  0.4780230000000  0.4370750000000 1.0
C      1  0.4933890000000  0.4402990000000  0.5688140000000 1.0
C      1  0.5228940000000  0.5681400000000  0.4963410000000 1.0
C      1  0.5121150000000  0.4944030000000  0.4900120000000 1.0
C      1  0.4752450000000  0.4735960000000  0.5036740000000 1.0
C      1  0.4968130000000  0.5334160000000  0.5160910000000 1.0
C      1  0.5506640000000  0.4597620000000  0.4683250000000 1.0
C      1  0.5594990000000  0.4857270000000  0.4816260000000 1.0
C      1  0.5107990000000  0.4203260000000  0.4814070000000 1.0
C      1  0.4310920000000  0.4897060000000  0.5097440000000 1.0
C      1  0.4727210000000  0.4264740000000  0.5492860000000 1.0
C      1  0.4936310000000  0.5547740000000  0.5628000000000 1.0
C      1  0.5291770000000  0.4830810000000  0.5342130000000 1.0
C      1  0.4812090000000  0.4974860000000  0.4249150000000 1.0
C      1  0.4814170000000  0.4161740000000  0.5194380000000 1.0
C      1  0.4421380000000  0.5382570000000  0.4925300000000 1.0
C      1  0.4994810000000  0.5288100000000  0.5713670000000 1.0
C      1  0.4597820000000  0.4999160000000  0.5120340000000 1.0
END
