TITL C-950533-5798-167 -3.79841741249951e-06 125000 -1169.13993053471 0 0 186 (C1) n - 1
REM
REM in /home/bkarasulu/work/CARBON/AIRSS/Generating-Clusters/EDIP-Nigel-Params/with-SteepDescent/Only-C1/SD-CG/HFTN-CG
REM
REM
REM
REM
REM
REM ./C.cell (11c1c37f851c82e70ff6c80c92926a4b)
REM
REM compiler GCC version 9.2.1 20190827 (Red Hat 9.2.1-1)
REM options -cpp -mtune=generic -march=x86-64 -g -O0 -fpre-include=/usr/include/finclude/math-vector-fortran.h
REM seed -126919097 -1373120956 -432574738 298171509 266564998 435778966 1871301525 685635172 1084014582 475380989 527720574 498409336 2059720506 -1749599655 -905723044 541163974 1437708167 -232642417 1602111553 -376944683 -1714692988 1935084941 882554662 1823690511 1750949976 600911546 -1902988847 368179773 1389754186 107525605 -209205204 -761842348 -283134857
REM
CELL 1.54180   50.00000   50.00000   50.00000   90.00000   90.00000   90.00000
LATT -1
SFAC C  
C      1  0.4919220000000  0.5211940000000  0.6123830000000 1.0
C      1  0.5382250000000  0.5777530000000  0.5853530000000 1.0
C      1  0.5658730000000  0.5348180000000  0.5198840000000 1.0
C      1  0.4776400000000  0.3963840000000  0.5446810000000 1.0
C      1  0.4955600000000  0.5467990000000  0.5012930000000 1.0
C      1  0.4357130000000  0.5274270000000  0.4968520000000 1.0
C      1  0.5760670000000  0.5182080000000  0.5701720000000 1.0
C      1  0.5955140000000  0.5393250000000  0.5241660000000 1.0
C      1  0.4899050000000  0.4400230000000  0.5675940000000 1.0
C      1  0.5341490000000  0.5554090000000  0.6044140000000 1.0
C      1  0.5926220000000  0.5619490000000  0.5424610000000 1.0
C      1  0.5827580000000  0.5808860000000  0.4995170000000 1.0
C      1  0.4618080000000  0.4809880000000  0.5506980000000 1.0
C      1  0.5220340000000  0.5402560000000  0.5172600000000 1.0
C      1  0.5712640000000  0.5684470000000  0.4768500000000 1.0
C      1  0.5358380000000  0.6023280000000  0.4832960000000 1.0
C      1  0.5716830000000  0.5179130000000  0.5999880000000 1.0
C      1  0.5524320000000  0.5845350000000  0.5374930000000 1.0
C      1  0.5122300000000  0.5921550000000  0.5815360000000 1.0
C      1  0.4820020000000  0.5274080000000  0.4597640000000 1.0
C      1  0.5678490000000  0.4898780000000  0.5069540000000 1.0
C      1  0.5090320000000  0.4842810000000  0.5604930000000 1.0
C      1  0.5047280000000  0.5636980000000  0.4794560000000 1.0
C      1  0.4092590000000  0.4857940000000  0.4737350000000 1.0
C      1  0.5476740000000  0.4657470000000  0.3884460000000 1.0
C      1  0.4645840000000  0.5337470000000  0.4050740000000 1.0
C      1  0.4991760000000  0.5715960000000  0.5425040000000 1.0
C      1  0.4832920000000  0.4972270000000  0.5044580000000 1.0
C      1  0.4320510000000  0.4066540000000  0.4528440000000 1.0
C      1  0.4023740000000  0.4863320000000  0.5241330000000 1.0
C      1  0.3944470000000  0.5009890000000  0.4967650000000 1.0
C      1  0.4296730000000  0.5333440000000  0.5508280000000 1.0
C      1  0.4410920000000  0.5988760000000  0.4945830000000 1.0
C      1  0.4552860000000  0.4419760000000  0.5302060000000 1.0
C      1  0.5416310000000  0.4261800000000  0.5685550000000 1.0
C      1  0.4404190000000  0.4902350000000  0.5318280000000 1.0
C      1  0.4958240000000  0.4713010000000  0.4447100000000 1.0
C      1  0.5217300000000  0.4599210000000  0.5224120000000 1.0
C      1  0.4920580000000  0.5718790000000  0.5923890000000 1.0
C      1  0.6052540000000  0.4958510000000  0.4601630000000 1.0
C      1  0.5660490000000  0.4692150000000  0.5539920000000 1.0
C      1  0.4536500000000  0.5145480000000  0.5187880000000 1.0
C      1  0.4055910000000  0.5274520000000  0.4917500000000 1.0
C      1  0.5940860000000  0.4779020000000  0.5468550000000 1.0
C      1  0.5623170000000  0.4948360000000  0.4505450000000 1.0
C      1  0.4429500000000  0.5272740000000  0.5954430000000 1.0
C      1  0.4544060000000  0.4838480000000  0.4522510000000 1.0
C      1  0.5243840000000  0.4880230000000  0.4811000000000 1.0
C      1  0.4029240000000  0.5279160000000  0.4610170000000 1.0
C      1  0.5556600000000  0.4997340000000  0.5559560000000 1.0
C      1  0.4577470000000  0.4848670000000  0.4028940000000 1.0
C      1  0.4152190000000  0.5569190000000  0.5463280000000 1.0
C      1  0.5884270000000  0.4925440000000  0.4343210000000 1.0
C      1  0.5510050000000  0.5343990000000  0.4348950000000 1.0
C      1  0.4618810000000  0.4519720000000  0.5590770000000 1.0
C      1  0.5887530000000  0.5475030000000  0.4627050000000 1.0
C      1  0.5066230000000  0.5441760000000  0.5954280000000 1.0
C      1  0.4624440000000  0.4816650000000  0.6039990000000 1.0
C      1  0.4988920000000  0.4154370000000  0.4288360000000 1.0
C      1  0.4114380000000  0.4705300000000  0.4318880000000 1.0
C      1  0.4507810000000  0.4047270000000  0.5376980000000 1.0
C      1  0.4283800000000  0.5753330000000  0.4814940000000 1.0
C      1  0.5163810000000  0.4573140000000  0.5536430000000 1.0
C      1  0.6010430000000  0.5042790000000  0.5597260000000 1.0
C      1  0.5205250000000  0.5054110000000  0.4579770000000 1.0
C      1  0.4483080000000  0.5543890000000  0.5913900000000 1.0
C      1  0.5246770000000  0.3942090000000  0.5352450000000 1.0
C      1  0.4243870000000  0.5158090000000  0.5750410000000 1.0
C      1  0.4861120000000  0.4951920000000  0.5484290000000 1.0
C      1  0.4884490000000  0.3879550000000  0.4969660000000 1.0
C      1  0.4059350000000  0.4712980000000  0.5514200000000 1.0
C      1  0.4151280000000  0.5385380000000  0.4204940000000 1.0
C      1  0.5219290000000  0.4036670000000  0.5627550000000 1.0
C      1  0.5288030000000  0.4963500000000  0.4304880000000 1.0
C      1  0.4776470000000  0.5752820000000  0.4248480000000 1.0
C      1  0.4878180000000  0.4552390000000  0.4685070000000 1.0
C      1  0.4179730000000  0.4176210000000  0.5009990000000 1.0
C      1  0.4925230000000  0.4098080000000  0.5664790000000 1.0
C      1  0.5445930000000  0.4926650000000  0.3807420000000 1.0
C      1  0.5711900000000  0.4277230000000  0.4593700000000 1.0
C      1  0.5591740000000  0.4953430000000  0.6105400000000 1.0
C      1  0.4800750000000  0.4484380000000  0.5118490000000 1.0
C      1  0.5302420000000  0.4450430000000  0.5881130000000 1.0
C      1  0.5051870000000  0.3893430000000  0.4734900000000 1.0
C      1  0.4760730000000  0.4306640000000  0.4197830000000 1.0
C      1  0.5797110000000  0.5844490000000  0.5273160000000 1.0
C      1  0.4860060000000  0.5536010000000  0.4069820000000 1.0
C      1  0.4876260000000  0.6182100000000  0.5405470000000 1.0
C      1  0.5505270000000  0.4026740000000  0.4958550000000 1.0
C      1  0.4555530000000  0.5429980000000  0.4589260000000 1.0
C      1  0.5459180000000  0.4090810000000  0.5232940000000 1.0
C      1  0.4792240000000  0.4985640000000  0.4431960000000 1.0
C      1  0.4661020000000  0.5713210000000  0.5780760000000 1.0
C      1  0.5206520000000  0.5512450000000  0.5464300000000 1.0
C      1  0.5985360000000  0.4684720000000  0.4723640000000 1.0
C      1  0.5113380000000  0.5403450000000  0.4111620000000 1.0
C      1  0.4873980000000  0.5862190000000  0.4721570000000 1.0
C      1  0.4413630000000  0.5482080000000  0.4158230000000 1.0
C      1  0.5102280000000  0.5309780000000  0.5670650000000 1.0
C      1  0.4420760000000  0.4681380000000  0.5878290000000 1.0
C      1  0.5466600000000  0.5651810000000  0.5587810000000 1.0
C      1  0.3980030000000  0.4920810000000  0.4472460000000 1.0
C      1  0.4903580000000  0.4727620000000  0.6072060000000 1.0
C      1  0.5349550000000  0.5546330000000  0.4214920000000 1.0
C      1  0.5993290000000  0.4589510000000  0.5008410000000 1.0
C      1  0.5548610000000  0.5083370000000  0.5269470000000 1.0
C      1  0.5509630000000  0.4653890000000  0.4514020000000 1.0
C      1  0.5072280000000  0.4387780000000  0.5076570000000 1.0
C      1  0.5275780000000  0.5121210000000  0.5205580000000 1.0
C      1  0.5281030000000  0.5037560000000  0.5705390000000 1.0
C      1  0.4137280000000  0.4200040000000  0.4720930000000 1.0
C      1  0.5204870000000  0.4320970000000  0.4448790000000 1.0
C      1  0.4114340000000  0.4615610000000  0.5044710000000 1.0
C      1  0.5324890000000  0.5318320000000  0.4595830000000 1.0
C      1  0.4615670000000  0.3956210000000  0.4900970000000 1.0
C      1  0.5882130000000  0.4504110000000  0.4516190000000 1.0
C      1  0.5574640000000  0.5404350000000  0.6079840000000 1.0
C      1  0.4079430000000  0.4430920000000  0.5464550000000 1.0
C      1  0.4620950000000  0.6239680000000  0.5495470000000 1.0
C      1  0.5015800000000  0.4478970000000  0.5945250000000 1.0
C      1  0.4274480000000  0.4254730000000  0.4306030000000 1.0
C      1  0.5024540000000  0.4706490000000  0.3814990000000 1.0
C      1  0.5491270000000  0.5348330000000  0.4889380000000 1.0
C      1  0.4509400000000  0.5653510000000  0.4376350000000 1.0
C      1  0.4687700000000  0.4345260000000  0.4632940000000 1.0
C      1  0.4233410000000  0.4847930000000  0.5720340000000 1.0
C      1  0.4881690000000  0.3953170000000  0.4493740000000 1.0
C      1  0.4427790000000  0.4715680000000  0.4267400000000 1.0
C      1  0.5482060000000  0.5845540000000  0.4647450000000 1.0
C      1  0.4990250000000  0.5851560000000  0.4428420000000 1.0
C      1  0.5615790000000  0.4538440000000  0.4107590000000 1.0
C      1  0.5165860000000  0.4967980000000  0.3821510000000 1.0
C      1  0.4401480000000  0.4662930000000  0.5130820000000 1.0
C      1  0.4849320000000  0.5223980000000  0.4885640000000 1.0
C      1  0.5211170000000  0.6091090000000  0.5071280000000 1.0
C      1  0.5063440000000  0.5476240000000  0.4546400000000 1.0
C      1  0.5140250000000  0.4414760000000  0.4777900000000 1.0
C      1  0.4697950000000  0.5662230000000  0.5477800000000 1.0
C      1  0.5776630000000  0.5415450000000  0.4379630000000 1.0
C      1  0.4334260000000  0.5226540000000  0.4511520000000 1.0
C      1  0.4912780000000  0.6140620000000  0.5113140000000 1.0
C      1  0.4038880000000  0.5545400000000  0.4429950000000 1.0
C      1  0.5329320000000  0.3902290000000  0.4777810000000 1.0
C      1  0.4611010000000  0.5360370000000  0.5427520000000 1.0
C      1  0.4428790000000  0.4052650000000  0.5101660000000 1.0
C      1  0.5093310000000  0.5098310000000  0.4081900000000 1.0
C      1  0.5556100000000  0.4404030000000  0.5425600000000 1.0
C      1  0.5082660000000  0.4957140000000  0.6159110000000 1.0
C      1  0.5232170000000  0.4623870000000  0.4311610000000 1.0
C      1  0.5514660000000  0.4265200000000  0.4141060000000 1.0
C      1  0.4718200000000  0.4716410000000  0.4912600000000 1.0
C      1  0.5330000000000  0.4963780000000  0.5994970000000 1.0
C      1  0.4974530000000  0.3934240000000  0.5239480000000 1.0
C      1  0.4070980000000  0.4430300000000  0.4420810000000 1.0
C      1  0.5749970000000  0.4411260000000  0.5087930000000 1.0
C      1  0.4480970000000  0.5532190000000  0.4873600000000 1.0
C      1  0.5955080000000  0.5205910000000  0.4766750000000 1.0
C      1  0.5131830000000  0.4899950000000  0.5083710000000 1.0
C      1  0.5306580000000  0.5788790000000  0.4397480000000 1.0
C      1  0.4273490000000  0.6022250000000  0.5206820000000 1.0
C      1  0.5532450000000  0.4628910000000  0.5046610000000 1.0
C      1  0.5726350000000  0.5487290000000  0.5612000000000 1.0
C      1  0.4366780000000  0.4988760000000  0.4703270000000 1.0
C      1  0.5369040000000  0.4623840000000  0.4779250000000 1.0
C      1  0.6100420000000  0.5194810000000  0.5380640000000 1.0
C      1  0.4762240000000  0.5060920000000  0.4132830000000 1.0
C      1  0.5859540000000  0.4635800000000  0.4248010000000 1.0
C      1  0.4834420000000  0.5216690000000  0.5568050000000 1.0
C      1  0.4034540000000  0.4369940000000  0.5187340000000 1.0
C      1  0.5229880000000  0.4506890000000  0.3886490000000 1.0
C      1  0.4709020000000  0.5638440000000  0.5095970000000 1.0
C      1  0.5249030000000  0.4245880000000  0.4020860000000 1.0
C      1  0.4748640000000  0.4698620000000  0.3870170000000 1.0
C      1  0.4722880000000  0.5933060000000  0.4975730000000 1.0
C      1  0.4383920000000  0.6206710000000  0.5380470000000 1.0
C      1  0.5697230000000  0.4211520000000  0.4873150000000 1.0
C      1  0.5322690000000  0.6045280000000  0.5340910000000 1.0
C      1  0.5540350000000  0.4149560000000  0.4404020000000 1.0
C      1  0.4503950000000  0.4421520000000  0.4237420000000 1.0
C      1  0.5960500000000  0.4830690000000  0.5172710000000 1.0
C      1  0.4616670000000  0.4065440000000  0.4622090000000 1.0
C      1  0.4240640000000  0.5761060000000  0.4517290000000 1.0
C      1  0.4153910000000  0.5794390000000  0.5317700000000 1.0
C      1  0.5676410000000  0.5082870000000  0.4805440000000 1.0
C      1  0.5079850000000  0.5982710000000  0.5513600000000 1.0
C      1  0.4651140000000  0.5106470000000  0.6040380000000 1.0
END
