TITL C-951335-1172-109 -1.493512784352e-07 125000 -764.438517342661 0 0 124 (C1) n - 1
REM
REM in /home/bkarasulu/work/CARBON/AIRSS/Generating-Clusters/EDIP-Nigel-Params/with-SteepDescent/Only-C1/SD-CG/HFTN-CG
REM
REM
REM
REM
REM
REM ./C.cell (11c1c37f851c82e70ff6c80c92926a4b)
REM
REM compiler GCC version 9.2.1 20190827 (Red Hat 9.2.1-1)
REM options -cpp -mtune=generic -march=x86-64 -g -O0 -fpre-include=/usr/include/finclude/math-vector-fortran.h
REM seed -1078113690 122620811 1678452786 1866278939 -374400888 -766382680 -723056434 770262633 97957808 -560107963 -202981259 1602991108 533600327 407359093 -986625611 -2006047038 -474389842 962121074 872943607 1574543257 380775584 1223729283 -742361148 348845155 1302417801 512144560 1838241745 -1053078045 1780564734 2012889790 -257397549 -911925795 -1264680828
REM
CELL 1.54180   50.00000   50.00000   50.00000   90.00000   90.00000   90.00000
LATT -1
SFAC C  
C      1  0.5583570000000  0.4704840000000  0.5591020000000 1.0
C      1  0.5015710000000  0.4637110000000  0.4621360000000 1.0
C      1  0.4610670000000  0.4196400000000  0.5632610000000 1.0
C      1  0.4587000000000  0.4045950000000  0.5413020000000 1.0
C      1  0.5217160000000  0.4896050000000  0.5045600000000 1.0
C      1  0.5527880000000  0.5525850000000  0.4448030000000 1.0
C      1  0.5229920000000  0.4365780000000  0.5736870000000 1.0
C      1  0.5208150000000  0.5347050000000  0.5828880000000 1.0
C      1  0.5236980000000  0.5440480000000  0.4373670000000 1.0
C      1  0.4744580000000  0.4478870000000  0.4273360000000 1.0
C      1  0.5114080000000  0.4017300000000  0.4893230000000 1.0
C      1  0.5457980000000  0.5471670000000  0.5839460000000 1.0
C      1  0.5205350000000  0.4706470000000  0.4182320000000 1.0
C      1  0.5178250000000  0.5370260000000  0.5319200000000 1.0
C      1  0.4537530000000  0.4968640000000  0.5531070000000 1.0
C      1  0.4684690000000  0.4460560000000  0.5663630000000 1.0
C      1  0.5679560000000  0.5302990000000  0.4577470000000 1.0
C      1  0.4111730000000  0.4382080000000  0.5102520000000 1.0
C      1  0.5131930000000  0.5145440000000  0.6011940000000 1.0
C      1  0.4203380000000  0.4617690000000  0.5252240000000 1.0
C      1  0.4202320000000  0.4748550000000  0.4645660000000 1.0
C      1  0.4987840000000  0.4019990000000  0.5149630000000 1.0
C      1  0.5904360000000  0.5348650000000  0.4779760000000 1.0
C      1  0.4505700000000  0.5321570000000  0.4393120000000 1.0
C      1  0.5767980000000  0.4943900000000  0.5618070000000 1.0
C      1  0.5423910000000  0.4591020000000  0.5821730000000 1.0
C      1  0.5232020000000  0.5796720000000  0.5467110000000 1.0
C      1  0.4223910000000  0.5217600000000  0.4479460000000 1.0
C      1  0.5054420000000  0.6044190000000  0.4913160000000 1.0
C      1  0.5640090000000  0.4578100000000  0.4424140000000 1.0
C      1  0.5461090000000  0.5785490000000  0.4876470000000 1.0
C      1  0.5179590000000  0.5256410000000  0.4615850000000 1.0
C      1  0.5570630000000  0.5623450000000  0.5089420000000 1.0
C      1  0.4665510000000  0.5186850000000  0.4073510000000 1.0
C      1  0.4587900000000  0.5949130000000  0.4865040000000 1.0
C      1  0.5035910000000  0.4664760000000  0.5416730000000 1.0
C      1  0.4634680000000  0.5133440000000  0.5793340000000 1.0
C      1  0.4705530000000  0.4051960000000  0.5163630000000 1.0
C      1  0.4947210000000  0.5767500000000  0.5479690000000 1.0
C      1  0.4892430000000  0.5363170000000  0.4043400000000 1.0
C      1  0.4127130000000  0.4947260000000  0.4869270000000 1.0
C      1  0.4265570000000  0.5768880000000  0.5285270000000 1.0
C      1  0.5546080000000  0.4570380000000  0.5307240000000 1.0
C      1  0.4099510000000  0.5542580000000  0.5186290000000 1.0
C      1  0.4121160000000  0.5482010000000  0.4897360000000 1.0
C      1  0.4987230000000  0.5438580000000  0.5087690000000 1.0
C      1  0.5520010000000  0.5210470000000  0.4932230000000 1.0
C      1  0.4294010000000  0.4928160000000  0.4433570000000 1.0
C      1  0.5563930000000  0.5453380000000  0.5583700000000 1.0
C      1  0.5212280000000  0.4374630000000  0.5011610000000 1.0
C      1  0.4494760000000  0.4668410000000  0.5585510000000 1.0
C      1  0.5018660000000  0.5350600000000  0.5589920000000 1.0
C      1  0.4831160000000  0.5616020000000  0.4176630000000 1.0
C      1  0.5246320000000  0.4616850000000  0.5207240000000 1.0
C      1  0.5402540000000  0.5581170000000  0.5362230000000 1.0
C      1  0.5488090000000  0.4729290000000  0.4226650000000 1.0
C      1  0.5817920000000  0.5509610000000  0.5000340000000 1.0
C      1  0.5698540000000  0.4596380000000  0.5026940000000 1.0
C      1  0.4717570000000  0.4738820000000  0.4691930000000 1.0
C      1  0.5650990000000  0.5163010000000  0.5203200000000 1.0
C      1  0.5040340000000  0.4510770000000  0.4355050000000 1.0
C      1  0.4974010000000  0.4538400000000  0.5679350000000 1.0
C      1  0.5184110000000  0.4260690000000  0.4457200000000 1.0
C      1  0.4348800000000  0.5457770000000  0.5586750000000 1.0
C      1  0.5480900000000  0.4388910000000  0.4599290000000 1.0
C      1  0.4331900000000  0.5087760000000  0.5273190000000 1.0
C      1  0.5766350000000  0.4808300000000  0.4563810000000 1.0
C      1  0.5268900000000  0.4557500000000  0.4765690000000 1.0
C      1  0.4801680000000  0.5641860000000  0.5704630000000 1.0
C      1  0.5074130000000  0.4941980000000  0.5465640000000 1.0
C      1  0.4999890000000  0.4127500000000  0.4655630000000 1.0
C      1  0.5539170000000  0.4271200000000  0.5342990000000 1.0
C      1  0.5349080000000  0.5010920000000  0.4577540000000 1.0
C      1  0.4596660000000  0.4905730000000  0.4452300000000 1.0
C      1  0.4161020000000  0.5225050000000  0.4769130000000 1.0
C      1  0.4460470000000  0.4557330000000  0.5101800000000 1.0
C      1  0.4204330000000  0.5338680000000  0.5376120000000 1.0
C      1  0.4822240000000  0.5080790000000  0.5401670000000 1.0
C      1  0.4537260000000  0.4794000000000  0.4932590000000 1.0
C      1  0.5060350000000  0.4961860000000  0.4154870000000 1.0
C      1  0.5643920000000  0.4346690000000  0.4867790000000 1.0
C      1  0.5253550000000  0.5398650000000  0.4879530000000 1.0
C      1  0.4235170000000  0.4579850000000  0.5537230000000 1.0
C      1  0.4622140000000  0.4740660000000  0.4200490000000 1.0
C      1  0.4532970000000  0.5633270000000  0.5224280000000 1.0
C      1  0.4297990000000  0.4242420000000  0.4939390000000 1.0
C      1  0.4813850000000  0.5976720000000  0.5051320000000 1.0
C      1  0.5973040000000  0.4701190000000  0.4997180000000 1.0
C      1  0.4681730000000  0.5956350000000  0.4590850000000 1.0
C      1  0.5174780000000  0.5782540000000  0.4883060000000 1.0
C      1  0.5437990000000  0.4898630000000  0.4842530000000 1.0
C      1  0.4123410000000  0.4894980000000  0.5167090000000 1.0
C      1  0.5648140000000  0.5188520000000  0.5489770000000 1.0
C      1  0.4824300000000  0.5716890000000  0.5211870000000 1.0
C      1  0.4941670000000  0.4963890000000  0.4916630000000 1.0
C      1  0.4922740000000  0.5117590000000  0.4654800000000 1.0
C      1  0.5321900000000  0.4175140000000  0.5519430000000 1.0
C      1  0.4975220000000  0.5889400000000  0.4569880000000 1.0
C      1  0.4579610000000  0.4370970000000  0.4497960000000 1.0
C      1  0.5264440000000  0.4782930000000  0.5982040000000 1.0
C      1  0.5135920000000  0.4008270000000  0.5385870000000 1.0
C      1  0.4338390000000  0.4500820000000  0.4582910000000 1.0
C      1  0.4788650000000  0.4930890000000  0.4056250000000 1.0
C      1  0.4987130000000  0.4743160000000  0.5901410000000 1.0
C      1  0.5615990000000  0.5033110000000  0.4434300000000 1.0
C      1  0.4554270000000  0.5607380000000  0.4282510000000 1.0
C      1  0.5473630000000  0.4201810000000  0.5059320000000 1.0
C      1  0.5983910000000  0.4893940000000  0.5444630000000 1.0
C      1  0.5156820000000  0.5249360000000  0.4130380000000 1.0
C      1  0.5277920000000  0.5078920000000  0.5283750000000 1.0
C      1  0.4654790000000  0.5239360000000  0.4659650000000 1.0
C      1  0.6057980000000  0.4908280000000  0.5179100000000 1.0
C      1  0.6005020000000  0.4844440000000  0.4741540000000 1.0
C      1  0.5554070000000  0.5744840000000  0.4616800000000 1.0
C      1  0.4431720000000  0.5703910000000  0.4940330000000 1.0
C      1  0.4599620000000  0.5420970000000  0.5707960000000 1.0
C      1  0.5040360000000  0.5674880000000  0.4370710000000 1.0
C      1  0.4806340000000  0.5165790000000  0.5105060000000 1.0
C      1  0.4907970000000  0.5023530000000  0.5866660000000 1.0
C      1  0.4495250000000  0.5837930000000  0.4422380000000 1.0
C      1  0.4722070000000  0.4215300000000  0.4692880000000 1.0
C      1  0.4517630000000  0.5108950000000  0.4997100000000 1.0
C      1  0.4575090000000  0.4166760000000  0.4935830000000 1.0
C      1  0.6056780000000  0.5112700000000  0.4853080000000 1.0
END
