TITL C-951343-2256-26 2.953218282271e-06 125000 -424.736156317611 0 0 70 (C1) n - 1
REM
REM in /home/bkarasulu/work/CARBON/AIRSS/Generating-Clusters/EDIP-Nigel-Params/with-SteepDescent/Only-C1/SD-CG/HFTN-CG
REM
REM
REM
REM
REM
REM ./C.cell (11c1c37f851c82e70ff6c80c92926a4b)
REM
REM compiler GCC version 9.2.1 20190827 (Red Hat 9.2.1-1)
REM options -cpp -mtune=generic -march=x86-64 -g -O0 -fpre-include=/usr/include/finclude/math-vector-fortran.h
REM seed -9536843 -1186857532 309159319 -1469907715 -2093098986 143257178 -338726159 1859022386 -636480825 -488286744 -915186088 -954262803 1384892181 -1829489917 -436563179 246257449 373608032 -634877396 1846890727 1636264251 769859480 728215825 -264200958 297565262 -2100278792 1902875929 -998906841 -1208193993 -186724488 -1176004362 -1246952102 -1303647646 1569087937
REM
CELL 1.54180   50.00000   50.00000   50.00000   90.00000   90.00000   90.00000
LATT -1
SFAC C  
C      1  0.5628070000000  0.4501450000000  0.5016760000000 1.0
C      1  0.5184550000000  0.4794180000000  0.5104550000000 1.0
C      1  0.5519790000000  0.4501320000000  0.5309610000000 1.0
C      1  0.4776370000000  0.4872510000000  0.4370600000000 1.0
C      1  0.5229790000000  0.4498510000000  0.5229580000000 1.0
C      1  0.4337260000000  0.4732780000000  0.5091350000000 1.0
C      1  0.4499380000000  0.4486370000000  0.5150280000000 1.0
C      1  0.4506910000000  0.5671820000000  0.4926640000000 1.0
C      1  0.4733110000000  0.4580830000000  0.5292080000000 1.0
C      1  0.4985950000000  0.5671950000000  0.4812010000000 1.0
C      1  0.4854060000000  0.4403230000000  0.4386010000000 1.0
C      1  0.5210130000000  0.4283810000000  0.5019420000000 1.0
C      1  0.4611590000000  0.5357560000000  0.5567720000000 1.0
C      1  0.5617360000000  0.5238770000000  0.5311810000000 1.0
C      1  0.5089630000000  0.4619010000000  0.5671230000000 1.0
C      1  0.4490210000000  0.4563480000000  0.4681430000000 1.0
C      1  0.5022900000000  0.4991610000000  0.5301020000000 1.0
C      1  0.4926000000000  0.5703280000000  0.5506750000000 1.0
C      1  0.5128500000000  0.5313710000000  0.5581610000000 1.0
C      1  0.5321120000000  0.4963030000000  0.4285030000000 1.0
C      1  0.4765830000000  0.4937420000000  0.4935970000000 1.0
C      1  0.4554500000000  0.5071690000000  0.5561680000000 1.0
C      1  0.5134400000000  0.4429150000000  0.4407530000000 1.0
C      1  0.5040280000000  0.5259750000000  0.5162090000000 1.0
C      1  0.4851390000000  0.4730000000000  0.5776140000000 1.0
C      1  0.4945010000000  0.5384350000000  0.4718790000000 1.0
C      1  0.4820270000000  0.5232840000000  0.4958530000000 1.0
C      1  0.4813370000000  0.5365730000000  0.4440670000000 1.0
C      1  0.5042240000000  0.4849250000000  0.4252960000000 1.0
C      1  0.5346630000000  0.5592040000000  0.5425230000000 1.0
C      1  0.4739480000000  0.4869990000000  0.5227010000000 1.0
C      1  0.5126770000000  0.4928510000000  0.4624690000000 1.0
C      1  0.4878890000000  0.5466560000000  0.5665960000000 1.0
C      1  0.4887850000000  0.5580560000000  0.5237290000000 1.0
C      1  0.5703980000000  0.4870700000000  0.4663460000000 1.0
C      1  0.4282490000000  0.5236260000000  0.5087190000000 1.0
C      1  0.4374560000000  0.5000240000000  0.5269470000000 1.0
C      1  0.5506220000000  0.5383160000000  0.5534460000000 1.0
C      1  0.4920230000000  0.4493170000000  0.4757270000000 1.0
C      1  0.4653020000000  0.4611300000000  0.4429450000000 1.0
C      1  0.4772530000000  0.5744020000000  0.5001090000000 1.0
C      1  0.5001480000000  0.4779970000000  0.4856330000000 1.0
C      1  0.4418720000000  0.5494020000000  0.5127470000000 1.0
C      1  0.5490420000000  0.4762330000000  0.4484570000000 1.0
C      1  0.4842410000000  0.4983860000000  0.5637290000000 1.0
C      1  0.5210890000000  0.5222910000000  0.4661200000000 1.0
C      1  0.5273560000000  0.5258700000000  0.4368390000000 1.0
C      1  0.4317870000000  0.4756020000000  0.4804030000000 1.0
C      1  0.5550360000000  0.5382030000000  0.5066580000000 1.0
C      1  0.4637610000000  0.5128590000000  0.4410890000000 1.0
C      1  0.5548740000000  0.4754620000000  0.5468540000000 1.0
C      1  0.5327290000000  0.4537360000000  0.4588050000000 1.0
C      1  0.4944740000000  0.4248480000000  0.4917130000000 1.0
C      1  0.4369960000000  0.5131700000000  0.4518740000000 1.0
C      1  0.5473400000000  0.5206130000000  0.4838390000000 1.0
C      1  0.5707530000000  0.4951000000000  0.5302960000000 1.0
C      1  0.5035730000000  0.4443990000000  0.5448990000000 1.0
C      1  0.4153580000000  0.5199890000000  0.4832770000000 1.0
C      1  0.5395360000000  0.5613650000000  0.5139410000000 1.0
C      1  0.4576910000000  0.4364270000000  0.4888930000000 1.0
C      1  0.5207460000000  0.5073530000000  0.5731260000000 1.0
C      1  0.5417970000000  0.4385200000000  0.4828570000000 1.0
C      1  0.4647680000000  0.5397570000000  0.5276220000000 1.0
C      1  0.5034400000000  0.5364880000000  0.4259830000000 1.0
C      1  0.5288260000000  0.4824050000000  0.5606330000000 1.0
C      1  0.5702350000000  0.5153420000000  0.4661930000000 1.0
C      1  0.5448800000000  0.4952280000000  0.5019040000000 1.0
C      1  0.5227440000000  0.5715530000000  0.4941990000000 1.0
C      1  0.5700850000000  0.4782340000000  0.4957870000000 1.0
C      1  0.4215620000000  0.5345790000000  0.4603890000000 1.0
END
