TITL C-950529-3362-705 1.02584364714438e-06 125000 -386.520273596178 0 0 63 (C1) n - 1
REM
REM in /home/bkarasulu/work/CARBON/AIRSS/Generating-Clusters/EDIP-Nigel-Params/with-SteepDescent/Only-C1/SD-CG/HFTN-CG
REM
REM
REM
REM
REM
REM ./C.cell (11c1c37f851c82e70ff6c80c92926a4b)
REM
REM compiler GCC version 9.2.1 20190827 (Red Hat 9.2.1-1)
REM options -cpp -mtune=generic -march=x86-64 -g -O0 -fpre-include=/usr/include/finclude/math-vector-fortran.h
REM seed 1711789887 -1575596082 -1088425789 -168982660 -979996564 1700465973 816939942 -912342691 -2068695671 -75515978 -1696856753 -1462753424 1209870439 1434925056 -740216349 839945359 2111369119 1337960855 166788711 114892411 1298373976 -1647079080 2019101527 1622509739 1983552899 -1747284380 2012523793 -402727879 1007957035 -25272539 1595717877 -1521430273 -1414144865
REM
CELL 1.54180   50.00000   50.00000   50.00000   90.00000   90.00000   90.00000
LATT -1
SFAC C  
C      1  0.5385960000000  0.5336160000000  0.4351670000000 1.0
C      1  0.4958370000000  0.4306770000000  0.5263690000000 1.0
C      1  0.5513820000000  0.5462170000000  0.4621110000000 1.0
C      1  0.5549720000000  0.4999030000000  0.4632600000000 1.0
C      1  0.5185620000000  0.5337140000000  0.5708010000000 1.0
C      1  0.5439130000000  0.5256620000000  0.5145410000000 1.0
C      1  0.4740280000000  0.5111790000000  0.5614470000000 1.0
C      1  0.4686690000000  0.5259750000000  0.5002720000000 1.0
C      1  0.5129700000000  0.4824370000000  0.5421110000000 1.0
C      1  0.4423570000000  0.5320360000000  0.5154360000000 1.0
C      1  0.4774810000000  0.5520280000000  0.4872210000000 1.0
C      1  0.5170070000000  0.5411880000000  0.5130930000000 1.0
C      1  0.5037220000000  0.5070940000000  0.5701750000000 1.0
C      1  0.4592940000000  0.4475080000000  0.4686480000000 1.0
C      1  0.5241960000000  0.5614120000000  0.4657840000000 1.0
C      1  0.5399360000000  0.4705060000000  0.5365950000000 1.0
C      1  0.5284910000000  0.4704290000000  0.4889960000000 1.0
C      1  0.5022180000000  0.4595960000000  0.5810050000000 1.0
C      1  0.4709710000000  0.4450640000000  0.5198390000000 1.0
C      1  0.5235840000000  0.4838060000000  0.4289130000000 1.0
C      1  0.4755440000000  0.4757170000000  0.4263000000000 1.0
C      1  0.5011660000000  0.4960380000000  0.5185040000000 1.0
C      1  0.5413140000000  0.4297720000000  0.5100740000000 1.0
C      1  0.5256660000000  0.4583450000000  0.4402310000000 1.0
C      1  0.5018680000000  0.5533020000000  0.5566730000000 1.0
C      1  0.4916790000000  0.5240390000000  0.5210190000000 1.0
C      1  0.4779570000000  0.4498180000000  0.4446850000000 1.0
C      1  0.5079720000000  0.5127040000000  0.4714000000000 1.0
C      1  0.5299540000000  0.5069720000000  0.4477730000000 1.0
C      1  0.4714460000000  0.5700100000000  0.5113380000000 1.0
C      1  0.4680140000000  0.4641960000000  0.5438700000000 1.0
C      1  0.5140330000000  0.4287290000000  0.5039440000000 1.0
C      1  0.4952300000000  0.5824040000000  0.5207960000000 1.0
C      1  0.5060460000000  0.4496910000000  0.4839490000000 1.0
C      1  0.4910800000000  0.5438540000000  0.4317280000000 1.0
C      1  0.5581790000000  0.5237700000000  0.4811830000000 1.0
C      1  0.4658740000000  0.5000390000000  0.4413320000000 1.0
C      1  0.5176790000000  0.4964470000000  0.4950300000000 1.0
C      1  0.4790180000000  0.5368140000000  0.5459100000000 1.0
C      1  0.5453430000000  0.5347330000000  0.5628380000000 1.0
C      1  0.5437440000000  0.4860900000000  0.5784800000000 1.0
C      1  0.5542650000000  0.5179650000000  0.5420940000000 1.0
C      1  0.4629020000000  0.4933020000000  0.5405480000000 1.0
C      1  0.5536910000000  0.4735550000000  0.4746630000000 1.0
C      1  0.5555790000000  0.4892570000000  0.5524590000000 1.0
C      1  0.4562060000000  0.5529510000000  0.5327520000000 1.0
C      1  0.4761240000000  0.4575170000000  0.4922300000000 1.0
C      1  0.5059550000000  0.4440990000000  0.4543050000000 1.0
C      1  0.4800820000000  0.5002530000000  0.4672860000000 1.0
C      1  0.5070100000000  0.5437950000000  0.4829970000000 1.0
C      1  0.5160930000000  0.4840050000000  0.5855230000000 1.0
C      1  0.4262230000000  0.4838800000000  0.4528530000000 1.0
C      1  0.4387260000000  0.4874440000000  0.4995440000000 1.0
C      1  0.5140830000000  0.5650190000000  0.5319940000000 1.0
C      1  0.4685170000000  0.4875320000000  0.4926800000000 1.0
C      1  0.4999630000000  0.4840030000000  0.4139830000000 1.0
C      1  0.4970960000000  0.4587470000000  0.5523530000000 1.0
C      1  0.4739660000000  0.5235570000000  0.4281520000000 1.0
C      1  0.5164130000000  0.5546170000000  0.4363640000000 1.0
C      1  0.4208050000000  0.4940990000000  0.4782100000000 1.0
C      1  0.4393990000000  0.5032430000000  0.5248580000000 1.0
C      1  0.4329250000000  0.4596340000000  0.4651550000000 1.0
C      1  0.5469880000000  0.4579940000000  0.5101550000000 1.0
END
