TITL C-951341-1326-413 -2.91045438468403e-06 125000 -1129.69310555009 0 0 182 (C1) n - 1
REM
REM in /home/bkarasulu/work/CARBON/AIRSS/Generating-Clusters/EDIP-Nigel-Params/with-SteepDescent/Only-C1/SD-CG/HFTN-CG
REM
REM
REM
REM
REM
REM ./C.cell (11c1c37f851c82e70ff6c80c92926a4b)
REM
REM compiler GCC version 9.2.1 20190827 (Red Hat 9.2.1-1)
REM options -cpp -mtune=generic -march=x86-64 -g -O0 -fpre-include=/usr/include/finclude/math-vector-fortran.h
REM seed -825531275 1113094033 1056709467 1103313638 -774527930 -2005412743 -428885328 1540492698 89912959 1538150002 1796077275 -1132059492 -761017618 66816374 1922661870 1397362635 2095006039 -55873320 28714636 -1975806494 -1618239492 -1261691691 1411258959 1294531056 1153457645 1931848866 -1681064791 1869291187 66327308 -1278303628 1311614124 -964034348 -978927090
REM
CELL 1.54180   50.00000   50.00000   50.00000   90.00000   90.00000   90.00000
LATT -1
SFAC C  
C      1  0.4147800000000  0.4549920000000  0.5353460000000 1.0
C      1  0.5661420000000  0.5806630000000  0.4546660000000 1.0
C      1  0.4442310000000  0.4281020000000  0.4224180000000 1.0
C      1  0.5232450000000  0.5904520000000  0.5613710000000 1.0
C      1  0.4113160000000  0.4423690000000  0.4897060000000 1.0
C      1  0.5935130000000  0.5448140000000  0.5387340000000 1.0
C      1  0.6126570000000  0.5227310000000  0.4729530000000 1.0
C      1  0.4986870000000  0.4848420000000  0.6189160000000 1.0
C      1  0.4433670000000  0.4447270000000  0.5869930000000 1.0
C      1  0.5085390000000  0.5439250000000  0.4108880000000 1.0
C      1  0.4400200000000  0.4896480000000  0.6020110000000 1.0
C      1  0.4797090000000  0.5070730000000  0.4209270000000 1.0
C      1  0.4020100000000  0.5123050000000  0.5247250000000 1.0
C      1  0.5506700000000  0.5972870000000  0.5553450000000 1.0
C      1  0.5080220000000  0.4737770000000  0.4398570000000 1.0
C      1  0.4279360000000  0.4266850000000  0.5443680000000 1.0
C      1  0.5224250000000  0.5269280000000  0.5661620000000 1.0
C      1  0.4367280000000  0.5487300000000  0.5617450000000 1.0
C      1  0.4681720000000  0.4518990000000  0.6018070000000 1.0
C      1  0.5612870000000  0.5032770000000  0.4849300000000 1.0
C      1  0.5245760000000  0.3976780000000  0.5115530000000 1.0
C      1  0.4827380000000  0.4741320000000  0.4826570000000 1.0
C      1  0.5898400000000  0.5063600000000  0.5681270000000 1.0
C      1  0.4200990000000  0.4835900000000  0.4766230000000 1.0
C      1  0.5083650000000  0.5135410000000  0.5008680000000 1.0
C      1  0.4235100000000  0.4683900000000  0.4225730000000 1.0
C      1  0.3961320000000  0.4518480000000  0.5113340000000 1.0
C      1  0.4553240000000  0.4523740000000  0.5094490000000 1.0
C      1  0.4094360000000  0.5035320000000  0.5515320000000 1.0
C      1  0.4633140000000  0.5321660000000  0.5966990000000 1.0
C      1  0.4957240000000  0.5356630000000  0.5516330000000 1.0
C      1  0.4863050000000  0.5619070000000  0.5681930000000 1.0
C      1  0.6070670000000  0.4968980000000  0.5209200000000 1.0
C      1  0.4285520000000  0.5720410000000  0.5465560000000 1.0
C      1  0.4633430000000  0.5578170000000  0.5180490000000 1.0
C      1  0.5436980000000  0.5731170000000  0.5748930000000 1.0
C      1  0.5085600000000  0.5126440000000  0.6169470000000 1.0
C      1  0.4733850000000  0.4872490000000  0.3757550000000 1.0
C      1  0.5417550000000  0.4216900000000  0.4648430000000 1.0
C      1  0.5128690000000  0.4342620000000  0.4686760000000 1.0
C      1  0.5486960000000  0.4598840000000  0.4019990000000 1.0
C      1  0.4888080000000  0.5902100000000  0.4248240000000 1.0
C      1  0.4617890000000  0.5741560000000  0.4245870000000 1.0
C      1  0.4231810000000  0.5233070000000  0.5692080000000 1.0
C      1  0.4518140000000  0.6035590000000  0.5138730000000 1.0
C      1  0.4472890000000  0.6004970000000  0.4661090000000 1.0
C      1  0.4398290000000  0.5159310000000  0.5919450000000 1.0
C      1  0.5010850000000  0.4510920000000  0.4923820000000 1.0
C      1  0.5299490000000  0.5487510000000  0.5879610000000 1.0
C      1  0.5271080000000  0.6041650000000  0.5261340000000 1.0
C      1  0.4909410000000  0.3896800000000  0.4717410000000 1.0
C      1  0.4396190000000  0.4068540000000  0.5270270000000 1.0
C      1  0.5141540000000  0.4677710000000  0.5338990000000 1.0
C      1  0.4851600000000  0.4635500000000  0.4219110000000 1.0
C      1  0.5373680000000  0.4375150000000  0.4176080000000 1.0
C      1  0.5758740000000  0.4634400000000  0.4131220000000 1.0
C      1  0.4758470000000  0.4727090000000  0.5556900000000 1.0
C      1  0.4298780000000  0.4463060000000  0.4064510000000 1.0
C      1  0.6036010000000  0.4739050000000  0.4570490000000 1.0
C      1  0.4908220000000  0.4702280000000  0.3924070000000 1.0
C      1  0.4548470000000  0.5822310000000  0.5348770000000 1.0
C      1  0.4831170000000  0.4951930000000  0.5053270000000 1.0
C      1  0.4307110000000  0.4619440000000  0.4510200000000 1.0
C      1  0.4076530000000  0.4745200000000  0.5590770000000 1.0
C      1  0.5526850000000  0.4034360000000  0.5150870000000 1.0
C      1  0.5479240000000  0.5447600000000  0.4770300000000 1.0
C      1  0.4201990000000  0.5374700000000  0.4141340000000 1.0
C      1  0.3808180000000  0.4732490000000  0.5019530000000 1.0
C      1  0.4967880000000  0.6005570000000  0.5271900000000 1.0
C      1  0.5533380000000  0.4922330000000  0.6022060000000 1.0
C      1  0.4618560000000  0.5010790000000  0.4436500000000 1.0
C      1  0.4900240000000  0.5351300000000  0.6089000000000 1.0
C      1  0.5349360000000  0.4970800000000  0.5056050000000 1.0
C      1  0.4697890000000  0.4814870000000  0.6062450000000 1.0
C      1  0.5930560000000  0.5617370000000  0.4863960000000 1.0
C      1  0.5656960000000  0.5967340000000  0.4821960000000 1.0
C      1  0.3996020000000  0.5504050000000  0.4814110000000 1.0
C      1  0.4422730000000  0.5795590000000  0.4467130000000 1.0
C      1  0.6065810000000  0.4809580000000  0.4855490000000 1.0
C      1  0.5351060000000  0.5268900000000  0.4587460000000 1.0
C      1  0.4598730000000  0.4698740000000  0.4512900000000 1.0
C      1  0.4924690000000  0.4164340000000  0.4560070000000 1.0
C      1  0.5360380000000  0.5157620000000  0.6068600000000 1.0
C      1  0.4959650000000  0.5975170000000  0.4531800000000 1.0
C      1  0.5943940000000  0.4970560000000  0.4415690000000 1.0
C      1  0.5116940000000  0.5731080000000  0.4160130000000 1.0
C      1  0.4731110000000  0.4354310000000  0.4289720000000 1.0
C      1  0.5146140000000  0.4188840000000  0.5543300000000 1.0
C      1  0.5176690000000  0.4977250000000  0.5765490000000 1.0
C      1  0.4898320000000  0.4823320000000  0.5322890000000 1.0
C      1  0.4986050000000  0.4209430000000  0.5773190000000 1.0
C      1  0.5001870000000  0.5591860000000  0.4825500000000 1.0
C      1  0.5792430000000  0.4507720000000  0.4404810000000 1.0
C      1  0.3940860000000  0.5167630000000  0.4970580000000 1.0
C      1  0.5555560000000  0.4295990000000  0.5284220000000 1.0
C      1  0.4850880000000  0.4926080000000  0.5777950000000 1.0
C      1  0.4770350000000  0.4406580000000  0.5519500000000 1.0
C      1  0.4784260000000  0.4361490000000  0.5196450000000 1.0
C      1  0.4538590000000  0.5333670000000  0.4808490000000 1.0
C      1  0.5087420000000  0.4956780000000  0.3894430000000 1.0
C      1  0.4378070000000  0.5907250000000  0.4914700000000 1.0
C      1  0.5674940000000  0.4075010000000  0.4898330000000 1.0
C      1  0.4295420000000  0.4707000000000  0.5812870000000 1.0
C      1  0.5028820000000  0.5581850000000  0.5947690000000 1.0
C      1  0.5515340000000  0.4582800000000  0.5648760000000 1.0
C      1  0.4788850000000  0.6104790000000  0.5046180000000 1.0
C      1  0.4955420000000  0.4920120000000  0.4609990000000 1.0
C      1  0.4829470000000  0.3882410000000  0.5318760000000 1.0
C      1  0.4371680000000  0.5185030000000  0.4029590000000 1.0
C      1  0.4784850000000  0.5157670000000  0.3777680000000 1.0
C      1  0.5811460000000  0.4603990000000  0.5514310000000 1.0
C      1  0.5079330000000  0.5390270000000  0.5221320000000 1.0
C      1  0.4584440000000  0.5294640000000  0.5283380000000 1.0
C      1  0.5087750000000  0.3976620000000  0.5352910000000 1.0
C      1  0.4945760000000  0.4447230000000  0.5921930000000 1.0
C      1  0.5841920000000  0.4387310000000  0.5308580000000 1.0
C      1  0.4924270000000  0.5602500000000  0.5100040000000 1.0
C      1  0.6052680000000  0.5268670000000  0.5189850000000 1.0
C      1  0.4733720000000  0.5481690000000  0.4350140000000 1.0
C      1  0.3920900000000  0.4912550000000  0.4831250000000 1.0
C      1  0.5899720000000  0.5888660000000  0.4969910000000 1.0
C      1  0.5458000000000  0.5261870000000  0.5463460000000 1.0
C      1  0.5618180000000  0.5088640000000  0.4026490000000 1.0
C      1  0.4493990000000  0.4844560000000  0.5512930000000 1.0
C      1  0.5409890000000  0.4315100000000  0.5543930000000 1.0
C      1  0.5053900000000  0.5188220000000  0.4268680000000 1.0
C      1  0.5599870000000  0.5338410000000  0.4149960000000 1.0
C      1  0.6113790000000  0.5403470000000  0.4942690000000 1.0
C      1  0.4382940000000  0.4717430000000  0.5246990000000 1.0
C      1  0.5823860000000  0.4917160000000  0.4151100000000 1.0
C      1  0.5381320000000  0.4890980000000  0.4022930000000 1.0
C      1  0.5936050000000  0.4870140000000  0.5464840000000 1.0
C      1  0.5532770000000  0.4924770000000  0.4556780000000 1.0
C      1  0.5855640000000  0.4317100000000  0.4942030000000 1.0
C      1  0.5139200000000  0.4634660000000  0.6036420000000 1.0
C      1  0.5401610000000  0.5446700000000  0.4324280000000 1.0
C      1  0.4938470000000  0.4130010000000  0.4245450000000 1.0
C      1  0.4135730000000  0.5573560000000  0.4566050000000 1.0
C      1  0.5088010000000  0.5176780000000  0.4708770000000 1.0
C      1  0.5326540000000  0.4804860000000  0.5527830000000 1.0
C      1  0.5743060000000  0.5527700000000  0.4652200000000 1.0
C      1  0.4243510000000  0.5355490000000  0.4417570000000 1.0
C      1  0.4382930000000  0.4352330000000  0.4937020000000 1.0
C      1  0.5179920000000  0.3839920000000  0.4861590000000 1.0
C      1  0.5417300000000  0.5866300000000  0.4998000000000 1.0
C      1  0.4562840000000  0.5125750000000  0.5037750000000 1.0
C      1  0.5525590000000  0.5686950000000  0.5216320000000 1.0
C      1  0.5782590000000  0.4966480000000  0.5912380000000 1.0
C      1  0.4505900000000  0.4296260000000  0.5632600000000 1.0
C      1  0.5288540000000  0.5673940000000  0.4793570000000 1.0
C      1  0.4303480000000  0.4946170000000  0.5051570000000 1.0
C      1  0.4751180000000  0.6092540000000  0.4730040000000 1.0
C      1  0.5799460000000  0.4820900000000  0.4976940000000 1.0
C      1  0.4169010000000  0.5537470000000  0.5044200000000 1.0
C      1  0.5399240000000  0.3918430000000  0.4682560000000 1.0
C      1  0.4661060000000  0.5264440000000  0.4031730000000 1.0
C      1  0.4441970000000  0.5597130000000  0.4943010000000 1.0
C      1  0.4651760000000  0.5162910000000  0.5560560000000 1.0
C      1  0.4595540000000  0.5536970000000  0.5787320000000 1.0
C      1  0.4084540000000  0.5671460000000  0.5277410000000 1.0
C      1  0.4671490000000  0.4064090000000  0.5161520000000 1.0
C      1  0.4520060000000  0.4214440000000  0.4719760000000 1.0
C      1  0.4342130000000  0.4308020000000  0.4498740000000 1.0
C      1  0.5583160000000  0.4618130000000  0.4611770000000 1.0
C      1  0.4808670000000  0.5717670000000  0.4638170000000 1.0
C      1  0.4320310000000  0.4928320000000  0.4126000000000 1.0
C      1  0.5270550000000  0.4948430000000  0.4299190000000 1.0
C      1  0.4807320000000  0.5874800000000  0.5501250000000 1.0
C      1  0.5868390000000  0.5198280000000  0.4601690000000 1.0
C      1  0.5163700000000  0.4208660000000  0.4105240000000 1.0
C      1  0.5811530000000  0.5692580000000  0.5283720000000 1.0
C      1  0.5372890000000  0.5445900000000  0.5258570000000 1.0
C      1  0.5419770000000  0.5748330000000  0.4379290000000 1.0
C      1  0.5420190000000  0.4667470000000  0.5942620000000 1.0
C      1  0.5681250000000  0.4557650000000  0.4896070000000 1.0
C      1  0.5799030000000  0.5322520000000  0.5605530000000 1.0
C      1  0.4663920000000  0.3993740000000  0.4862520000000 1.0
C      1  0.5561290000000  0.4279210000000  0.4379610000000 1.0
C      1  0.4523730000000  0.5297100000000  0.4510980000000 1.0
C      1  0.5242170000000  0.4662670000000  0.5069970000000 1.0
C      1  0.5452730000000  0.4997490000000  0.5341830000000 1.0
C      1  0.5468320000000  0.4491160000000  0.5076310000000 1.0
END
