TITL C-951342-2639-561 -6.70452432783408e-07 125000 -824.962574182944 0 0 133 (C1) n - 1
REM
REM in /home/bkarasulu/work/CARBON/AIRSS/Generating-Clusters/EDIP-Nigel-Params/with-SteepDescent/Only-C1/SD-CG/HFTN-CG
REM
REM
REM
REM
REM
REM ./C.cell (11c1c37f851c82e70ff6c80c92926a4b)
REM
REM compiler GCC version 9.2.1 20190827 (Red Hat 9.2.1-1)
REM options -cpp -mtune=generic -march=x86-64 -g -O0 -fpre-include=/usr/include/finclude/math-vector-fortran.h
REM seed -327749776 -1781204593 -148688950 -1583359677 -1696439049 -1334606920 -731733753 -429707893 -298491054 -805008085 -401299936 -45249655 38317819 447298254 2064282963 1021815870 986061716 -1980742267 -1460274633 -509744400 -915547217 241493111 1966012230 -278092566 -2051021352 -1333122442 -1727930473 305953312 -1179299241 -1256230893 -1479255639 -829362271 1127194210
REM
CELL 1.54180   50.00000   50.00000   50.00000   90.00000   90.00000   90.00000
LATT -1
SFAC C  
C      1  0.5595950000000  0.4292210000000  0.4849080000000 1.0
C      1  0.5931500000000  0.5331870000000  0.4646190000000 1.0
C      1  0.4757540000000  0.4830750000000  0.4036050000000 1.0
C      1  0.4592050000000  0.5340580000000  0.5232900000000 1.0
C      1  0.5845650000000  0.4953260000000  0.4937060000000 1.0
C      1  0.4454510000000  0.4459810000000  0.5416370000000 1.0
C      1  0.4628930000000  0.5224820000000  0.5709030000000 1.0
C      1  0.4522320000000  0.4927230000000  0.4478340000000 1.0
C      1  0.5854520000000  0.4897180000000  0.4644670000000 1.0
C      1  0.5230850000000  0.4712300000000  0.4117710000000 1.0
C      1  0.5153160000000  0.4451770000000  0.4219310000000 1.0
C      1  0.5435030000000  0.4301970000000  0.5538490000000 1.0
C      1  0.4861250000000  0.4927500000000  0.5211770000000 1.0
C      1  0.4215720000000  0.4759070000000  0.5689610000000 1.0
C      1  0.4886430000000  0.4469050000000  0.4991770000000 1.0
C      1  0.4873370000000  0.4392510000000  0.4279140000000 1.0
C      1  0.4856690000000  0.4882620000000  0.4862830000000 1.0
C      1  0.4906940000000  0.5693730000000  0.4214500000000 1.0
C      1  0.5974690000000  0.5098370000000  0.4482040000000 1.0
C      1  0.5756690000000  0.4928270000000  0.5530770000000 1.0
C      1  0.4955250000000  0.5038780000000  0.6024710000000 1.0
C      1  0.5304740000000  0.4188300000000  0.5284200000000 1.0
C      1  0.5471340000000  0.5599050000000  0.5343630000000 1.0
C      1  0.5282240000000  0.4916210000000  0.5441230000000 1.0
C      1  0.5428500000000  0.4125240000000  0.5013590000000 1.0
C      1  0.4962640000000  0.5231080000000  0.5299260000000 1.0
C      1  0.4497030000000  0.5146590000000  0.5453630000000 1.0
C      1  0.5193850000000  0.5189580000000  0.5491800000000 1.0
C      1  0.4203680000000  0.4323870000000  0.5003690000000 1.0
C      1  0.5037710000000  0.4905340000000  0.4023820000000 1.0
C      1  0.5199430000000  0.4049310000000  0.4849000000000 1.0
C      1  0.5207250000000  0.5896420000000  0.5592960000000 1.0
C      1  0.4691350000000  0.5001840000000  0.5891160000000 1.0
C      1  0.4715420000000  0.5812630000000  0.4593640000000 1.0
C      1  0.4734780000000  0.5201820000000  0.4126140000000 1.0
C      1  0.5279900000000  0.5823640000000  0.5282640000000 1.0
C      1  0.5197120000000  0.5117180000000  0.4294560000000 1.0
C      1  0.5395480000000  0.4888800000000  0.5930940000000 1.0
C      1  0.4517100000000  0.5893600000000  0.5029530000000 1.0
C      1  0.4772600000000  0.5077500000000  0.4394050000000 1.0
C      1  0.5529270000000  0.4593600000000  0.4448060000000 1.0
C      1  0.5123980000000  0.4800560000000  0.5965160000000 1.0
C      1  0.4676120000000  0.4609050000000  0.4215370000000 1.0
C      1  0.5371230000000  0.5933570000000  0.4992190000000 1.0
C      1  0.5122520000000  0.5439860000000  0.5137310000000 1.0
C      1  0.5057880000000  0.4021340000000  0.5314210000000 1.0
C      1  0.5979930000000  0.5238640000000  0.4934620000000 1.0
C      1  0.4149720000000  0.4599280000000  0.4751410000000 1.0
C      1  0.4760220000000  0.4012810000000  0.4667210000000 1.0
C      1  0.5185850000000  0.5922750000000  0.4754720000000 1.0
C      1  0.5600390000000  0.5727770000000  0.4611190000000 1.0
C      1  0.4735540000000  0.5299520000000  0.4580590000000 1.0
C      1  0.4451590000000  0.4608270000000  0.5667010000000 1.0
C      1  0.4370890000000  0.5471460000000  0.4765030000000 1.0
C      1  0.4443440000000  0.4171160000000  0.4941370000000 1.0
C      1  0.4902400000000  0.5867030000000  0.5575550000000 1.0
C      1  0.4344180000000  0.5622920000000  0.5639890000000 1.0
C      1  0.5550200000000  0.4896480000000  0.5320330000000 1.0
C      1  0.4895290000000  0.4533860000000  0.4696970000000 1.0
C      1  0.4689680000000  0.5487720000000  0.4182770000000 1.0
C      1  0.4131500000000  0.5452480000000  0.5546650000000 1.0
C      1  0.4914710000000  0.5796400000000  0.4817710000000 1.0
C      1  0.4702390000000  0.4742900000000  0.5747210000000 1.0
C      1  0.5758750000000  0.4678490000000  0.5673350000000 1.0
C      1  0.5084210000000  0.4420940000000  0.5591410000000 1.0
C      1  0.5387540000000  0.4566650000000  0.5024590000000 1.0
C      1  0.5659300000000  0.4478750000000  0.5492100000000 1.0
C      1  0.5912390000000  0.5325890000000  0.5411480000000 1.0
C      1  0.4722090000000  0.4224420000000  0.5067950000000 1.0
C      1  0.4196960000000  0.5175790000000  0.5474960000000 1.0
C      1  0.5327970000000  0.5810550000000  0.4511840000000 1.0
C      1  0.4060040000000  0.5066360000000  0.4852710000000 1.0
C      1  0.4810740000000  0.5921640000000  0.4352020000000 1.0
C      1  0.4357050000000  0.4835340000000  0.5150600000000 1.0
C      1  0.5829630000000  0.4463460000000  0.4830770000000 1.0
C      1  0.5173190000000  0.4205220000000  0.4600690000000 1.0
C      1  0.4960020000000  0.5288690000000  0.4739560000000 1.0
C      1  0.5611470000000  0.5780350000000  0.4909260000000 1.0
C      1  0.4937080000000  0.5758410000000  0.5277490000000 1.0
C      1  0.4794520000000  0.5914510000000  0.5060870000000 1.0
C      1  0.5175250000000  0.5621100000000  0.4321530000000 1.0
C      1  0.5190610000000  0.5257850000000  0.4575200000000 1.0
C      1  0.4526250000000  0.4171250000000  0.4670480000000 1.0
C      1  0.4224780000000  0.5141770000000  0.4610910000000 1.0
C      1  0.5073590000000  0.5544670000000  0.5897770000000 1.0
C      1  0.5416350000000  0.5405940000000  0.5584380000000 1.0
C      1  0.4195070000000  0.4443650000000  0.5271330000000 1.0
C      1  0.5301650000000  0.5655300000000  0.5751170000000 1.0
C      1  0.4937880000000  0.3987500000000  0.5014000000000 1.0
C      1  0.4968070000000  0.4624240000000  0.5782100000000 1.0
C      1  0.5792670000000  0.5194870000000  0.5616960000000 1.0
C      1  0.4656940000000  0.4254150000000  0.5355860000000 1.0
C      1  0.4824580000000  0.5670960000000  0.5793230000000 1.0
C      1  0.5124990000000  0.4511960000000  0.5167630000000 1.0
C      1  0.4495790000000  0.5247740000000  0.4948320000000 1.0
C      1  0.4571250000000  0.5506390000000  0.5782420000000 1.0
C      1  0.4449110000000  0.4636570000000  0.4828500000000 1.0
C      1  0.5332340000000  0.4841340000000  0.4592620000000 1.0
C      1  0.5310990000000  0.5400490000000  0.4173500000000 1.0
C      1  0.5566590000000  0.5026780000000  0.4338420000000 1.0
C      1  0.5809970000000  0.4615860000000  0.4576070000000 1.0
C      1  0.5058000000000  0.4736430000000  0.5364890000000 1.0
C      1  0.4566070000000  0.4914210000000  0.4776030000000 1.0
C      1  0.3980280000000  0.4786270000000  0.4920820000000 1.0
C      1  0.5436000000000  0.5304680000000  0.4711820000000 1.0
C      1  0.5618510000000  0.4613790000000  0.5229180000000 1.0
C      1  0.4269200000000  0.5096900000000  0.5047510000000 1.0
C      1  0.4059770000000  0.4903780000000  0.5504190000000 1.0
C      1  0.5425990000000  0.5317330000000  0.5003140000000 1.0
C      1  0.4380530000000  0.5552870000000  0.5266410000000 1.0
C      1  0.5124260000000  0.5258050000000  0.5922390000000 1.0
C      1  0.4157830000000  0.4963660000000  0.4383110000000 1.0
C      1  0.5867360000000  0.4656110000000  0.5058630000000 1.0
C      1  0.5396470000000  0.5169270000000  0.5884100000000 1.0
C      1  0.4904080000000  0.4195590000000  0.5501450000000 1.0
C      1  0.5350960000000  0.4343330000000  0.4411920000000 1.0
C      1  0.5374860000000  0.4830940000000  0.4887570000000 1.0
C      1  0.5618800000000  0.5532310000000  0.5094240000000 1.0
C      1  0.4081870000000  0.4723530000000  0.5241390000000 1.0
C      1  0.4334090000000  0.5683270000000  0.4996560000000 1.0
C      1  0.4596110000000  0.4459870000000  0.4617540000000 1.0
C      1  0.5651500000000  0.5434480000000  0.4558880000000 1.0
C      1  0.4951740000000  0.5509640000000  0.4911930000000 1.0
C      1  0.5510370000000  0.4768440000000  0.4193200000000 1.0
C      1  0.4401600000000  0.4551370000000  0.4301170000000 1.0
C      1  0.4923180000000  0.4157830000000  0.4474430000000 1.0
C      1  0.4165890000000  0.4673530000000  0.4438790000000 1.0
C      1  0.4583900000000  0.4878820000000  0.5344050000000 1.0
C      1  0.5585220000000  0.5329910000000  0.4274890000000 1.0
C      1  0.5551620000000  0.5022390000000  0.5034910000000 1.0
C      1  0.4573880000000  0.5555290000000  0.4529100000000 1.0
C      1  0.5888130000000  0.5420250000000  0.5150110000000 1.0
C      1  0.5014190000000  0.4828980000000  0.4567240000000 1.0
END
