TITL C-951348-1603-533 -2.46089022350784e-06 125000 -248.194131328282 0 0 41 (C1) n - 1
REM
REM in /home/bkarasulu/work/CARBON/AIRSS/Generating-Clusters/EDIP-Nigel-Params/with-SteepDescent/Only-C1/SD-CG/HFTN-CG
REM
REM
REM
REM
REM
REM ./C.cell (11c1c37f851c82e70ff6c80c92926a4b)
REM
REM compiler GCC version 9.2.1 20190827 (Red Hat 9.2.1-1)
REM options -cpp -mtune=generic -march=x86-64 -g -O0 -fpre-include=/usr/include/finclude/math-vector-fortran.h
REM seed 497616256 -407285522 1066098804 40810372 -1592718060 -720016447 -928222307 1922233246 1659985132 -941902734 -322936119 -815087581 339703515 2131117880 -247647174 1677957414 -818870911 -1483341153 660839608 453432865 2020077279 542601236 -235134283 210376989 1772088118 -1028684109 -646248935 1876181404 -1678798829 37613576 -921027843 -1198335887 -156925401
REM
CELL 1.54180   50.00000   50.00000   50.00000   90.00000   90.00000   90.00000
LATT -1
SFAC C  
C      1  0.5382120000000  0.4743610000000  0.4627390000000 1.0
C      1  0.4914570000000  0.5431900000000  0.4769410000000 1.0
C      1  0.4458200000000  0.5477290000000  0.4929510000000 1.0
C      1  0.5000820000000  0.5629240000000  0.4972670000000 1.0
C      1  0.4717980000000  0.5336970000000  0.5319210000000 1.0
C      1  0.5255670000000  0.5199360000000  0.4927080000000 1.0
C      1  0.5186320000000  0.5455760000000  0.5391450000000 1.0
C      1  0.4371140000000  0.4656540000000  0.4838100000000 1.0
C      1  0.4436110000000  0.4709080000000  0.4579970000000 1.0
C      1  0.4668990000000  0.4866130000000  0.4587960000000 1.0
C      1  0.5234650000000  0.4352750000000  0.5057310000000 1.0
C      1  0.4969890000000  0.4200640000000  0.4695580000000 1.0
C      1  0.4666800000000  0.5069690000000  0.4797010000000 1.0
C      1  0.4396750000000  0.5032540000000  0.5137160000000 1.0
C      1  0.4798930000000  0.4825990000000  0.5413480000000 1.0
C      1  0.5462170000000  0.4748420000000  0.4899300000000 1.0
C      1  0.5234020000000  0.4631710000000  0.5053090000000 1.0
C      1  0.4927960000000  0.5565150000000  0.5268040000000 1.0
C      1  0.5506340000000  0.5039680000000  0.4964680000000 1.0
C      1  0.4730950000000  0.4677080000000  0.5166880000000 1.0
C      1  0.4915580000000  0.4711910000000  0.4654730000000 1.0
C      1  0.5128470000000  0.5178760000000  0.5469990000000 1.0
C      1  0.5397710000000  0.5445550000000  0.5184850000000 1.0
C      1  0.5347490000000  0.5474940000000  0.4681660000000 1.0
C      1  0.5342940000000  0.4987940000000  0.5520660000000 1.0
C      1  0.4968050000000  0.5059650000000  0.5004520000000 1.0
C      1  0.4889570000000  0.4433560000000  0.4592380000000 1.0
C      1  0.4632330000000  0.5354680000000  0.4743760000000 1.0
C      1  0.5124770000000  0.4158720000000  0.4909390000000 1.0
C      1  0.4453570000000  0.4757510000000  0.5086960000000 1.0
C      1  0.5592610000000  0.5189660000000  0.5212960000000 1.0
C      1  0.5263510000000  0.4738770000000  0.5621040000000 1.0
C      1  0.4894070000000  0.5093920000000  0.5309730000000 1.0
C      1  0.4473190000000  0.5306770000000  0.5156130000000 1.0
C      1  0.5607110000000  0.5057070000000  0.5461940000000 1.0
C      1  0.5108530000000  0.5373270000000  0.4554420000000 1.0
C      1  0.4999990000000  0.4707420000000  0.5567960000000 1.0
C      1  0.4967150000000  0.4752760000000  0.4966010000000 1.0
C      1  0.5302750000000  0.5622070000000  0.4935970000000 1.0
C      1  0.5124010000000  0.5109850000000  0.4457620000000 1.0
C      1  0.5146200000000  0.4835700000000  0.4512010000000 1.0
END
