TITL C-951346-9544-604 -5.32738884438012e-07 125000 -257.951834004039 0 0 43 (C1) n - 1
REM
REM in /home/bkarasulu/work/CARBON/AIRSS/Generating-Clusters/EDIP-Nigel-Params/with-SteepDescent/Only-C1/SD-CG/HFTN-CG
REM
REM
REM
REM
REM
REM ./C.cell (11c1c37f851c82e70ff6c80c92926a4b)
REM
REM compiler GCC version 9.2.1 20190827 (Red Hat 9.2.1-1)
REM options -cpp -mtune=generic -march=x86-64 -g -O0 -fpre-include=/usr/include/finclude/math-vector-fortran.h
REM seed 1241249785 -237506743 140584382 1188327073 1954578759 1596856737 1476095705 -161920612 921200965 -357100310 -1499032865 1907864554 101862949 -96705925 1786948212 537252401 250765160 -443233535 -1458121873 1183432826 -1071151584 1301451130 2118258451 -1773519116 -711415287 -774142511 -68531603 1747416180 306997867 381596732 816936742 -245754593 -921778526
REM
CELL 1.54180   50.00000   50.00000   50.00000   90.00000   90.00000   90.00000
LATT -1
SFAC C  
C      1  0.4421700000000  0.4787180000000  0.5460890000000 1.0
C      1  0.5201710000000  0.4772510000000  0.4456800000000 1.0
C      1  0.5472640000000  0.5336930000000  0.4680680000000 1.0
C      1  0.5159440000000  0.5012640000000  0.4301160000000 1.0
C      1  0.4538400000000  0.5225980000000  0.4743700000000 1.0
C      1  0.4978360000000  0.4567280000000  0.5431740000000 1.0
C      1  0.4698660000000  0.4417680000000  0.5069530000000 1.0
C      1  0.4584130000000  0.4730510000000  0.4712950000000 1.0
C      1  0.4646420000000  0.4708400000000  0.5007040000000 1.0
C      1  0.4852960000000  0.4756670000000  0.5595040000000 1.0
C      1  0.4937520000000  0.5267880000000  0.5472400000000 1.0
C      1  0.4780800000000  0.5288720000000  0.4871700000000 1.0
C      1  0.5215710000000  0.5364610000000  0.4840520000000 1.0
C      1  0.5478020000000  0.5116390000000  0.4488560000000 1.0
C      1  0.5575220000000  0.4915040000000  0.5306010000000 1.0
C      1  0.4435320000000  0.4846470000000  0.5173760000000 1.0
C      1  0.4904410000000  0.5056560000000  0.4208950000000 1.0
C      1  0.5025210000000  0.4709710000000  0.4693280000000 1.0
C      1  0.4921190000000  0.4853100000000  0.5032070000000 1.0
C      1  0.4999610000000  0.5735930000000  0.5383130000000 1.0
C      1  0.5592460000000  0.4982150000000  0.5035330000000 1.0
C      1  0.5449790000000  0.4839200000000  0.4587080000000 1.0
C      1  0.4853950000000  0.4332180000000  0.4823790000000 1.0
C      1  0.4828810000000  0.5557740000000  0.4966630000000 1.0
C      1  0.5300020000000  0.4926350000000  0.5364230000000 1.0
C      1  0.4780450000000  0.5556720000000  0.5259650000000 1.0
C      1  0.4596670000000  0.4997700000000  0.4591740000000 1.0
C      1  0.5358480000000  0.5398970000000  0.5202710000000 1.0
C      1  0.5148850000000  0.4382200000000  0.4850710000000 1.0
C      1  0.4839020000000  0.5134970000000  0.5121130000000 1.0
C      1  0.5568680000000  0.5276050000000  0.4981910000000 1.0
C      1  0.5112400000000  0.5630750000000  0.4923300000000 1.0
C      1  0.5231730000000  0.5697160000000  0.5192180000000 1.0
C      1  0.4979460000000  0.5534030000000  0.5593570000000 1.0
C      1  0.5291260000000  0.4579120000000  0.5015090000000 1.0
C      1  0.4579430000000  0.5100240000000  0.5291290000000 1.0
C      1  0.4664950000000  0.5022860000000  0.4323410000000 1.0
C      1  0.5199730000000  0.5196980000000  0.5356690000000 1.0
C      1  0.4648100000000  0.4945780000000  0.5567540000000 1.0
C      1  0.4778610000000  0.4536720000000  0.4604480000000 1.0
C      1  0.5125440000000  0.4721560000000  0.5226800000000 1.0
C      1  0.4823370000000  0.4368420000000  0.5315740000000 1.0
C      1  0.5420920000000  0.4811960000000  0.4875090000000 1.0
END
