TITL C-950533-5798-12 -5.71293895647404e-06 125000 -642.071857381383 0 0 103 (C1) n - 1
REM
REM in /home/bkarasulu/work/CARBON/AIRSS/Generating-Clusters/EDIP-Nigel-Params/with-SteepDescent/Only-C1/SD-CG/HFTN-CG
REM
REM
REM
REM
REM
REM ./C.cell (11c1c37f851c82e70ff6c80c92926a4b)
REM
REM compiler GCC version 9.2.1 20190827 (Red Hat 9.2.1-1)
REM options -cpp -mtune=generic -march=x86-64 -g -O0 -fpre-include=/usr/include/finclude/math-vector-fortran.h
REM seed 1284962854 -1561009286 1831445038 1809881123 -598229555 -1546215953 70215718 1106860533 -149558794 1396881037 -651229986 -1892008158 680971480 -906449033 -891781317 271014747 1045377128 -1369191581 65792890 -1542207949 -202633067 1740334922 -121413390 -531335605 1304914326 -156671091 570779825 1067808334 -631309599 -614856568 158513995 1971375000 2089907048
REM
CELL 1.54180   50.00000   50.00000   50.00000   90.00000   90.00000   90.00000
LATT -1
SFAC C  
C      1  0.5174620000000  0.5817040000000  0.5008740000000 1.0
C      1  0.4759100000000  0.4441670000000  0.5635400000000 1.0
C      1  0.5203610000000  0.4230200000000  0.4625360000000 1.0
C      1  0.5666010000000  0.5312760000000  0.4469830000000 1.0
C      1  0.5445950000000  0.5079160000000  0.5227910000000 1.0
C      1  0.5296150000000  0.4188260000000  0.5126460000000 1.0
C      1  0.4504280000000  0.5611160000000  0.4986960000000 1.0
C      1  0.4763520000000  0.5398310000000  0.4625890000000 1.0
C      1  0.4983780000000  0.4572810000000  0.4305030000000 1.0
C      1  0.4150170000000  0.4874930000000  0.4913210000000 1.0
C      1  0.4632310000000  0.5190890000000  0.5831850000000 1.0
C      1  0.5807100000000  0.5210820000000  0.5314890000000 1.0
C      1  0.5825790000000  0.4714830000000  0.5257920000000 1.0
C      1  0.4903540000000  0.5886380000000  0.4890000000000 1.0
C      1  0.5179740000000  0.4069400000000  0.4876030000000 1.0
C      1  0.5624480000000  0.5394820000000  0.5786960000000 1.0
C      1  0.5077590000000  0.5166800000000  0.6076070000000 1.0
C      1  0.4779690000000  0.4670710000000  0.5088110000000 1.0
C      1  0.5333830000000  0.5044040000000  0.4648920000000 1.0
C      1  0.4175400000000  0.5275990000000  0.4632780000000 1.0
C      1  0.4356660000000  0.4631580000000  0.5321970000000 1.0
C      1  0.4286710000000  0.4584060000000  0.5593120000000 1.0
C      1  0.5405680000000  0.4599690000000  0.4399770000000 1.0
C      1  0.4188050000000  0.5032140000000  0.4458900000000 1.0
C      1  0.5889180000000  0.5197120000000  0.5598720000000 1.0
C      1  0.4501640000000  0.5343180000000  0.4267950000000 1.0
C      1  0.4895930000000  0.5341300000000  0.5404290000000 1.0
C      1  0.5605130000000  0.4484380000000  0.4810700000000 1.0
C      1  0.5173580000000  0.4949960000000  0.5947030000000 1.0
C      1  0.5512420000000  0.4500220000000  0.5550160000000 1.0
C      1  0.5129460000000  0.5302710000000  0.4962560000000 1.0
C      1  0.5462050000000  0.4451180000000  0.5082490000000 1.0
C      1  0.4568520000000  0.5618160000000  0.4676460000000 1.0
C      1  0.4955710000000  0.5065030000000  0.4879500000000 1.0
C      1  0.4713620000000  0.4216000000000  0.4516550000000 1.0
C      1  0.5168320000000  0.4812460000000  0.5704470000000 1.0
C      1  0.4764450000000  0.4269290000000  0.4810660000000 1.0
C      1  0.5306000000000  0.5110960000000  0.4176110000000 1.0
C      1  0.5502200000000  0.5063480000000  0.4409040000000 1.0
C      1  0.4904440000000  0.4793280000000  0.5571880000000 1.0
C      1  0.5200640000000  0.5637730000000  0.5664320000000 1.0
C      1  0.5060430000000  0.4953730000000  0.4622630000000 1.0
C      1  0.4349570000000  0.5490200000000  0.4492900000000 1.0
C      1  0.4786430000000  0.5839540000000  0.4613010000000 1.0
C      1  0.5411240000000  0.5717010000000  0.4850260000000 1.0
C      1  0.5125110000000  0.5435740000000  0.5238390000000 1.0
C      1  0.5643840000000  0.5479380000000  0.5236800000000 1.0
C      1  0.4990020000000  0.4269990000000  0.4409730000000 1.0
C      1  0.5744450000000  0.5301600000000  0.4763700000000 1.0
C      1  0.4638460000000  0.5327830000000  0.5045180000000 1.0
C      1  0.5794410000000  0.5002650000000  0.4864740000000 1.0
C      1  0.5376620000000  0.5408740000000  0.5645920000000 1.0
C      1  0.4938570000000  0.5570320000000  0.5781840000000 1.0
C      1  0.5421130000000  0.5736050000000  0.4571750000000 1.0
C      1  0.4164790000000  0.5178530000000  0.4924140000000 1.0
C      1  0.4500340000000  0.5369950000000  0.5626830000000 1.0
C      1  0.5081830000000  0.4919550000000  0.4152080000000 1.0
C      1  0.5636890000000  0.5545240000000  0.4949710000000 1.0
C      1  0.5120890000000  0.5740050000000  0.5304170000000 1.0
C      1  0.4184680000000  0.4619710000000  0.5079850000000 1.0
C      1  0.4353060000000  0.4544700000000  0.4637030000000 1.0
C      1  0.4299770000000  0.4408630000000  0.4893220000000 1.0
C      1  0.4607670000000  0.4900590000000  0.5792660000000 1.0
C      1  0.5267050000000  0.4659150000000  0.5085000000000 1.0
C      1  0.4960650000000  0.5771160000000  0.4397800000000 1.0
C      1  0.4893890000000  0.4027400000000  0.4930900000000 1.0
C      1  0.5256550000000  0.5408270000000  0.4232940000000 1.0
C      1  0.5085050000000  0.4653860000000  0.4609710000000 1.0
C      1  0.5858840000000  0.4967650000000  0.5143590000000 1.0
C      1  0.4691600000000  0.5828830000000  0.5094480000000 1.0
C      1  0.4415690000000  0.5053610000000  0.4266910000000 1.0
C      1  0.4644720000000  0.4888880000000  0.4353900000000 1.0
C      1  0.4708810000000  0.5187700000000  0.4806680000000 1.0
C      1  0.4911780000000  0.4535560000000  0.4853120000000 1.0
C      1  0.5256610000000  0.4537650000000  0.5656130000000 1.0
C      1  0.5067170000000  0.4182320000000  0.5323630000000 1.0
C      1  0.4703610000000  0.5159940000000  0.5291010000000 1.0
C      1  0.4902790000000  0.5033580000000  0.4358600000000 1.0
C      1  0.5622920000000  0.4790740000000  0.4428830000000 1.0
C      1  0.5439270000000  0.4391650000000  0.4587210000000 1.0
C      1  0.5034830000000  0.4378280000000  0.5541800000000 1.0
C      1  0.5748200000000  0.5151670000000  0.5832440000000 1.0
C      1  0.4825570000000  0.4068240000000  0.5208640000000 1.0
C      1  0.4797140000000  0.5328240000000  0.4347250000000 1.0
C      1  0.5648160000000  0.4506290000000  0.5308030000000 1.0
C      1  0.5398500000000  0.5188240000000  0.4906120000000 1.0
C      1  0.5389260000000  0.5353830000000  0.5355990000000 1.0
C      1  0.4190640000000  0.4791640000000  0.4636620000000 1.0
C      1  0.4899840000000  0.5297810000000  0.5901810000000 1.0
C      1  0.4536060000000  0.4269380000000  0.5027430000000 1.0
C      1  0.4823770000000  0.5792180000000  0.5357160000000 1.0
C      1  0.5179920000000  0.4912230000000  0.5168840000000 1.0
C      1  0.4264960000000  0.5352650000000  0.5151510000000 1.0
C      1  0.4750090000000  0.5554760000000  0.5545980000000 1.0
C      1  0.4521690000000  0.4423490000000  0.4420570000000 1.0
C      1  0.4400200000000  0.5209460000000  0.5394830000000 1.0
C      1  0.4988770000000  0.5532830000000  0.4246010000000 1.0
C      1  0.5721230000000  0.4752570000000  0.4709670000000 1.0
C      1  0.4886780000000  0.4881790000000  0.5277210000000 1.0
C      1  0.4599240000000  0.4489240000000  0.5226600000000 1.0
C      1  0.5479740000000  0.5532430000000  0.4385480000000 1.0
C      1  0.4685600000000  0.4619820000000  0.4271070000000 1.0
C      1  0.4535590000000  0.4620360000000  0.5726990000000 1.0
END
