TITL C-950523-3027-201 -1.66168904242419e-06 125000 -554.96583464855 0 0 90 (C1) n - 1
REM
REM in /home/bkarasulu/work/CARBON/AIRSS/Generating-Clusters/EDIP-Nigel-Params/with-SteepDescent/Only-C1/SD-CG/HFTN-CG
REM
REM
REM
REM
REM
REM ./C.cell (11c1c37f851c82e70ff6c80c92926a4b)
REM
REM compiler GCC version 9.2.1 20190827 (Red Hat 9.2.1-1)
REM options -cpp -mtune=generic -march=x86-64 -g -O0 -fpre-include=/usr/include/finclude/math-vector-fortran.h
REM seed 1943555600 -1394428177 1348994861 602668283 1245012741 -689216988 37915765 -1604556354 2077762434 385671569 972517741 688289580 -1452564214 -1505838350 1659342220 951446577 1544521247 -1986142852 2098917266 -1531676142 -1975475002 -1014523106 -947128549 -2103359700 -1274702338 640178835 763231731 -707268491 -1815600866 1831823590 2018810697 -350651693 -2060583645
REM
CELL 1.54180   50.00000   50.00000   50.00000   90.00000   90.00000   90.00000
LATT -1
SFAC C  
C      1  0.5741000000000  0.4737340000000  0.4873070000000 1.0
C      1  0.4841990000000  0.5267050000000  0.4525790000000 1.0
C      1  0.5096530000000  0.4936570000000  0.4802910000000 1.0
C      1  0.5540900000000  0.5313170000000  0.4311140000000 1.0
C      1  0.4977410000000  0.5235370000000  0.4810410000000 1.0
C      1  0.4433670000000  0.4792990000000  0.5327650000000 1.0
C      1  0.5182390000000  0.4889530000000  0.5124480000000 1.0
C      1  0.5197180000000  0.5742850000000  0.5004120000000 1.0
C      1  0.5156840000000  0.5165230000000  0.5238840000000 1.0
C      1  0.4722280000000  0.5694660000000  0.4907470000000 1.0
C      1  0.4569690000000  0.4841060000000  0.4237900000000 1.0
C      1  0.4600610000000  0.5606160000000  0.5470120000000 1.0
C      1  0.4447690000000  0.5659310000000  0.4992680000000 1.0
C      1  0.4763420000000  0.5742060000000  0.4618580000000 1.0
C      1  0.5260030000000  0.5646410000000  0.4476540000000 1.0
C      1  0.4397910000000  0.5240120000000  0.5255240000000 1.0
C      1  0.4888950000000  0.4832250000000  0.5821340000000 1.0
C      1  0.4847760000000  0.4997190000000  0.5561970000000 1.0
C      1  0.5131890000000  0.3972600000000  0.4905120000000 1.0
C      1  0.5389760000000  0.4838960000000  0.5708060000000 1.0
C      1  0.5523420000000  0.5118990000000  0.4515390000000 1.0
C      1  0.4608770000000  0.5380990000000  0.5673990000000 1.0
C      1  0.4827830000000  0.4299270000000  0.5097370000000 1.0
C      1  0.4534240000000  0.5111600000000  0.5546110000000 1.0
C      1  0.4667740000000  0.4880060000000  0.5150930000000 1.0
C      1  0.4872600000000  0.5367870000000  0.5774420000000 1.0
C      1  0.5420220000000  0.5760990000000  0.5212490000000 1.0
C      1  0.5499760000000  0.4589960000000  0.4787740000000 1.0
C      1  0.4782860000000  0.4481650000000  0.5350360000000 1.0
C      1  0.4900820000000  0.4380030000000  0.4350030000000 1.0
C      1  0.4851430000000  0.4848290000000  0.4154940000000 1.0
C      1  0.5255570000000  0.4988200000000  0.4497290000000 1.0
C      1  0.5193180000000  0.4127670000000  0.5343210000000 1.0
C      1  0.5078280000000  0.5193840000000  0.4333590000000 1.0
C      1  0.5580670000000  0.5216980000000  0.4783250000000 1.0
C      1  0.4599600000000  0.5279430000000  0.4831770000000 1.0
C      1  0.4275170000000  0.5186940000000  0.4488920000000 1.0
C      1  0.4977040000000  0.5088350000000  0.4084320000000 1.0
C      1  0.5153880000000  0.4980260000000  0.5819620000000 1.0
C      1  0.4653890000000  0.5515390000000  0.4461420000000 1.0
C      1  0.4918530000000  0.5776720000000  0.5109580000000 1.0
C      1  0.4659470000000  0.5178940000000  0.5116790000000 1.0
C      1  0.5337740000000  0.5392000000000  0.5575550000000 1.0
C      1  0.4882820000000  0.4700990000000  0.4726860000000 1.0
C      1  0.5352610000000  0.4348130000000  0.5235740000000 1.0
C      1  0.5197220000000  0.4225720000000  0.4790180000000 1.0
C      1  0.5410960000000  0.4358660000000  0.4944610000000 1.0
C      1  0.5525930000000  0.4471340000000  0.5432120000000 1.0
C      1  0.4900920000000  0.4556340000000  0.5806860000000 1.0
C      1  0.4402920000000  0.5064970000000  0.4267360000000 1.0
C      1  0.4886450000000  0.5589570000000  0.5348880000000 1.0
C      1  0.5273360000000  0.4725160000000  0.4365770000000 1.0
C      1  0.5225150000000  0.5452460000000  0.4868360000000 1.0
C      1  0.5021400000000  0.5783620000000  0.4522360000000 1.0
C      1  0.4498430000000  0.4429870000000  0.4596360000000 1.0
C      1  0.4210810000000  0.5092530000000  0.5034920000000 1.0
C      1  0.4931450000000  0.4383120000000  0.4812280000000 1.0
C      1  0.4189370000000  0.4817280000000  0.5148660000000 1.0
C      1  0.5525600000000  0.4927560000000  0.5226640000000 1.0
C      1  0.5440820000000  0.4564510000000  0.4516120000000 1.0
C      1  0.4888340000000  0.4369580000000  0.5605410000000 1.0
C      1  0.5077090000000  0.4166200000000  0.5595400000000 1.0
C      1  0.4899770000000  0.5300080000000  0.5241020000000 1.0
C      1  0.4760660000000  0.4280960000000  0.4579040000000 1.0
C      1  0.4355420000000  0.5473040000000  0.4519380000000 1.0
C      1  0.5652180000000  0.5503270000000  0.4809880000000 1.0
C      1  0.4363830000000  0.5098600000000  0.4764950000000 1.0
C      1  0.5703280000000  0.5027670000000  0.4983320000000 1.0
C      1  0.4186810000000  0.4611170000000  0.4951560000000 1.0
C      1  0.5002970000000  0.4642760000000  0.4303520000000 1.0
C      1  0.5415900000000  0.4561970000000  0.5677190000000 1.0
C      1  0.4912070000000  0.4797260000000  0.5309960000000 1.0
C      1  0.4496660000000  0.4521620000000  0.5397560000000 1.0
C      1  0.4645080000000  0.4743490000000  0.4898640000000 1.0
C      1  0.5313320000000  0.5639760000000  0.5446730000000 1.0
C      1  0.4390880000000  0.5541550000000  0.5261630000000 1.0
C      1  0.5133880000000  0.5268370000000  0.5751090000000 1.0
C      1  0.4593690000000  0.4674750000000  0.4468790000000 1.0
C      1  0.5473760000000  0.5678030000000  0.4665600000000 1.0
C      1  0.4445420000000  0.4531440000000  0.4871360000000 1.0
C      1  0.5674280000000  0.5581970000000  0.5105640000000 1.0
C      1  0.5849970000000  0.4585770000000  0.5087310000000 1.0
C      1  0.5728270000000  0.5309450000000  0.5254870000000 1.0
C      1  0.4290280000000  0.5564520000000  0.4781390000000 1.0
C      1  0.5692690000000  0.4674570000000  0.5307100000000 1.0
C      1  0.5279380000000  0.5417750000000  0.4296480000000 1.0
C      1  0.5583840000000  0.5255740000000  0.5509080000000 1.0
C      1  0.5602900000000  0.4991150000000  0.5600930000000 1.0
C      1  0.5357840000000  0.5348990000000  0.5136190000000 1.0
C      1  0.4992680000000  0.4051400000000  0.5142390000000 1.0
END
