TITL C-951345-2650-700 -1.55896205872823e-06 125000 -1141.97767189866 0 0 181 (C1) n - 1
REM
REM in /home/bkarasulu/work/CARBON/AIRSS/Generating-Clusters/EDIP-Nigel-Params/with-SteepDescent/Only-C1/SD-CG/HFTN-CG
REM
REM
REM
REM
REM
REM ./C.cell (11c1c37f851c82e70ff6c80c92926a4b)
REM
REM compiler GCC version 9.2.1 20190827 (Red Hat 9.2.1-1)
REM options -cpp -mtune=generic -march=x86-64 -g -O0 -fpre-include=/usr/include/finclude/math-vector-fortran.h
REM seed 880259409 -1770409983 -1711347989 558080602 -735055812 1770899522 -785259162 967825566 1449063051 -477956271 -574437586 -1638999487 1980814374 374318961 -483540055 -1630611407 66414980 -1379326700 -538684148 272401431 -1667217092 1176856244 1841696995 2075670468 2085787074 1840605624 1138337302 -598988075 312644400 1523579749 841343893 -88184226 -1209303398
REM
CELL 1.54180   50.00000   50.00000   50.00000   90.00000   90.00000   90.00000
LATT -1
SFAC C  
C      1  0.5491180000000  0.3963790000000  0.5188600000000 1.0
C      1  0.5642870000000  0.5166590000000  0.5943750000000 1.0
C      1  0.5485260000000  0.4914480000000  0.4610600000000 1.0
C      1  0.5579540000000  0.5152970000000  0.4123910000000 1.0
C      1  0.4112010000000  0.4661120000000  0.4893280000000 1.0
C      1  0.4882900000000  0.5567110000000  0.5487070000000 1.0
C      1  0.4651670000000  0.5523260000000  0.5955010000000 1.0
C      1  0.5220190000000  0.5123280000000  0.5114830000000 1.0
C      1  0.5335890000000  0.5808150000000  0.5605190000000 1.0
C      1  0.4258640000000  0.4599690000000  0.5506050000000 1.0
C      1  0.4259560000000  0.4125200000000  0.4952600000000 1.0
C      1  0.4665760000000  0.4250310000000  0.4342760000000 1.0
C      1  0.5750430000000  0.5259060000000  0.4379940000000 1.0
C      1  0.5871110000000  0.5120910000000  0.5751440000000 1.0
C      1  0.5074260000000  0.5510150000000  0.4519820000000 1.0
C      1  0.4525640000000  0.5253150000000  0.5898420000000 1.0
C      1  0.4364620000000  0.5381220000000  0.5325010000000 1.0
C      1  0.5653350000000  0.4636960000000  0.5187760000000 1.0
C      1  0.5409550000000  0.5796900000000  0.4258030000000 1.0
C      1  0.5264760000000  0.4761270000000  0.4104720000000 1.0
C      1  0.4955530000000  0.4297680000000  0.3949930000000 1.0
C      1  0.5317290000000  0.4820880000000  0.5449850000000 1.0
C      1  0.5896500000000  0.4454460000000  0.5184480000000 1.0
C      1  0.4772880000000  0.4528350000000  0.4013740000000 1.0
C      1  0.5881720000000  0.5471960000000  0.4999850000000 1.0
C      1  0.4144830000000  0.5016630000000  0.5604200000000 1.0
C      1  0.5800870000000  0.5675740000000  0.5227800000000 1.0
C      1  0.5466970000000  0.4176690000000  0.5735760000000 1.0
C      1  0.4894770000000  0.5366670000000  0.5706020000000 1.0
C      1  0.5444660000000  0.5392700000000  0.5858180000000 1.0
C      1  0.5534590000000  0.5600960000000  0.5672100000000 1.0
C      1  0.4921580000000  0.3957640000000  0.5096650000000 1.0
C      1  0.5687330000000  0.4989320000000  0.5131170000000 1.0
C      1  0.5072600000000  0.4467380000000  0.5479010000000 1.0
C      1  0.4585480000000  0.5127920000000  0.5351680000000 1.0
C      1  0.5517740000000  0.4893830000000  0.6048510000000 1.0
C      1  0.4301480000000  0.4221510000000  0.4695700000000 1.0
C      1  0.5040690000000  0.5189620000000  0.4916380000000 1.0
C      1  0.5369170000000  0.4390780000000  0.5539830000000 1.0
C      1  0.5011240000000  0.5607900000000  0.5063240000000 1.0
C      1  0.5597210000000  0.5897470000000  0.5161900000000 1.0
C      1  0.4771090000000  0.5490150000000  0.4022580000000 1.0
C      1  0.4190670000000  0.4668550000000  0.4404950000000 1.0
C      1  0.4220630000000  0.5471870000000  0.5578260000000 1.0
C      1  0.4038200000000  0.4928610000000  0.4774660000000 1.0
C      1  0.5045360000000  0.4810600000000  0.5883410000000 1.0
C      1  0.3950500000000  0.5535050000000  0.5212600000000 1.0
C      1  0.5086740000000  0.4426350000000  0.5176220000000 1.0
C      1  0.4846700000000  0.4290710000000  0.4767520000000 1.0
C      1  0.4916970000000  0.3984870000000  0.5579650000000 1.0
C      1  0.6077100000000  0.5056300000000  0.4812300000000 1.0
C      1  0.5467960000000  0.5480760000000  0.5214180000000 1.0
C      1  0.4482440000000  0.4430180000000  0.5607140000000 1.0
C      1  0.4737170000000  0.3804340000000  0.4945770000000 1.0
C      1  0.4587520000000  0.5869360000000  0.5069890000000 1.0
C      1  0.4259500000000  0.5244260000000  0.5756480000000 1.0
C      1  0.5011900000000  0.4987490000000  0.4710010000000 1.0
C      1  0.5402630000000  0.3915090000000  0.5660140000000 1.0
C      1  0.5147850000000  0.5008420000000  0.3959840000000 1.0
C      1  0.5209280000000  0.4330760000000  0.3839460000000 1.0
C      1  0.6114190000000  0.4771520000000  0.4873790000000 1.0
C      1  0.5093920000000  0.4730510000000  0.4360930000000 1.0
C      1  0.5439640000000  0.5562440000000  0.4906140000000 1.0
C      1  0.5301270000000  0.4976890000000  0.5851720000000 1.0
C      1  0.4369240000000  0.4694880000000  0.5034020000000 1.0
C      1  0.5137950000000  0.6019020000000  0.5178960000000 1.0
C      1  0.5567570000000  0.4459420000000  0.4512940000000 1.0
C      1  0.5376060000000  0.5101410000000  0.5533020000000 1.0
C      1  0.4419560000000  0.6031870000000  0.4863790000000 1.0
C      1  0.5543850000000  0.4855520000000  0.4154970000000 1.0
C      1  0.4619680000000  0.5008450000000  0.6047350000000 1.0
C      1  0.4982280000000  0.5891860000000  0.4724940000000 1.0
C      1  0.5388260000000  0.4419390000000  0.5927460000000 1.0
C      1  0.4450540000000  0.5690560000000  0.4377160000000 1.0
C      1  0.4773100000000  0.5137090000000  0.5094500000000 1.0
C      1  0.4631840000000  0.5921580000000  0.4398950000000 1.0
C      1  0.4860170000000  0.5008660000000  0.3912870000000 1.0
C      1  0.4524390000000  0.4096090000000  0.4546700000000 1.0
C      1  0.5835110000000  0.4383490000000  0.4675240000000 1.0
C      1  0.4841380000000  0.5753400000000  0.5917680000000 1.0
C      1  0.4714920000000  0.6014180000000  0.5307930000000 1.0
C      1  0.5933910000000  0.4793810000000  0.4438250000000 1.0
C      1  0.6032330000000  0.4604890000000  0.4643050000000 1.0
C      1  0.4711180000000  0.4549900000000  0.4663470000000 1.0
C      1  0.5372980000000  0.5958080000000  0.5349630000000 1.0
C      1  0.4634130000000  0.4554950000000  0.5819730000000 1.0
C      1  0.5424510000000  0.4441670000000  0.5025680000000 1.0
C      1  0.4928140000000  0.6187370000000  0.5258020000000 1.0
C      1  0.4117410000000  0.4756450000000  0.5713110000000 1.0
C      1  0.4523080000000  0.4751190000000  0.5986280000000 1.0
C      1  0.5202450000000  0.6006000000000  0.4892830000000 1.0
C      1  0.4174510000000  0.4485940000000  0.4643680000000 1.0
C      1  0.3930840000000  0.4588390000000  0.5126890000000 1.0
C      1  0.4094020000000  0.4423710000000  0.5317290000000 1.0
C      1  0.5173690000000  0.4183250000000  0.4386380000000 1.0
C      1  0.6097580000000  0.4880240000000  0.5390160000000 1.0
C      1  0.4389120000000  0.4665930000000  0.4192550000000 1.0
C      1  0.3998170000000  0.5055550000000  0.5354820000000 1.0
C      1  0.5594380000000  0.5199770000000  0.5334420000000 1.0
C      1  0.5943130000000  0.5182230000000  0.5058580000000 1.0
C      1  0.5220770000000  0.4782450000000  0.4633600000000 1.0
C      1  0.5961340000000  0.4855570000000  0.5662380000000 1.0
C      1  0.5332210000000  0.4490870000000  0.4725290000000 1.0
C      1  0.3865580000000  0.4831360000000  0.5252980000000 1.0
C      1  0.5487700000000  0.5200330000000  0.4547420000000 1.0
C      1  0.4096000000000  0.4930620000000  0.4492080000000 1.0
C      1  0.5639280000000  0.4751790000000  0.4417290000000 1.0
C      1  0.4804930000000  0.5384990000000  0.4505650000000 1.0
C      1  0.5758670000000  0.4642300000000  0.5697780000000 1.0
C      1  0.4435190000000  0.4834530000000  0.3944410000000 1.0
C      1  0.4937180000000  0.5861240000000  0.4422890000000 1.0
C      1  0.4537700000000  0.6079220000000  0.4612880000000 1.0
C      1  0.4143350000000  0.5747100000000  0.5112410000000 1.0
C      1  0.4719070000000  0.3942950000000  0.4702310000000 1.0
C      1  0.4592880000000  0.4751040000000  0.4862640000000 1.0
C      1  0.4710220000000  0.4766600000000  0.3846820000000 1.0
C      1  0.5129970000000  0.5534730000000  0.5330500000000 1.0
C      1  0.6104600000000  0.5171420000000  0.5318660000000 1.0
C      1  0.5618300000000  0.4625820000000  0.5962440000000 1.0
C      1  0.5152200000000  0.5233270000000  0.5373460000000 1.0
C      1  0.5973430000000  0.5072700000000  0.4520580000000 1.0
C      1  0.4909810000000  0.4980280000000  0.6091160000000 1.0
C      1  0.5058320000000  0.4690040000000  0.5036090000000 1.0
C      1  0.4894900000000  0.4262640000000  0.5613870000000 1.0
C      1  0.4526970000000  0.4415590000000  0.4143610000000 1.0
C      1  0.4670110000000  0.5470920000000  0.4752980000000 1.0
C      1  0.5357830000000  0.4471380000000  0.4028230000000 1.0
C      1  0.4797330000000  0.4822060000000  0.5073790000000 1.0
C      1  0.5137550000000  0.5787190000000  0.4191190000000 1.0
C      1  0.4411560000000  0.4799860000000  0.5321430000000 1.0
C      1  0.5102030000000  0.4530630000000  0.5971450000000 1.0
C      1  0.4612430000000  0.5455970000000  0.4280850000000 1.0
C      1  0.5763590000000  0.5544820000000  0.4509910000000 1.0
C      1  0.4787250000000  0.5099370000000  0.5578500000000 1.0
C      1  0.4167660000000  0.5203420000000  0.4391390000000 1.0
C      1  0.5427500000000  0.4306760000000  0.4273940000000 1.0
C      1  0.5283550000000  0.5258520000000  0.4082040000000 1.0
C      1  0.5327760000000  0.3867750000000  0.5393270000000 1.0
C      1  0.5622690000000  0.5963200000000  0.4663020000000 1.0
C      1  0.4585100000000  0.4326990000000  0.5309530000000 1.0
C      1  0.5469890000000  0.5871060000000  0.4889240000000 1.0
C      1  0.5128430000000  0.4281320000000  0.4658790000000 1.0
C      1  0.4123960000000  0.5384190000000  0.4625780000000 1.0
C      1  0.4710490000000  0.4692350000000  0.5338210000000 1.0
C      1  0.4464820000000  0.4996300000000  0.4726930000000 1.0
C      1  0.5782720000000  0.5558680000000  0.5507740000000 1.0
C      1  0.4189930000000  0.5844370000000  0.4823640000000 1.0
C      1  0.5546690000000  0.4164170000000  0.5002520000000 1.0
C      1  0.4911970000000  0.4808670000000  0.5586800000000 1.0
C      1  0.5248060000000  0.5292660000000  0.4385840000000 1.0
C      1  0.4106510000000  0.5271440000000  0.5171480000000 1.0
C      1  0.5085120000000  0.5843700000000  0.5767310000000 1.0
C      1  0.5268120000000  0.4847990000000  0.5153730000000 1.0
C      1  0.4925980000000  0.4160870000000  0.4216290000000 1.0
C      1  0.4791810000000  0.5721220000000  0.4900480000000 1.0
C      1  0.5145740000000  0.5375150000000  0.5914030000000 1.0
C      1  0.4308280000000  0.4254540000000  0.5195100000000 1.0
C      1  0.5619950000000  0.5791650000000  0.4443170000000 1.0
C      1  0.3951000000000  0.5543170000000  0.5502480000000 1.0
C      1  0.4582750000000  0.5229110000000  0.4893090000000 1.0
C      1  0.4410520000000  0.5653260000000  0.5184850000000 1.0
C      1  0.4782420000000  0.4672880000000  0.4378650000000 1.0
C      1  0.4766410000000  0.5835130000000  0.5543910000000 1.0
C      1  0.5152380000000  0.5469990000000  0.4826800000000 1.0
C      1  0.5958910000000  0.5318070000000  0.5551730000000 1.0
C      1  0.4696330000000  0.5246380000000  0.3868110000000 1.0
C      1  0.5678570000000  0.5437180000000  0.4784660000000 1.0
C      1  0.5827040000000  0.4258450000000  0.4952700000000 1.0
C      1  0.5059310000000  0.5552960000000  0.4033320000000 1.0
C      1  0.4433840000000  0.5132270000000  0.3968980000000 1.0
C      1  0.4863930000000  0.5092190000000  0.4481250000000 1.0
C      1  0.4281100000000  0.5633680000000  0.4624160000000 1.0
C      1  0.5061680000000  0.5213280000000  0.6127590000000 1.0
C      1  0.4148550000000  0.5187930000000  0.4860160000000 1.0
C      1  0.4440660000000  0.5196700000000  0.4261120000000 1.0
C      1  0.5545920000000  0.4625240000000  0.5477090000000 1.0
C      1  0.5034420000000  0.3862570000000  0.5356220000000 1.0
C      1  0.4860940000000  0.4380190000000  0.5883560000000 1.0
C      1  0.4852300000000  0.4251110000000  0.5086330000000 1.0
C      1  0.6097380000000  0.4672060000000  0.5156440000000 1.0
C      1  0.4595630000000  0.4974650000000  0.4433250000000 1.0
END
