TITL C-951337-3020-437 5.45450502966979e-06 125000 -762.468628347676 0 0 124 (C1) n - 1
REM
REM in /home/bkarasulu/work/CARBON/AIRSS/Generating-Clusters/EDIP-Nigel-Params/with-SteepDescent/Only-C1/SD-CG/HFTN-CG
REM
REM
REM
REM
REM
REM ./C.cell (11c1c37f851c82e70ff6c80c92926a4b)
REM
REM compiler GCC version 9.2.1 20190827 (Red Hat 9.2.1-1)
REM options -cpp -mtune=generic -march=x86-64 -g -O0 -fpre-include=/usr/include/finclude/math-vector-fortran.h
REM seed 1200041959 1734553818 -778726271 488285845 1000988950 72942271 274469129 557642935 -1680193705 805135527 158500559 1240229019 1106615540 -481351307 154862599 2052485685 894553851 -399487895 -708118303 867887912 -477405786 -934656336 -93991793 649125717 738435223 653024175 -87421376 1438748536 188462824 1325178280 120829977 1342061684 -1315186507
REM
CELL 1.54180   50.00000   50.00000   50.00000   90.00000   90.00000   90.00000
LATT -1
SFAC C  
C      1  0.4355990000000  0.5267660000000  0.4928990000000 1.0
C      1  0.4817220000000  0.5549980000000  0.4268990000000 1.0
C      1  0.5150030000000  0.4496150000000  0.5267790000000 1.0
C      1  0.5479410000000  0.5131050000000  0.4262190000000 1.0
C      1  0.5551380000000  0.4885540000000  0.5296290000000 1.0
C      1  0.5646090000000  0.4859850000000  0.5006950000000 1.0
C      1  0.4585720000000  0.4992690000000  0.5259880000000 1.0
C      1  0.4511410000000  0.4658850000000  0.4997940000000 1.0
C      1  0.4600640000000  0.4576030000000  0.4266170000000 1.0
C      1  0.5831320000000  0.5022840000000  0.5531920000000 1.0
C      1  0.5306710000000  0.5269600000000  0.5827520000000 1.0
C      1  0.5833370000000  0.5306890000000  0.5482550000000 1.0
C      1  0.5446170000000  0.4395020000000  0.5254120000000 1.0
C      1  0.5597930000000  0.4405210000000  0.4907040000000 1.0
C      1  0.4442540000000  0.4366950000000  0.5351730000000 1.0
C      1  0.4748630000000  0.4022700000000  0.4903810000000 1.0
C      1  0.5410200000000  0.5293690000000  0.4909490000000 1.0
C      1  0.5431420000000  0.5426210000000  0.5617430000000 1.0
C      1  0.4885330000000  0.5062510000000  0.5881990000000 1.0
C      1  0.4648110000000  0.4476110000000  0.5172530000000 1.0
C      1  0.5623270000000  0.4598660000000  0.5391740000000 1.0
C      1  0.4176140000000  0.5038850000000  0.4912190000000 1.0
C      1  0.4881160000000  0.4976050000000  0.4079030000000 1.0
C      1  0.5882250000000  0.5083430000000  0.5048680000000 1.0
C      1  0.4939250000000  0.4620650000000  0.5673260000000 1.0
C      1  0.4476690000000  0.5356340000000  0.4673510000000 1.0
C      1  0.4792990000000  0.4319700000000  0.4957950000000 1.0
C      1  0.5073590000000  0.4843530000000  0.5822570000000 1.0
C      1  0.5364170000000  0.4856050000000  0.4861200000000 1.0
C      1  0.5072190000000  0.5140060000000  0.4514680000000 1.0
C      1  0.4561410000000  0.5638870000000  0.4718730000000 1.0
C      1  0.5094180000000  0.5550040000000  0.4140520000000 1.0
C      1  0.5995920000000  0.4871750000000  0.5314340000000 1.0
C      1  0.4421600000000  0.4596670000000  0.5551630000000 1.0
C      1  0.5029650000000  0.4847410000000  0.5305120000000 1.0
C      1  0.5625970000000  0.4592210000000  0.5691840000000 1.0
C      1  0.5807180000000  0.5383560000000  0.4560140000000 1.0
C      1  0.4562020000000  0.4955880000000  0.4596060000000 1.0
C      1  0.4717450000000  0.5016270000000  0.4885230000000 1.0
C      1  0.4246730000000  0.4889440000000  0.4661330000000 1.0
C      1  0.4908990000000  0.5962420000000  0.5057840000000 1.0
C      1  0.4722820000000  0.4099700000000  0.5389310000000 1.0
C      1  0.5182460000000  0.4108670000000  0.4658520000000 1.0
C      1  0.4721440000000  0.4210630000000  0.5655750000000 1.0
C      1  0.5014070000000  0.4805930000000  0.4543340000000 1.0
C      1  0.4910460000000  0.5232380000000  0.4921720000000 1.0
C      1  0.5259670000000  0.5338880000000  0.5373370000000 1.0
C      1  0.5798260000000  0.4596340000000  0.4980810000000 1.0
C      1  0.5432240000000  0.4837470000000  0.4296440000000 1.0
C      1  0.5550400000000  0.5457220000000  0.5103190000000 1.0
C      1  0.4261500000000  0.5331340000000  0.4456670000000 1.0
C      1  0.4664270000000  0.4502440000000  0.5713450000000 1.0
C      1  0.5314110000000  0.5423170000000  0.4668230000000 1.0
C      1  0.5292040000000  0.4250910000000  0.5644370000000 1.0
C      1  0.4217780000000  0.4593440000000  0.5021820000000 1.0
C      1  0.5231400000000  0.6040650000000  0.4860770000000 1.0
C      1  0.5115340000000  0.4698620000000  0.4811930000000 1.0
C      1  0.5338930000000  0.4981830000000  0.5774640000000 1.0
C      1  0.5620110000000  0.5698410000000  0.4922180000000 1.0
C      1  0.4335980000000  0.5465180000000  0.4221190000000 1.0
C      1  0.4890320000000  0.5975960000000  0.4519320000000 1.0
C      1  0.4325940000000  0.4903540000000  0.5392510000000 1.0
C      1  0.4166120000000  0.4586550000000  0.4715460000000 1.0
C      1  0.4522440000000  0.5279370000000  0.5174310000000 1.0
C      1  0.4711970000000  0.4712550000000  0.4515910000000 1.0
C      1  0.5277560000000  0.5032680000000  0.5279180000000 1.0
C      1  0.5009090000000  0.5685080000000  0.5054480000000 1.0
C      1  0.4988780000000  0.4696710000000  0.4093150000000 1.0
C      1  0.4605800000000  0.4517670000000  0.4726550000000 1.0
C      1  0.5045640000000  0.5183770000000  0.4220810000000 1.0
C      1  0.5250110000000  0.5818170000000  0.5514180000000 1.0
C      1  0.4597240000000  0.5373440000000  0.4168970000000 1.0
C      1  0.4623030000000  0.5040260000000  0.5775120000000 1.0
C      1  0.5040700000000  0.4364090000000  0.5528470000000 1.0
C      1  0.5451800000000  0.4159350000000  0.5427730000000 1.0
C      1  0.5495090000000  0.4491140000000  0.4644040000000 1.0
C      1  0.5793940000000  0.5322080000000  0.5204290000000 1.0
C      1  0.5901090000000  0.4594770000000  0.5262940000000 1.0
C      1  0.4927140000000  0.3980630000000  0.4683660000000 1.0
C      1  0.4814940000000  0.5424710000000  0.5145830000000 1.0
C      1  0.5259740000000  0.4364440000000  0.4520230000000 1.0
C      1  0.4899710000000  0.4798900000000  0.5015510000000 1.0
C      1  0.5299590000000  0.5312120000000  0.4096880000000 1.0
C      1  0.4738880000000  0.5739380000000  0.4493530000000 1.0
C      1  0.4505210000000  0.5715890000000  0.5012830000000 1.0
C      1  0.5601820000000  0.4738580000000  0.4507010000000 1.0
C      1  0.4144620000000  0.4853560000000  0.5150810000000 1.0
C      1  0.4647270000000  0.5925300000000  0.5154140000000 1.0
C      1  0.4196190000000  0.4354380000000  0.5192890000000 1.0
C      1  0.5861390000000  0.5140630000000  0.4738350000000 1.0
C      1  0.4825100000000  0.5036830000000  0.5448330000000 1.0
C      1  0.5427960000000  0.4431430000000  0.5808940000000 1.0
C      1  0.4360910000000  0.4401360000000  0.4596940000000 1.0
C      1  0.4616130000000  0.5523140000000  0.5613340000000 1.0
C      1  0.5249590000000  0.4141000000000  0.4945570000000 1.0
C      1  0.5749930000000  0.5218170000000  0.4317230000000 1.0
C      1  0.5235730000000  0.5089490000000  0.4988150000000 1.0
C      1  0.5456860000000  0.5705600000000  0.5662900000000 1.0
C      1  0.4500620000000  0.5743430000000  0.5457300000000 1.0
C      1  0.5129780000000  0.3946990000000  0.5118790000000 1.0
C      1  0.4381450000000  0.4407790000000  0.4317220000000 1.0
C      1  0.4310640000000  0.5655790000000  0.5252620000000 1.0
C      1  0.4849190000000  0.3936840000000  0.5173410000000 1.0
C      1  0.4944730000000  0.5320670000000  0.5394920000000 1.0
C      1  0.4618520000000  0.5081690000000  0.4173760000000 1.0
C      1  0.4256050000000  0.5186540000000  0.5511770000000 1.0
C      1  0.5617430000000  0.4882890000000  0.5734120000000 1.0
C      1  0.5260580000000  0.5723770000000  0.5226170000000 1.0
C      1  0.5128860000000  0.5894170000000  0.4634040000000 1.0
C      1  0.5424340000000  0.5900940000000  0.5038880000000 1.0
C      1  0.5011430000000  0.5788450000000  0.5652960000000 1.0
C      1  0.4867350000000  0.5569500000000  0.5749640000000 1.0
C      1  0.4178060000000  0.5044430000000  0.4406780000000 1.0
C      1  0.5179530000000  0.4669560000000  0.4329010000000 1.0
C      1  0.4372860000000  0.4951450000000  0.4219430000000 1.0
C      1  0.5015440000000  0.5319360000000  0.5831070000000 1.0
C      1  0.4477350000000  0.5271010000000  0.5680430000000 1.0
C      1  0.5584110000000  0.5592110000000  0.4633450000000 1.0
C      1  0.5082350000000  0.5623760000000  0.4750720000000 1.0
C      1  0.5831230000000  0.4921440000000  0.4546150000000 1.0
C      1  0.4182370000000  0.5395070000000  0.5317490000000 1.0
C      1  0.4895190000000  0.5362880000000  0.4656390000000 1.0
C      1  0.5084290000000  0.4395250000000  0.4983980000000 1.0
C      1  0.4785170000000  0.4504950000000  0.4068380000000 1.0
END
