TITL C-951348-1603-12 -4.85410037063149e-07 125000 -949.072782469713 0 0 153 (C1) n - 1
REM
REM in /home/bkarasulu/work/CARBON/AIRSS/Generating-Clusters/EDIP-Nigel-Params/with-SteepDescent/Only-C1/SD-CG/HFTN-CG
REM
REM
REM
REM
REM
REM ./C.cell (11c1c37f851c82e70ff6c80c92926a4b)
REM
REM compiler GCC version 9.2.1 20190827 (Red Hat 9.2.1-1)
REM options -cpp -mtune=generic -march=x86-64 -g -O0 -fpre-include=/usr/include/finclude/math-vector-fortran.h
REM seed -116703828 1558228470 2035361791 572968084 1515931821 646016405 1763110773 1213710541 -1938011422 586673559 -827236699 689284284 1358835795 -821867485 122661776 -540467270 1219343882 1271133883 -1546897763 -110209080 -2128171313 -1278875950 -1466363037 -42373026 513717218 -1499692852 -995734204 -472219612 -1421469941 -2065489964 763728786 974588548 1146971885
REM
CELL 1.54180   50.00000   50.00000   50.00000   90.00000   90.00000   90.00000
LATT -1
SFAC C  
C      1  0.4223550000000  0.5141240000000  0.5426570000000 1.0
C      1  0.5391360000000  0.4665840000000  0.4798680000000 1.0
C      1  0.5889520000000  0.5609330000000  0.4730930000000 1.0
C      1  0.4091850000000  0.4712400000000  0.5249370000000 1.0
C      1  0.5577870000000  0.5364010000000  0.5040080000000 1.0
C      1  0.4555590000000  0.5743210000000  0.4506420000000 1.0
C      1  0.5551790000000  0.4854210000000  0.5018350000000 1.0
C      1  0.5530150000000  0.4254290000000  0.5060450000000 1.0
C      1  0.4729850000000  0.4915960000000  0.4590410000000 1.0
C      1  0.4629980000000  0.4436930000000  0.5002910000000 1.0
C      1  0.4346320000000  0.5697930000000  0.4718280000000 1.0
C      1  0.5877290000000  0.5373890000000  0.5289500000000 1.0
C      1  0.5276730000000  0.4383690000000  0.5803400000000 1.0
C      1  0.4862520000000  0.4083630000000  0.5772110000000 1.0
C      1  0.4224730000000  0.4425710000000  0.4858180000000 1.0
C      1  0.4157220000000  0.4859110000000  0.5502290000000 1.0
C      1  0.4299180000000  0.5354330000000  0.5622230000000 1.0
C      1  0.5277660000000  0.5505810000000  0.5643560000000 1.0
C      1  0.5033900000000  0.3942760000000  0.5580570000000 1.0
C      1  0.5593260000000  0.5741880000000  0.4331270000000 1.0
C      1  0.5147850000000  0.5105560000000  0.5234910000000 1.0
C      1  0.4367720000000  0.4194940000000  0.4745580000000 1.0
C      1  0.4612550000000  0.5120570000000  0.5635710000000 1.0
C      1  0.5332570000000  0.5872010000000  0.4370410000000 1.0
C      1  0.5639330000000  0.5120030000000  0.4899170000000 1.0
C      1  0.4837220000000  0.4590270000000  0.5707050000000 1.0
C      1  0.4995350000000  0.3924940000000  0.4992920000000 1.0
C      1  0.4670530000000  0.5150340000000  0.6195950000000 1.0
C      1  0.4942620000000  0.4830940000000  0.4167090000000 1.0
C      1  0.5355800000000  0.4891370000000  0.4016740000000 1.0
C      1  0.4869550000000  0.6016330000000  0.5170610000000 1.0
C      1  0.4426730000000  0.4286300000000  0.5588310000000 1.0
C      1  0.5195430000000  0.5117840000000  0.4431680000000 1.0
C      1  0.4394400000000  0.4290840000000  0.5296810000000 1.0
C      1  0.4593710000000  0.4900370000000  0.5440730000000 1.0
C      1  0.4877190000000  0.4816720000000  0.4806030000000 1.0
C      1  0.5909400000000  0.5136970000000  0.4234860000000 1.0
C      1  0.5003080000000  0.6001760000000  0.5531440000000 1.0
C      1  0.5477640000000  0.5461560000000  0.4270650000000 1.0
C      1  0.5657530000000  0.5164690000000  0.5662910000000 1.0
C      1  0.4938530000000  0.6011220000000  0.4668130000000 1.0
C      1  0.5513510000000  0.5090420000000  0.5913330000000 1.0
C      1  0.4745910000000  0.4309890000000  0.4492920000000 1.0
C      1  0.4750110000000  0.5378000000000  0.6051600000000 1.0
C      1  0.4256910000000  0.4959940000000  0.4178130000000 1.0
C      1  0.4566140000000  0.5494250000000  0.5860750000000 1.0
C      1  0.5207310000000  0.5147270000000  0.5968430000000 1.0
C      1  0.4343270000000  0.4753530000000  0.5699550000000 1.0
C      1  0.5429580000000  0.4968490000000  0.4303270000000 1.0
C      1  0.5555980000000  0.4060350000000  0.5282510000000 1.0
C      1  0.5626620000000  0.5194230000000  0.4266890000000 1.0
C      1  0.4430020000000  0.4893140000000  0.5025380000000 1.0
C      1  0.5059110000000  0.5230350000000  0.5494610000000 1.0
C      1  0.5055850000000  0.4358750000000  0.5273790000000 1.0
C      1  0.4184220000000  0.5600530000000  0.5159320000000 1.0
C      1  0.5498900000000  0.5603230000000  0.5504180000000 1.0
C      1  0.4322150000000  0.4672570000000  0.4176100000000 1.0
C      1  0.5982990000000  0.5356330000000  0.4614210000000 1.0
C      1  0.5215320000000  0.5986250000000  0.5346060000000 1.0
C      1  0.5372330000000  0.5702330000000  0.4704840000000 1.0
C      1  0.4374220000000  0.5772470000000  0.5007510000000 1.0
C      1  0.4768020000000  0.4246340000000  0.5200890000000 1.0
C      1  0.4646010000000  0.5311870000000  0.5182520000000 1.0
C      1  0.5108060000000  0.5283080000000  0.5000240000000 1.0
C      1  0.5596340000000  0.5856380000000  0.5089760000000 1.0
C      1  0.5470770000000  0.5852470000000  0.5352170000000 1.0
C      1  0.3959630000000  0.5049880000000  0.4884530000000 1.0
C      1  0.5083900000000  0.4171860000000  0.4832390000000 1.0
C      1  0.5846990000000  0.4722200000000  0.4494280000000 1.0
C      1  0.5300080000000  0.4427730000000  0.4126620000000 1.0
C      1  0.5537340000000  0.4702260000000  0.4494830000000 1.0
C      1  0.5478710000000  0.4184000000000  0.5535150000000 1.0
C      1  0.5108800000000  0.4972830000000  0.6186040000000 1.0
C      1  0.5763110000000  0.5773340000000  0.4547710000000 1.0
C      1  0.5004030000000  0.5576900000000  0.4411490000000 1.0
C      1  0.4851260000000  0.4365410000000  0.4770190000000 1.0
C      1  0.5336600000000  0.5889660000000  0.4929740000000 1.0
C      1  0.4366610000000  0.5167710000000  0.5153250000000 1.0
C      1  0.4098120000000  0.5362780000000  0.4430870000000 1.0
C      1  0.4998590000000  0.5136520000000  0.4211980000000 1.0
C      1  0.4531600000000  0.4536840000000  0.5684970000000 1.0
C      1  0.5334250000000  0.5446340000000  0.4903320000000 1.0
C      1  0.4979340000000  0.4353250000000  0.5840280000000 1.0
C      1  0.5055470000000  0.4594360000000  0.4373640000000 1.0
C      1  0.4767820000000  0.5330250000000  0.5471060000000 1.0
C      1  0.4995410000000  0.4622520000000  0.5429390000000 1.0
C      1  0.4403730000000  0.4951650000000  0.4741450000000 1.0
C      1  0.4825890000000  0.5350180000000  0.4932970000000 1.0
C      1  0.3923970000000  0.4860620000000  0.5081880000000 1.0
C      1  0.5468250000000  0.4442590000000  0.4355810000000 1.0
C      1  0.4518540000000  0.5764580000000  0.5451300000000 1.0
C      1  0.4695760000000  0.4738630000000  0.5032590000000 1.0
C      1  0.5046030000000  0.5417860000000  0.6013480000000 1.0
C      1  0.4447750000000  0.4266100000000  0.4470690000000 1.0
C      1  0.5087100000000  0.5030500000000  0.5718170000000 1.0
C      1  0.5371400000000  0.4712880000000  0.5463470000000 1.0
C      1  0.5774860000000  0.5607670000000  0.5014250000000 1.0
C      1  0.4611400000000  0.5845940000000  0.5181430000000 1.0
C      1  0.5756470000000  0.4700970000000  0.5499860000000 1.0
C      1  0.4834550000000  0.4909570000000  0.5810620000000 1.0
C      1  0.4241410000000  0.5496780000000  0.4228250000000 1.0
C      1  0.4836410000000  0.4943600000000  0.6109330000000 1.0
C      1  0.5130790000000  0.5734560000000  0.4198710000000 1.0
C      1  0.5186480000000  0.4183270000000  0.5491490000000 1.0
C      1  0.5714870000000  0.4456550000000  0.5082630000000 1.0
C      1  0.5213880000000  0.4649010000000  0.3975510000000 1.0
C      1  0.4530510000000  0.4006840000000  0.4878650000000 1.0
C      1  0.4276070000000  0.5602690000000  0.5443210000000 1.0
C      1  0.4664070000000  0.4812260000000  0.4079280000000 1.0
C      1  0.4722990000000  0.5215520000000  0.4588090000000 1.0
C      1  0.4689470000000  0.5290130000000  0.4286880000000 1.0
C      1  0.5134840000000  0.5641710000000  0.5843340000000 1.0
C      1  0.5968670000000  0.4847280000000  0.4723820000000 1.0
C      1  0.4228710000000  0.5421820000000  0.4697590000000 1.0
C      1  0.5059630000000  0.6020140000000  0.4926890000000 1.0
C      1  0.5718290000000  0.5420010000000  0.5530910000000 1.0
C      1  0.5251670000000  0.5408110000000  0.4482250000000 1.0
C      1  0.6089700000000  0.5322180000000  0.4352820000000 1.0
C      1  0.4838760000000  0.5744950000000  0.4610850000000 1.0
C      1  0.5186850000000  0.4123590000000  0.4550400000000 1.0
C      1  0.5055730000000  0.4614900000000  0.4699720000000 1.0
C      1  0.4727630000000  0.3980470000000  0.5074880000000 1.0
C      1  0.5522460000000  0.4806800000000  0.5934820000000 1.0
C      1  0.5951950000000  0.4860530000000  0.4270440000000 1.0
C      1  0.5414260000000  0.3824780000000  0.5225710000000 1.0
C      1  0.4701550000000  0.5606900000000  0.5623990000000 1.0
C      1  0.4918380000000  0.5794850000000  0.5718650000000 1.0
C      1  0.4594110000000  0.4092240000000  0.5694310000000 1.0
C      1  0.4820010000000  0.4812270000000  0.5287870000000 1.0
C      1  0.5971760000000  0.5083160000000  0.5313520000000 1.0
C      1  0.4529980000000  0.5067150000000  0.4131500000000 1.0
C      1  0.5256140000000  0.4366730000000  0.5004760000000 1.0
C      1  0.5377900000000  0.4923970000000  0.5252220000000 1.0
C      1  0.4080850000000  0.5066430000000  0.4397500000000 1.0
C      1  0.5129740000000  0.5270950000000  0.3969930000000 1.0
C      1  0.4833950000000  0.5623230000000  0.4868380000000 1.0
C      1  0.5927580000000  0.4863730000000  0.5110070000000 1.0
C      1  0.5342810000000  0.4670800000000  0.5760820000000 1.0
C      1  0.4986520000000  0.4216660000000  0.4353060000000 1.0
C      1  0.4109220000000  0.5314740000000  0.4975060000000 1.0
C      1  0.5887370000000  0.5122060000000  0.4757760000000 1.0
C      1  0.5848440000000  0.4970490000000  0.5557760000000 1.0
C      1  0.4459300000000  0.5240820000000  0.4716050000000 1.0
C      1  0.5291020000000  0.5090010000000  0.3831140000000 1.0
C      1  0.4112730000000  0.4912700000000  0.4659310000000 1.0
C      1  0.4515330000000  0.5552960000000  0.4274940000000 1.0
C      1  0.5449280000000  0.4210250000000  0.4508260000000 1.0
C      1  0.5139680000000  0.3836850000000  0.5227760000000 1.0
C      1  0.4124960000000  0.4605760000000  0.4642500000000 1.0
C      1  0.4274170000000  0.4506010000000  0.4408360000000 1.0
C      1  0.5854690000000  0.4624620000000  0.5243780000000 1.0
C      1  0.5283390000000  0.5519510000000  0.4035060000000 1.0
C      1  0.4214990000000  0.4465150000000  0.5147290000000 1.0
END
