TITL C-950533-5798-500 -1.13442848153112e-06 125000 -645.623839242734 0 0 104 (C1) n - 1
REM
REM in /home/bkarasulu/work/CARBON/AIRSS/Generating-Clusters/EDIP-Nigel-Params/with-SteepDescent/Only-C1/SD-CG/HFTN-CG
REM
REM
REM
REM
REM
REM ./C.cell (11c1c37f851c82e70ff6c80c92926a4b)
REM
REM compiler GCC version 9.2.1 20190827 (Red Hat 9.2.1-1)
REM options -cpp -mtune=generic -march=x86-64 -g -O0 -fpre-include=/usr/include/finclude/math-vector-fortran.h
REM seed 1200629810 -2117944040 327633313 -1591308990 578951818 -1448010141 -1346518073 1503033872 -2019082764 943445020 -2079445948 -1735212135 1183995961 2024990415 1579244396 68112438 462265171 -1774651324 -80062428 445582799 -1371210546 789535870 1492576785 -258967816 1975219541 -1183260669 1281760626 188257844 -184658648 -1125608455 -904141470 1180759657 -831051217
REM
CELL 1.54180   50.00000   50.00000   50.00000   90.00000   90.00000   90.00000
LATT -1
SFAC C  
C      1  0.5559390000000  0.4754890000000  0.5456820000000 1.0
C      1  0.4585220000000  0.4847330000000  0.4776290000000 1.0
C      1  0.5355800000000  0.4886050000000  0.4793980000000 1.0
C      1  0.4602950000000  0.4599560000000  0.5911340000000 1.0
C      1  0.4456050000000  0.4293050000000  0.5258320000000 1.0
C      1  0.5483690000000  0.4292200000000  0.5365810000000 1.0
C      1  0.5583370000000  0.5755370000000  0.5104010000000 1.0
C      1  0.5119640000000  0.5389050000000  0.5220060000000 1.0
C      1  0.5332160000000  0.5734580000000  0.4959110000000 1.0
C      1  0.5576220000000  0.5191970000000  0.4317410000000 1.0
C      1  0.5167920000000  0.4811730000000  0.4240800000000 1.0
C      1  0.4796430000000  0.4797210000000  0.5910130000000 1.0
C      1  0.4646660000000  0.4374270000000  0.4316930000000 1.0
C      1  0.5381070000000  0.5674130000000  0.4487920000000 1.0
C      1  0.4731570000000  0.4193040000000  0.5283360000000 1.0
C      1  0.4632000000000  0.4654870000000  0.4391610000000 1.0
C      1  0.4726460000000  0.4683540000000  0.5293220000000 1.0
C      1  0.5120080000000  0.4501150000000  0.5625400000000 1.0
C      1  0.5543320000000  0.4519130000000  0.4410650000000 1.0
C      1  0.4834350000000  0.4252970000000  0.4493810000000 1.0
C      1  0.4913590000000  0.4565350000000  0.4839030000000 1.0
C      1  0.4634860000000  0.5159700000000  0.5417000000000 1.0
C      1  0.4448560000000  0.4416010000000  0.4980960000000 1.0
C      1  0.4841090000000  0.5515660000000  0.5757990000000 1.0
C      1  0.5228970000000  0.4627170000000  0.5212520000000 1.0
C      1  0.4162930000000  0.5556110000000  0.5084110000000 1.0
C      1  0.4973480000000  0.4993470000000  0.5079750000000 1.0
C      1  0.5729000000000  0.5241090000000  0.4566880000000 1.0
C      1  0.5342230000000  0.4361730000000  0.4594290000000 1.0
C      1  0.4372730000000  0.4491410000000  0.5465090000000 1.0
C      1  0.4675460000000  0.5137250000000  0.4675090000000 1.0
C      1  0.4148400000000  0.5294540000000  0.5183040000000 1.0
C      1  0.4977670000000  0.4477790000000  0.5344970000000 1.0
C      1  0.5370590000000  0.5191580000000  0.5256670000000 1.0
C      1  0.5448900000000  0.4725870000000  0.4212640000000 1.0
C      1  0.5686000000000  0.4718730000000  0.5188590000000 1.0
C      1  0.4970070000000  0.5168160000000  0.4553750000000 1.0
C      1  0.4180140000000  0.4937860000000  0.4520570000000 1.0
C      1  0.4343630000000  0.4719350000000  0.4631300000000 1.0
C      1  0.5101870000000  0.4312690000000  0.4465350000000 1.0
C      1  0.4891370000000  0.4686650000000  0.4566940000000 1.0
C      1  0.5626140000000  0.5539760000000  0.5531370000000 1.0
C      1  0.5311710000000  0.4918550000000  0.5405400000000 1.0
C      1  0.5830490000000  0.4581280000000  0.4472490000000 1.0
C      1  0.4805950000000  0.5710290000000  0.4693140000000 1.0
C      1  0.4800650000000  0.5129490000000  0.4152940000000 1.0
C      1  0.5615350000000  0.5283140000000  0.5417360000000 1.0
C      1  0.5555100000000  0.4436670000000  0.5115000000000 1.0
C      1  0.4562020000000  0.5699880000000  0.5408240000000 1.0
C      1  0.5508780000000  0.5760220000000  0.5402090000000 1.0
C      1  0.4773270000000  0.4208010000000  0.4770990000000 1.0
C      1  0.4970030000000  0.5272490000000  0.4999750000000 1.0
C      1  0.4924970000000  0.5537510000000  0.4437030000000 1.0
C      1  0.4467470000000  0.4462820000000  0.5725830000000 1.0
C      1  0.5047260000000  0.4748440000000  0.5774330000000 1.0
C      1  0.5901700000000  0.4713180000000  0.4722310000000 1.0
C      1  0.5766570000000  0.5544610000000  0.4983980000000 1.0
C      1  0.4189760000000  0.4801960000000  0.5095700000000 1.0
C      1  0.5350030000000  0.5529910000000  0.4740620000000 1.0
C      1  0.5588740000000  0.4681280000000  0.4759780000000 1.0
C      1  0.5347300000000  0.4344180000000  0.4896020000000 1.0
C      1  0.4202250000000  0.5245510000000  0.5474110000000 1.0
C      1  0.5129400000000  0.5315280000000  0.4758200000000 1.0
C      1  0.4223090000000  0.4591060000000  0.4890420000000 1.0
C      1  0.5201570000000  0.5544900000000  0.4322130000000 1.0
C      1  0.5971230000000  0.5433120000000  0.5144630000000 1.0
C      1  0.5621350000000  0.4947010000000  0.4190830000000 1.0
C      1  0.4824390000000  0.4957150000000  0.5317020000000 1.0
C      1  0.4670270000000  0.5315890000000  0.4916230000000 1.0
C      1  0.4855640000000  0.5761990000000  0.4999750000000 1.0
C      1  0.5104930000000  0.4889410000000  0.4528960000000 1.0
C      1  0.4754670000000  0.5067100000000  0.5970160000000 1.0
C      1  0.5751510000000  0.4997550000000  0.5056370000000 1.0
C      1  0.4886550000000  0.4176130000000  0.5037290000000 1.0
C      1  0.5124090000000  0.4763420000000  0.4970210000000 1.0
C      1  0.4714610000000  0.5388230000000  0.4276810000000 1.0
C      1  0.4497560000000  0.5301190000000  0.4464490000000 1.0
C      1  0.5436540000000  0.4492450000000  0.5575970000000 1.0
C      1  0.4367240000000  0.5701700000000  0.4956140000000 1.0
C      1  0.5169930000000  0.4185570000000  0.5070220000000 1.0
C      1  0.5117970000000  0.5682240000000  0.5155190000000 1.0
C      1  0.5263250000000  0.4123880000000  0.5328160000000 1.0
C      1  0.5898240000000  0.4992630000000  0.4790760000000 1.0
C      1  0.4394040000000  0.5018470000000  0.5508340000000 1.0
C      1  0.4331270000000  0.5470560000000  0.5616100000000 1.0
C      1  0.5108990000000  0.5585910000000  0.5651920000000 1.0
C      1  0.4128560000000  0.5068970000000  0.4999810000000 1.0
C      1  0.4076740000000  0.5097640000000  0.4727000000000 1.0
C      1  0.5292790000000  0.5274050000000  0.4272590000000 1.0
C      1  0.4352220000000  0.4766890000000  0.5345850000000 1.0
C      1  0.4583220000000  0.4909050000000  0.4205140000000 1.0
C      1  0.5194180000000  0.4973780000000  0.5673480000000 1.0
C      1  0.5594090000000  0.5364910000000  0.4805880000000 1.0
C      1  0.5106290000000  0.5084370000000  0.4133190000000 1.0
C      1  0.4353680000000  0.5075380000000  0.4322630000000 1.0
C      1  0.4548420000000  0.5554150000000  0.4754890000000 1.0
C      1  0.5177460000000  0.5233820000000  0.5795930000000 1.0
C      1  0.4592260000000  0.5778730000000  0.5135190000000 1.0
C      1  0.4663440000000  0.4633850000000  0.4991960000000 1.0
C      1  0.4925320000000  0.5290630000000  0.5932650000000 1.0
C      1  0.5850670000000  0.5205000000000  0.5256280000000 1.0
C      1  0.5205040000000  0.5767260000000  0.5436640000000 1.0
C      1  0.4627550000000  0.5444970000000  0.5550940000000 1.0
C      1  0.5488320000000  0.5120250000000  0.4971630000000 1.0
END
