TITL C-950528-5794-287 -2.8996246622348e-06 125000 -538.936185713686 0 0 87 (C1) n - 1
REM
REM in /home/bkarasulu/work/CARBON/AIRSS/Generating-Clusters/EDIP-Nigel-Params/with-SteepDescent/Only-C1/SD-CG/HFTN-CG
REM
REM
REM
REM
REM
REM ./C.cell (11c1c37f851c82e70ff6c80c92926a4b)
REM
REM compiler GCC version 9.2.1 20190827 (Red Hat 9.2.1-1)
REM options -cpp -mtune=generic -march=x86-64 -g -O0 -fpre-include=/usr/include/finclude/math-vector-fortran.h
REM seed -1434249746 1924753870 -1957128956 -4965258 -1428109769 401482813 -1157845424 -756185398 492050774 339566431 99238143 -182968640 269047506 -1636269735 -2063667983 2042239885 616071701 1159155075 -1154571783 1838967576 1284208467 380159274 1063628907 1240310254 -2120304747 -2035271209 -1793548331 -1527652971 -782432324 794896397 1758050982 2068111931 1161154757
REM
CELL 1.54180   50.00000   50.00000   50.00000   90.00000   90.00000   90.00000
LATT -1
SFAC C  
C      1  0.5001190000000  0.5766940000000  0.4833170000000 1.0
C      1  0.4709800000000  0.5889370000000  0.5508230000000 1.0
C      1  0.5009400000000  0.5388580000000  0.4413530000000 1.0
C      1  0.4859400000000  0.4885570000000  0.5090480000000 1.0
C      1  0.4942410000000  0.4723330000000  0.4639580000000 1.0
C      1  0.4911820000000  0.4835250000000  0.5382320000000 1.0
C      1  0.4860080000000  0.5309030000000  0.5336250000000 1.0
C      1  0.5393350000000  0.4906220000000  0.4293720000000 1.0
C      1  0.5633650000000  0.5100810000000  0.5420040000000 1.0
C      1  0.4740370000000  0.5172180000000  0.5094160000000 1.0
C      1  0.4225090000000  0.4489190000000  0.5063250000000 1.0
C      1  0.4540680000000  0.5615680000000  0.4582010000000 1.0
C      1  0.4400480000000  0.5196570000000  0.4559580000000 1.0
C      1  0.5055160000000  0.4311850000000  0.5242330000000 1.0
C      1  0.5267360000000  0.5205720000000  0.5923450000000 1.0
C      1  0.5306800000000  0.4424730000000  0.5325750000000 1.0
C      1  0.5807800000000  0.5055740000000  0.4712480000000 1.0
C      1  0.5050750000000  0.5464170000000  0.5152940000000 1.0
C      1  0.4522910000000  0.5397930000000  0.4378680000000 1.0
C      1  0.4187510000000  0.4685940000000  0.4651020000000 1.0
C      1  0.5161290000000  0.4248880000000  0.4774540000000 1.0
C      1  0.4156610000000  0.4730000000000  0.4930470000000 1.0
C      1  0.4422090000000  0.4724260000000  0.4496170000000 1.0
C      1  0.5620670000000  0.5453660000000  0.5729430000000 1.0
C      1  0.5174120000000  0.5044950000000  0.4142160000000 1.0
C      1  0.4208380000000  0.4984370000000  0.5102040000000 1.0
C      1  0.5001360000000  0.5203020000000  0.4652030000000 1.0
C      1  0.4584000000000  0.4183410000000  0.4719230000000 1.0
C      1  0.5446250000000  0.5153260000000  0.4474790000000 1.0
C      1  0.4681850000000  0.4324930000000  0.4937260000000 1.0
C      1  0.4688140000000  0.4722420000000  0.5546800000000 1.0
C      1  0.5737820000000  0.4745650000000  0.5072220000000 1.0
C      1  0.4424880000000  0.5456460000000  0.5221600000000 1.0
C      1  0.4553610000000  0.5182720000000  0.5673400000000 1.0
C      1  0.5028460000000  0.4698380000000  0.4905480000000 1.0
C      1  0.5770170000000  0.5194610000000  0.4961970000000 1.0
C      1  0.4316530000000  0.5256420000000  0.5029790000000 1.0
C      1  0.5248110000000  0.5666090000000  0.4739150000000 1.0
C      1  0.4606600000000  0.5402550000000  0.5468410000000 1.0
C      1  0.5015980000000  0.5778980000000  0.5129440000000 1.0
C      1  0.5304810000000  0.4823630000000  0.4874610000000 1.0
C      1  0.4557460000000  0.4946130000000  0.4637500000000 1.0
C      1  0.5253450000000  0.5323000000000  0.4269130000000 1.0
C      1  0.5307920000000  0.5298440000000  0.5091350000000 1.0
C      1  0.4775520000000  0.5320850000000  0.4255030000000 1.0
C      1  0.5669600000000  0.5386310000000  0.5463810000000 1.0
C      1  0.5150080000000  0.4963620000000  0.5518890000000 1.0
C      1  0.5524590000000  0.4422680000000  0.5117040000000 1.0
C      1  0.5573330000000  0.5530170000000  0.5236550000000 1.0
C      1  0.5441560000000  0.4365990000000  0.4823670000000 1.0
C      1  0.4516330000000  0.4522610000000  0.5088120000000 1.0
C      1  0.4975940000000  0.4386100000000  0.4967990000000 1.0
C      1  0.4977910000000  0.4499330000000  0.5667960000000 1.0
C      1  0.4651550000000  0.5648210000000  0.5608110000000 1.0
C      1  0.4848520000000  0.4331450000000  0.5458590000000 1.0
C      1  0.4560070000000  0.5683840000000  0.5071680000000 1.0
C      1  0.5287310000000  0.5130910000000  0.4780110000000 1.0
C      1  0.5255670000000  0.4544250000000  0.5591090000000 1.0
C      1  0.4255110000000  0.4932770000000  0.5373550000000 1.0
C      1  0.4724020000000  0.5609590000000  0.4820920000000 1.0
C      1  0.5474110000000  0.4640400000000  0.4695120000000 1.0
C      1  0.5734020000000  0.5191420000000  0.4476170000000 1.0
C      1  0.4847930000000  0.4963670000000  0.4536130000000 1.0
C      1  0.5683770000000  0.5479730000000  0.4975980000000 1.0
C      1  0.4724470000000  0.4283490000000  0.4498190000000 1.0
C      1  0.5539310000000  0.5211670000000  0.5852680000000 1.0
C      1  0.4865480000000  0.4645960000000  0.4207860000000 1.0
C      1  0.5612430000000  0.4966170000000  0.5693280000000 1.0
C      1  0.4746790000000  0.5859550000000  0.5229580000000 1.0
C      1  0.4889410000000  0.4959030000000  0.4225840000000 1.0
C      1  0.5360970000000  0.5058050000000  0.5297770000000 1.0
C      1  0.5064400000000  0.5144480000000  0.5743390000000 1.0
C      1  0.5501310000000  0.5576530000000  0.4783140000000 1.0
C      1  0.5408080000000  0.4755100000000  0.5719180000000 1.0
C      1  0.4309200000000  0.5368800000000  0.4767240000000 1.0
C      1  0.4794230000000  0.5148520000000  0.5816140000000 1.0
C      1  0.4589510000000  0.4483290000000  0.5382490000000 1.0
C      1  0.5027570000000  0.4268250000000  0.4492360000000 1.0
C      1  0.5429060000000  0.4800690000000  0.5137180000000 1.0
C      1  0.5117810000000  0.4492420000000  0.4308170000000 1.0
C      1  0.4584880000000  0.4821460000000  0.4971060000000 1.0
C      1  0.5757130000000  0.4765280000000  0.4762050000000 1.0
C      1  0.5813440000000  0.5015180000000  0.5193530000000 1.0
C      1  0.5329510000000  0.4665260000000  0.4429810000000 1.0
C      1  0.4458540000000  0.4927220000000  0.5566860000000 1.0
C      1  0.4622880000000  0.4527620000000  0.4354600000000 1.0
C      1  0.4830080000000  0.5331060000000  0.4859100000000 1.0
END
