TITL C-951348-1603-445 2.11910676683212e-06 125000 -1213.30058831095 0 0 195 (C1) n - 1
REM
REM in /home/bkarasulu/work/CARBON/AIRSS/Generating-Clusters/EDIP-Nigel-Params/with-SteepDescent/Only-C1/SD-CG/HFTN-CG
REM
REM
REM
REM
REM
REM ./C.cell (11c1c37f851c82e70ff6c80c92926a4b)
REM
REM compiler GCC version 9.2.1 20190827 (Red Hat 9.2.1-1)
REM options -cpp -mtune=generic -march=x86-64 -g -O0 -fpre-include=/usr/include/finclude/math-vector-fortran.h
REM seed -258719226 -1738936746 1030850740 -1460434217 538985630 -572135438 -1766010111 550775556 -1483512957 1413128420 1013637236 -1280171403 1676946960 1188911386 83394727 1947255688 732820823 1499812432 -392325494 521860856 2050422853 731309859 -931513133 1732750716 -402490859 1469196762 1833599743 889510918 344652507 1042644075 551380039 1008109088 254561526
REM
CELL 1.54180   50.00000   50.00000   50.00000   90.00000   90.00000   90.00000
LATT -1
SFAC C  
C      1  0.5366460000000  0.3643250000000  0.4483420000000 1.0
C      1  0.4592320000000  0.4787850000000  0.6218310000000 1.0
C      1  0.4099560000000  0.4465680000000  0.4804190000000 1.0
C      1  0.4137770000000  0.5495110000000  0.4893230000000 1.0
C      1  0.4541530000000  0.3966300000000  0.5453140000000 1.0
C      1  0.5871830000000  0.4947110000000  0.5396630000000 1.0
C      1  0.4763560000000  0.4686090000000  0.5384120000000 1.0
C      1  0.5701300000000  0.5185980000000  0.3981760000000 1.0
C      1  0.4810870000000  0.4638650000000  0.6147020000000 1.0
C      1  0.4533080000000  0.5694760000000  0.5142150000000 1.0
C      1  0.5609590000000  0.4717000000000  0.4132680000000 1.0
C      1  0.4958230000000  0.4668270000000  0.3757030000000 1.0
C      1  0.4469110000000  0.5894320000000  0.4923970000000 1.0
C      1  0.5556710000000  0.4611620000000  0.5244920000000 1.0
C      1  0.5559410000000  0.4006110000000  0.5041800000000 1.0
C      1  0.4359120000000  0.5190230000000  0.5197880000000 1.0
C      1  0.5192370000000  0.4709770000000  0.4765480000000 1.0
C      1  0.5647740000000  0.4487020000000  0.5899350000000 1.0
C      1  0.5367870000000  0.5023850000000  0.4431640000000 1.0
C      1  0.5302480000000  0.5275840000000  0.5462350000000 1.0
C      1  0.6087480000000  0.5299510000000  0.5076160000000 1.0
C      1  0.4335210000000  0.5857960000000  0.4471750000000 1.0
C      1  0.3943720000000  0.4976710000000  0.4778280000000 1.0
C      1  0.5502140000000  0.5473660000000  0.6067170000000 1.0
C      1  0.5269430000000  0.5091020000000  0.4972570000000 1.0
C      1  0.5017940000000  0.5552820000000  0.4972030000000 1.0
C      1  0.4807470000000  0.5746480000000  0.5801890000000 1.0
C      1  0.4311210000000  0.4338350000000  0.5590340000000 1.0
C      1  0.4745000000000  0.4492560000000  0.4835090000000 1.0
C      1  0.5320010000000  0.5782950000000  0.5685540000000 1.0
C      1  0.4977560000000  0.5030780000000  0.4993090000000 1.0
C      1  0.4724820000000  0.4868680000000  0.5620730000000 1.0
C      1  0.5031230000000  0.5752620000000  0.4753500000000 1.0
C      1  0.4377130000000  0.4942050000000  0.6122570000000 1.0
C      1  0.5425290000000  0.5138460000000  0.5233000000000 1.0
C      1  0.5666500000000  0.4667500000000  0.4984310000000 1.0
C      1  0.4841630000000  0.5661280000000  0.5194020000000 1.0
C      1  0.5604360000000  0.4446730000000  0.4784130000000 1.0
C      1  0.6011840000000  0.4310820000000  0.4851520000000 1.0
C      1  0.4879210000000  0.4373340000000  0.3997860000000 1.0
C      1  0.5591680000000  0.4829050000000  0.4428360000000 1.0
C      1  0.5944580000000  0.5356560000000  0.5556440000000 1.0
C      1  0.4726660000000  0.4290530000000  0.4610120000000 1.0
C      1  0.5443540000000  0.6140820000000  0.5094980000000 1.0
C      1  0.3892810000000  0.4788940000000  0.5472520000000 1.0
C      1  0.4656240000000  0.5432450000000  0.5620320000000 1.0
C      1  0.5844360000000  0.5706330000000  0.4532190000000 1.0
C      1  0.4969880000000  0.4661870000000  0.5927430000000 1.0
C      1  0.4574320000000  0.5330010000000  0.4784250000000 1.0
C      1  0.5151450000000  0.4493540000000  0.3894690000000 1.0
C      1  0.5987610000000  0.4396670000000  0.4373970000000 1.0
C      1  0.5857800000000  0.5743290000000  0.5017420000000 1.0
C      1  0.5635160000000  0.4918010000000  0.3926540000000 1.0
C      1  0.4928230000000  0.5322060000000  0.4312700000000 1.0
C      1  0.5446780000000  0.4886980000000  0.5696640000000 1.0
C      1  0.5317970000000  0.4602350000000  0.4131800000000 1.0
C      1  0.5677230000000  0.4108500000000  0.4505730000000 1.0
C      1  0.4781130000000  0.5281710000000  0.5923070000000 1.0
C      1  0.5415080000000  0.4599070000000  0.4594670000000 1.0
C      1  0.4229670000000  0.4243260000000  0.4635740000000 1.0
C      1  0.5272090000000  0.4403970000000  0.4399980000000 1.0
C      1  0.4501140000000  0.4898630000000  0.4787010000000 1.0
C      1  0.4581550000000  0.4342720000000  0.4013370000000 1.0
C      1  0.6180110000000  0.4878750000000  0.4923060000000 1.0
C      1  0.4303740000000  0.5602580000000  0.5809800000000 1.0
C      1  0.5301510000000  0.6124390000000  0.4858250000000 1.0
C      1  0.4456390000000  0.4989860000000  0.5604940000000 1.0
C      1  0.4854600000000  0.4908380000000  0.3881540000000 1.0
C      1  0.4972490000000  0.4785840000000  0.5190790000000 1.0
C      1  0.4529790000000  0.4462500000000  0.5039130000000 1.0
C      1  0.5030450000000  0.5305380000000  0.4603230000000 1.0
C      1  0.4300180000000  0.4600430000000  0.5734050000000 1.0
C      1  0.5872640000000  0.4898450000000  0.4973530000000 1.0
C      1  0.4340340000000  0.5069070000000  0.4613540000000 1.0
C      1  0.4843760000000  0.3932260000000  0.4937270000000 1.0
C      1  0.5459620000000  0.5954680000000  0.4677040000000 1.0
C      1  0.5436820000000  0.5486680000000  0.4690570000000 1.0
C      1  0.5423750000000  0.5201960000000  0.5734240000000 1.0
C      1  0.4133050000000  0.5434510000000  0.4233860000000 1.0
C      1  0.4375750000000  0.4200900000000  0.5047310000000 1.0
C      1  0.4678710000000  0.4014250000000  0.4727010000000 1.0
C      1  0.4586870000000  0.4221370000000  0.5563160000000 1.0
C      1  0.4137720000000  0.4748510000000  0.4385230000000 1.0
C      1  0.5219860000000  0.5485650000000  0.5999990000000 1.0
C      1  0.5386860000000  0.5532920000000  0.4136800000000 1.0
C      1  0.4483490000000  0.5234340000000  0.5461870000000 1.0
C      1  0.4923740000000  0.5071870000000  0.5701900000000 1.0
C      1  0.5817110000000  0.4466000000000  0.5352970000000 1.0
C      1  0.4043960000000  0.5179780000000  0.5240500000000 1.0
C      1  0.4444950000000  0.4589710000000  0.4038570000000 1.0
C      1  0.5601180000000  0.5356180000000  0.5142710000000 1.0
C      1  0.5280440000000  0.5730970000000  0.4581530000000 1.0
C      1  0.6093880000000  0.5588830000000  0.5040510000000 1.0
C      1  0.5291370000000  0.4417770000000  0.5167820000000 1.0
C      1  0.4088170000000  0.4968610000000  0.4220880000000 1.0
C      1  0.6012620000000  0.4503080000000  0.4629260000000 1.0
C      1  0.4195960000000  0.4830790000000  0.5919410000000 1.0
C      1  0.5851340000000  0.4964900000000  0.4536650000000 1.0
C      1  0.5156810000000  0.5040590000000  0.6127660000000 1.0
C      1  0.5022200000000  0.5240420000000  0.5464280000000 1.0
C      1  0.4041900000000  0.4722930000000  0.4656810000000 1.0
C      1  0.5233170000000  0.4330190000000  0.5716750000000 1.0
C      1  0.4341150000000  0.5242650000000  0.6141210000000 1.0
C      1  0.5557540000000  0.4895160000000  0.5384050000000 1.0
C      1  0.5407590000000  0.5561740000000  0.5005330000000 1.0
C      1  0.5808920000000  0.4217900000000  0.4283880000000 1.0
C      1  0.5165110000000  0.3693650000000  0.4654290000000 1.0
C      1  0.4357770000000  0.4585060000000  0.4306790000000 1.0
C      1  0.5701140000000  0.5462610000000  0.4544360000000 1.0
C      1  0.4813390000000  0.4388720000000  0.5452710000000 1.0
C      1  0.5281830000000  0.5070230000000  0.3937690000000 1.0
C      1  0.4839970000000  0.5526430000000  0.4094560000000 1.0
C      1  0.4090830000000  0.5635940000000  0.5356390000000 1.0
C      1  0.5529520000000  0.5571270000000  0.5694660000000 1.0
C      1  0.4598150000000  0.6009010000000  0.4479770000000 1.0
C      1  0.3955870000000  0.5068260000000  0.5516080000000 1.0
C      1  0.5908730000000  0.4868810000000  0.5778100000000 1.0
C      1  0.4479310000000  0.4151990000000  0.4200860000000 1.0
C      1  0.4539680000000  0.5437490000000  0.4491670000000 1.0
C      1  0.4385210000000  0.4041430000000  0.4795020000000 1.0
C      1  0.4750110000000  0.5947520000000  0.5590950000000 1.0
C      1  0.4130350000000  0.4250080000000  0.5346130000000 1.0
C      1  0.5808610000000  0.4110750000000  0.4773600000000 1.0
C      1  0.5302550000000  0.5209360000000  0.4672150000000 1.0
C      1  0.5179300000000  0.4026490000000  0.5343780000000 1.0
C      1  0.3934090000000  0.4965130000000  0.5062920000000 1.0
C      1  0.4309620000000  0.5689130000000  0.5524000000000 1.0
C      1  0.4374010000000  0.5605190000000  0.4309980000000 1.0
C      1  0.4498000000000  0.4694370000000  0.5235170000000 1.0
C      1  0.5653640000000  0.4762680000000  0.5875560000000 1.0
C      1  0.4410270000000  0.5430970000000  0.5013800000000 1.0
C      1  0.5081100000000  0.4578180000000  0.5011630000000 1.0
C      1  0.5983280000000  0.4688270000000  0.5511530000000 1.0
C      1  0.5823810000000  0.5211570000000  0.4957530000000 1.0
C      1  0.4871830000000  0.5307250000000  0.4857850000000 1.0
C      1  0.5381860000000  0.4140180000000  0.4540550000000 1.0
C      1  0.4996810000000  0.6031850000000  0.4860490000000 1.0
C      1  0.6293060000000  0.5138880000000  0.4942800000000 1.0
C      1  0.4717760000000  0.4739680000000  0.4651940000000 1.0
C      1  0.4485300000000  0.4941100000000  0.5073350000000 1.0
C      1  0.5037540000000  0.5287520000000  0.6083690000000 1.0
C      1  0.5479490000000  0.4040780000000  0.5315850000000 1.0
C      1  0.5724450000000  0.5542580000000  0.5462380000000 1.0
C      1  0.4244250000000  0.5797000000000  0.4758700000000 1.0
C      1  0.4261530000000  0.5179610000000  0.4157380000000 1.0
C      1  0.5702460000000  0.5289230000000  0.5990200000000 1.0
C      1  0.5453650000000  0.5317770000000  0.3975030000000 1.0
C      1  0.4917310000000  0.5400390000000  0.3846980000000 1.0
C      1  0.5410010000000  0.4230910000000  0.4920090000000 1.0
C      1  0.4171950000000  0.5349350000000  0.5918520000000 1.0
C      1  0.5244720000000  0.5726720000000  0.4277920000000 1.0
C      1  0.4804950000000  0.5959370000000  0.4293970000000 1.0
C      1  0.4783820000000  0.5070390000000  0.4361440000000 1.0
C      1  0.5977620000000  0.4383340000000  0.5123190000000 1.0
C      1  0.3962260000000  0.5354310000000  0.4442140000000 1.0
C      1  0.5744410000000  0.5849880000000  0.4754190000000 1.0
C      1  0.5206920000000  0.4899850000000  0.4191110000000 1.0
C      1  0.5856670000000  0.5177930000000  0.5772950000000 1.0
C      1  0.4983100000000  0.6011610000000  0.5411670000000 1.0
C      1  0.5234070000000  0.3894310000000  0.4464560000000 1.0
C      1  0.5108000000000  0.4295920000000  0.5447560000000 1.0
C      1  0.4268160000000  0.4757960000000  0.5464240000000 1.0
C      1  0.4901390000000  0.4866380000000  0.4180670000000 1.0
C      1  0.4073090000000  0.5241110000000  0.4683850000000 1.0
C      1  0.6073450000000  0.4790900000000  0.4651750000000 1.0
C      1  0.4966140000000  0.4383390000000  0.4426760000000 1.0
C      1  0.4791600000000  0.4603600000000  0.4300150000000 1.0
C      1  0.3915920000000  0.4710310000000  0.5199090000000 1.0
C      1  0.6063630000000  0.5192690000000  0.5355320000000 1.0
C      1  0.4116140000000  0.5089420000000  0.5767980000000 1.0
C      1  0.5030280000000  0.3926680000000  0.5129930000000 1.0
C      1  0.4442230000000  0.4326420000000  0.4435790000000 1.0
C      1  0.3982530000000  0.5469490000000  0.5159750000000 1.0
C      1  0.4487260000000  0.5164960000000  0.4367200000000 1.0
C      1  0.5235670000000  0.5867240000000  0.5428650000000 1.0
C      1  0.4491350000000  0.5903420000000  0.5456670000000 1.0
C      1  0.4322040000000  0.4007130000000  0.5280310000000 1.0
C      1  0.5850510000000  0.5239000000000  0.4659170000000 1.0
C      1  0.5518180000000  0.4306120000000  0.5733840000000 1.0
C      1  0.4559330000000  0.5613320000000  0.4087340000000 1.0
C      1  0.5107220000000  0.5725770000000  0.5881460000000 1.0
C      1  0.4037370000000  0.4458360000000  0.5103850000000 1.0
C      1  0.4979230000000  0.5780140000000  0.4164490000000 1.0
C      1  0.5125690000000  0.4909020000000  0.5870190000000 1.0
C      1  0.4552820000000  0.5656780000000  0.5970710000000 1.0
C      1  0.4589390000000  0.5406000000000  0.6136210000000 1.0
C      1  0.5642130000000  0.4240340000000  0.5479120000000 1.0
C      1  0.5088650000000  0.4421530000000  0.5941820000000 1.0
C      1  0.4884190000000  0.5494700000000  0.5445990000000 1.0
C      1  0.4678940000000  0.6020880000000  0.4757830000000 1.0
C      1  0.4894290000000  0.6036170000000  0.5143400000000 1.0
C      1  0.5704090000000  0.5769680000000  0.5259870000000 1.0
C      1  0.5019210000000  0.5142210000000  0.3796110000000 1.0
C      1  0.4970000000000  0.4904090000000  0.4691280000000 1.0
C      1  0.5427280000000  0.5866340000000  0.5195640000000 1.0
END
