TITL C-950529-3362-681 9.91711980199497e-05 125000 -231.861474827934 0 0 40 (C1) n - 1
REM
REM in /home/bkarasulu/work/CARBON/AIRSS/Generating-Clusters/EDIP-Nigel-Params/with-SteepDescent/Only-C1/SD-CG/HFTN-CG
REM
REM
REM
REM
REM
REM ./C.cell (11c1c37f851c82e70ff6c80c92926a4b)
REM
REM compiler GCC version 9.2.1 20190827 (Red Hat 9.2.1-1)
REM options -cpp -mtune=generic -march=x86-64 -g -O0 -fpre-include=/usr/include/finclude/math-vector-fortran.h
REM seed 619222563 -264077139 993723357 -143009377 -813491783 -1281204902 -1914565746 -683087410 -721288154 -66528353 -750788200 996172367 -804398919 -1212522585 1796877740 445788385 -722593755 559928654 163096556 -974362889 62596816 -1173212599 1249774175 982770393 -1191000423 999017251 -942321267 786711602 -1169478865 1751162007 793436375 234270352 -913486535
REM
CELL 1.54180   50.00000   50.00000   50.00000   90.00000   90.00000   90.00000
LATT -1
SFAC C  
C      1  0.4378680000000  0.4605140000000  0.5086820000000 1.0
C      1  0.5198150000000  0.4546560000000  0.5126200000000 1.0
C      1  0.4795220000000  0.4997480000000  0.4756220000000 1.0
C      1  0.5167670000000  0.4631900000000  0.5601990000000 1.0
C      1  0.4343320000000  0.4797470000000  0.4906580000000 1.0
C      1  0.4865490000000  0.5171960000000  0.5679560000000 1.0
C      1  0.5360560000000  0.5451100000000  0.4742170000000 1.0
C      1  0.5470560000000  0.4827930000000  0.5314930000000 1.0
C      1  0.5195650000000  0.5357480000000  0.5325150000000 1.0
C      1  0.4875450000000  0.5140400000000  0.5017720000000 1.0
C      1  0.5354530000000  0.5200110000000  0.4886810000000 1.0
C      1  0.4760090000000  0.4299860000000  0.5098540000000 1.0
C      1  0.5007200000000  0.4826130000000  0.4241310000000 1.0
C      1  0.5095600000000  0.4990650000000  0.5680370000000 1.0
C      1  0.4512740000000  0.4955670000000  0.4774880000000 1.0
C      1  0.4968460000000  0.6045290000000  0.4937390000000 1.0
C      1  0.5231450000000  0.5227120000000  0.5570310000000 1.0
C      1  0.4924740000000  0.4655250000000  0.4432490000000 1.0
C      1  0.5258610000000  0.5683050000000  0.4856380000000 1.0
C      1  0.4920000000000  0.4705490000000  0.4709210000000 1.0
C      1  0.5383680000000  0.5421830000000  0.4463560000000 1.0
C      1  0.4671990000000  0.5203620000000  0.5211430000000 1.0
C      1  0.5179560000000  0.4616150000000  0.4833170000000 1.0
C      1  0.5160080000000  0.5167200000000  0.5113810000000 1.0
C      1  0.5000620000000  0.4353790000000  0.5239470000000 1.0
C      1  0.4795240000000  0.5457910000000  0.4536140000000 1.0
C      1  0.4947520000000  0.4455500000000  0.5515840000000 1.0
C      1  0.4703190000000  0.4609020000000  0.5448550000000 1.0
C      1  0.5407600000000  0.4726820000000  0.4708900000000 1.0
C      1  0.4570410000000  0.4462930000000  0.5229330000000 1.0
C      1  0.4819200000000  0.4872380000000  0.5363530000000 1.0
C      1  0.5326440000000  0.5145590000000  0.4420260000000 1.0
C      1  0.5048620000000  0.5098650000000  0.4305860000000 1.0
C      1  0.4831470000000  0.5690080000000  0.4661310000000 1.0
C      1  0.5340810000000  0.4999710000000  0.4678860000000 1.0
C      1  0.5189870000000  0.4911530000000  0.5261260000000 1.0
C      1  0.5409530000000  0.4588840000000  0.5448140000000 1.0
C      1  0.4843560000000  0.5184380000000  0.4512590000000 1.0
C      1  0.4667430000000  0.5103360000000  0.5483920000000 1.0
C      1  0.5019040000000  0.5814670000000  0.4819060000000 1.0
END
