TITL C-950531-5884-585 1.18206228690015e-05 125000 -121.761093492583 0 0 21 (C1) n - 1
REM
REM in /home/bkarasulu/work/CARBON/AIRSS/Generating-Clusters/EDIP-Nigel-Params/with-SteepDescent/Only-C1/SD-CG/HFTN-CG
REM
REM
REM
REM
REM
REM ./C.cell (11c1c37f851c82e70ff6c80c92926a4b)
REM
REM compiler GCC version 9.2.1 20190827 (Red Hat 9.2.1-1)
REM options -cpp -mtune=generic -march=x86-64 -g -O0 -fpre-include=/usr/include/finclude/math-vector-fortran.h
REM seed -1434782654 -1089102520 -547747444 1533455595 -967568869 -1566992149 -1242404103 1318317898 1111790153 -1911511837 1634206235 1734635582 -125414274 1843051795 887346943 1720538978 -84258237 -988607519 1581937566 1635151203 -12874645 -1130100875 -652067744 -1021819436 1284771423 537676556 -526531827 2139421718 1251704746 -995543347 1887115219 -2006006447 -1828602123
REM
CELL 1.54180   50.00000   50.00000   50.00000   90.00000   90.00000   90.00000
LATT -1
SFAC C  
C      1  0.5006550000000  0.5021400000000  0.4457190000000 1.0
C      1  0.5216450000000  0.5194300000000  0.4460700000000 1.0
C      1  0.5459510000000  0.5127280000000  0.4845580000000 1.0
C      1  0.4815410000000  0.4779250000000  0.4854140000000 1.0
C      1  0.5448340000000  0.4869920000000  0.4921890000000 1.0
C      1  0.4912830000000  0.4532890000000  0.4752770000000 1.0
C      1  0.4982790000000  0.4418640000000  0.5191470000000 1.0
C      1  0.4750470000000  0.4793090000000  0.5140520000000 1.0
C      1  0.5154380000000  0.5603670000000  0.5072780000000 1.0
C      1  0.4833260000000  0.5280200000000  0.5150030000000 1.0
C      1  0.5334150000000  0.4628730000000  0.4947600000000 1.0
C      1  0.5335760000000  0.5322340000000  0.4682480000000 1.0
C      1  0.4759770000000  0.4548890000000  0.5280420000000 1.0
C      1  0.4957680000000  0.5514490000000  0.5245000000000 1.0
C      1  0.5110060000000  0.4461180000000  0.4944560000000 1.0
C      1  0.4923310000000  0.5249130000000  0.4883890000000 1.0
C      1  0.4581530000000  0.5077800000000  0.5789470000000 1.0
C      1  0.4747870000000  0.5043000000000  0.5287100000000 1.0
C      1  0.4898160000000  0.5017490000000  0.4716730000000 1.0
C      1  0.4659360000000  0.5055760000000  0.5546530000000 1.0
C      1  0.5112360000000  0.5460550000000  0.4829140000000 1.0
END
