TITL C-951335-1172-481 -6.57338444679518e-07 125000 -701.154830746112 0 0 114 (C1) n - 1
REM
REM in /home/bkarasulu/work/CARBON/AIRSS/Generating-Clusters/EDIP-Nigel-Params/with-SteepDescent/Only-C1/SD-CG/HFTN-CG
REM
REM
REM
REM
REM
REM ./C.cell (11c1c37f851c82e70ff6c80c92926a4b)
REM
REM compiler GCC version 9.2.1 20190827 (Red Hat 9.2.1-1)
REM options -cpp -mtune=generic -march=x86-64 -g -O0 -fpre-include=/usr/include/finclude/math-vector-fortran.h
REM seed -1595729352 -1792395579 1277279233 -837094393 -1666389739 -1875555076 1009332114 1065842683 -1972215576 521391600 165723573 -2016581201 -1584012189 -232642104 -2145498745 -551400440 -38341673 1036224301 -80196454 -597703578 1503855465 -135037648 1507822834 -942294126 296616466 -1290363322 1321000715 490727533 1858313283 238640801 -2065111940 266743122 2063824293
REM
CELL 1.54180   50.00000   50.00000   50.00000   90.00000   90.00000   90.00000
LATT -1
SFAC C  
C      1  0.5251320000000  0.5832380000000  0.4663960000000 1.0
C      1  0.4407600000000  0.5525600000000  0.4529630000000 1.0
C      1  0.4686250000000  0.5123840000000  0.5114350000000 1.0
C      1  0.4148730000000  0.5375170000000  0.5171980000000 1.0
C      1  0.4694300000000  0.4375240000000  0.4316540000000 1.0
C      1  0.5733920000000  0.5695450000000  0.4900840000000 1.0
C      1  0.4846110000000  0.5055950000000  0.5879610000000 1.0
C      1  0.5371590000000  0.4935170000000  0.4735690000000 1.0
C      1  0.4940240000000  0.5281510000000  0.4230700000000 1.0
C      1  0.4869470000000  0.5128480000000  0.4500590000000 1.0
C      1  0.4547420000000  0.5340410000000  0.4978390000000 1.0
C      1  0.4681820000000  0.5541420000000  0.5606880000000 1.0
C      1  0.4013510000000  0.4574680000000  0.4897420000000 1.0
C      1  0.4933250000000  0.5083170000000  0.4954390000000 1.0
C      1  0.5427040000000  0.4604020000000  0.5685490000000 1.0
C      1  0.5484390000000  0.5874470000000  0.4854700000000 1.0
C      1  0.5145670000000  0.5108150000000  0.5162710000000 1.0
C      1  0.4290500000000  0.5054390000000  0.5818810000000 1.0
C      1  0.5400480000000  0.5352910000000  0.5743040000000 1.0
C      1  0.5101990000000  0.4862190000000  0.5390660000000 1.0
C      1  0.4177540000000  0.4581550000000  0.4675440000000 1.0
C      1  0.4796570000000  0.4869830000000  0.5465730000000 1.0
C      1  0.4347590000000  0.4828730000000  0.4388940000000 1.0
C      1  0.5763490000000  0.5648970000000  0.5185810000000 1.0
C      1  0.4857520000000  0.5294820000000  0.5678010000000 1.0
C      1  0.4397300000000  0.4804190000000  0.5740160000000 1.0
C      1  0.5193010000000  0.4431040000000  0.5761240000000 1.0
C      1  0.4043270000000  0.4831670000000  0.5012340000000 1.0
C      1  0.5501120000000  0.4697510000000  0.5138980000000 1.0
C      1  0.5007910000000  0.5580020000000  0.4300250000000 1.0
C      1  0.4768810000000  0.5154850000000  0.5409800000000 1.0
C      1  0.4166510000000  0.5142710000000  0.5356070000000 1.0
C      1  0.4314360000000  0.5214430000000  0.5589880000000 1.0
C      1  0.4536580000000  0.4856790000000  0.5105970000000 1.0
C      1  0.5464010000000  0.4744420000000  0.4235540000000 1.0
C      1  0.5129820000000  0.5450830000000  0.5693200000000 1.0
C      1  0.4335590000000  0.4812400000000  0.4668870000000 1.0
C      1  0.5058190000000  0.4061200000000  0.4742020000000 1.0
C      1  0.5361440000000  0.4660670000000  0.4874490000000 1.0
C      1  0.4901600000000  0.4809650000000  0.4830650000000 1.0
C      1  0.5001690000000  0.4609150000000  0.5894960000000 1.0
C      1  0.5094510000000  0.5955970000000  0.5139440000000 1.0
C      1  0.5911970000000  0.4955170000000  0.4984820000000 1.0
C      1  0.5386790000000  0.5097450000000  0.4988280000000 1.0
C      1  0.5254910000000  0.5349500000000  0.4630580000000 1.0
C      1  0.5370480000000  0.5848660000000  0.5127970000000 1.0
C      1  0.4957810000000  0.5890460000000  0.4887180000000 1.0
C      1  0.5039550000000  0.4834950000000  0.4567560000000 1.0
C      1  0.5604450000000  0.4988950000000  0.4277220000000 1.0
C      1  0.4324890000000  0.5597980000000  0.5282410000000 1.0
C      1  0.4614190000000  0.4327210000000  0.5541300000000 1.0
C      1  0.5408020000000  0.5242750000000  0.4287370000000 1.0
C      1  0.5683620000000  0.4511540000000  0.5517370000000 1.0
C      1  0.5802240000000  0.4561640000000  0.4638490000000 1.0
C      1  0.4984100000000  0.4401920000000  0.4249090000000 1.0
C      1  0.5733210000000  0.4876990000000  0.5226050000000 1.0
C      1  0.4401390000000  0.4370500000000  0.5128550000000 1.0
C      1  0.4390880000000  0.5500410000000  0.5564490000000 1.0
C      1  0.5794860000000  0.4362710000000  0.4843690000000 1.0
C      1  0.4607040000000  0.5730570000000  0.4593690000000 1.0
C      1  0.4568050000000  0.4888860000000  0.4224840000000 1.0
C      1  0.4375540000000  0.4407370000000  0.5416000000000 1.0
C      1  0.4989170000000  0.5832070000000  0.5388530000000 1.0
C      1  0.5104000000000  0.4890560000000  0.5898970000000 1.0
C      1  0.5529050000000  0.4264780000000  0.4826590000000 1.0
C      1  0.5196560000000  0.5710330000000  0.5565430000000 1.0
C      1  0.5885980000000  0.5233970000000  0.4958470000000 1.0
C      1  0.5358660000000  0.5539100000000  0.5155400000000 1.0
C      1  0.5549950000000  0.5568000000000  0.5615790000000 1.0
C      1  0.4977050000000  0.5276260000000  0.4723830000000 1.0
C      1  0.4713640000000  0.4589720000000  0.5209530000000 1.0
C      1  0.4190930000000  0.5496150000000  0.4705910000000 1.0
C      1  0.5385380000000  0.4395990000000  0.4587820000000 1.0
C      1  0.5696000000000  0.5322810000000  0.4536430000000 1.0
C      1  0.4606670000000  0.5171180000000  0.4156890000000 1.0
C      1  0.4934750000000  0.4312670000000  0.4682800000000 1.0
C      1  0.4653500000000  0.4303290000000  0.4607270000000 1.0
C      1  0.5462350000000  0.4470450000000  0.5317720000000 1.0
C      1  0.5479260000000  0.5098350000000  0.5619160000000 1.0
C      1  0.5187820000000  0.4833770000000  0.4159000000000 1.0
C      1  0.4270800000000  0.4677490000000  0.5490500000000 1.0
C      1  0.5866380000000  0.4706690000000  0.5422810000000 1.0
C      1  0.4851650000000  0.4229240000000  0.5428250000000 1.0
C      1  0.5641150000000  0.5139000000000  0.5378150000000 1.0
C      1  0.4827410000000  0.5587450000000  0.5325580000000 1.0
C      1  0.4684070000000  0.4672020000000  0.4080240000000 1.0
C      1  0.5284240000000  0.4875930000000  0.5647060000000 1.0
C      1  0.4524460000000  0.5289540000000  0.4410570000000 1.0
C      1  0.5647640000000  0.5013670000000  0.4578880000000 1.0
C      1  0.5705770000000  0.5407680000000  0.4813400000000 1.0
C      1  0.5094850000000  0.4493340000000  0.4510930000000 1.0
C      1  0.5109150000000  0.4085410000000  0.5018250000000 1.0
C      1  0.4589500000000  0.4759440000000  0.4823180000000 1.0
C      1  0.4855250000000  0.4177470000000  0.5143800000000 1.0
C      1  0.5081410000000  0.4617910000000  0.4963750000000 1.0
C      1  0.4804400000000  0.5747760000000  0.4395060000000 1.0
C      1  0.4164030000000  0.5018210000000  0.4811810000000 1.0
C      1  0.4983100000000  0.4634150000000  0.4066170000000 1.0
C      1  0.4237980000000  0.4871280000000  0.5242200000000 1.0
C      1  0.5110390000000  0.4306320000000  0.5517780000000 1.0
C      1  0.5581590000000  0.4535860000000  0.4428740000000 1.0
C      1  0.5048760000000  0.4583130000000  0.5254530000000 1.0
C      1  0.5423910000000  0.5368030000000  0.4895750000000 1.0
C      1  0.5245410000000  0.5605810000000  0.4477940000000 1.0
C      1  0.5177370000000  0.5129570000000  0.4130970000000 1.0
C      1  0.5098210000000  0.5405510000000  0.5256180000000 1.0
C      1  0.4708120000000  0.4801130000000  0.5744980000000 1.0
C      1  0.5864020000000  0.4847270000000  0.4704400000000 1.0
C      1  0.4257700000000  0.5298570000000  0.4904520000000 1.0
C      1  0.5680860000000  0.5448860000000  0.5383610000000 1.0
C      1  0.4682570000000  0.5794870000000  0.4875810000000 1.0
C      1  0.4617120000000  0.4248780000000  0.4979520000000 1.0
C      1  0.5378310000000  0.4195490000000  0.5070550000000 1.0
C      1  0.4593710000000  0.5606060000000  0.5107460000000 1.0
END
