TITL C-951336-9012-54 4.07267566987071e-08 125000 -1058.97767989413 0 0 168 (C1) n - 1
REM
REM in /home/bkarasulu/work/CARBON/AIRSS/Generating-Clusters/EDIP-Nigel-Params/with-SteepDescent/Only-C1/SD-CG/HFTN-CG
REM
REM
REM
REM
REM
REM ./C.cell (11c1c37f851c82e70ff6c80c92926a4b)
REM
REM compiler GCC version 9.2.1 20190827 (Red Hat 9.2.1-1)
REM options -cpp -mtune=generic -march=x86-64 -g -O0 -fpre-include=/usr/include/finclude/math-vector-fortran.h
REM seed -2125767213 -1194121545 2145398674 21801839 -712381843 799553110 -562910528 1359998229 1418379535 185919227 -434769015 1612242408 -207540433 2120421020 631110764 -2022575023 1174450715 -763818072 103974302 -2143262058 -751149123 -869412325 -520155576 -1458922393 413433372 2115795511 374888123 -1546279004 745350147 -1875558999 -1647709545 1377634210 -2029487136
REM
CELL 1.54180   50.00000   50.00000   50.00000   90.00000   90.00000   90.00000
LATT -1
SFAC C  
C      1  0.4926790000000  0.4513480000000  0.5198440000000 1.0
C      1  0.5948860000000  0.4835000000000  0.4950560000000 1.0
C      1  0.5228600000000  0.4508430000000  0.5178870000000 1.0
C      1  0.4521480000000  0.5718150000000  0.5574330000000 1.0
C      1  0.4263050000000  0.4453740000000  0.4613140000000 1.0
C      1  0.5196820000000  0.5098760000000  0.4550200000000 1.0
C      1  0.5318590000000  0.5400700000000  0.4191130000000 1.0
C      1  0.5783140000000  0.4464790000000  0.5213670000000 1.0
C      1  0.4248620000000  0.4567290000000  0.4341430000000 1.0
C      1  0.4783500000000  0.4339990000000  0.4989440000000 1.0
C      1  0.5280840000000  0.4772060000000  0.5301640000000 1.0
C      1  0.4573380000000  0.4839280000000  0.4799720000000 1.0
C      1  0.4785270000000  0.5937380000000  0.4990350000000 1.0
C      1  0.4281570000000  0.5856000000000  0.4912760000000 1.0
C      1  0.4860060000000  0.4792620000000  0.5610370000000 1.0
C      1  0.4512380000000  0.5759840000000  0.4323690000000 1.0
C      1  0.4627090000000  0.4488860000000  0.5916450000000 1.0
C      1  0.5119060000000  0.5724320000000  0.5602600000000 1.0
C      1  0.5928230000000  0.5349070000000  0.5360510000000 1.0
C      1  0.4869470000000  0.4945400000000  0.6025000000000 1.0
C      1  0.4068520000000  0.4945100000000  0.5512150000000 1.0
C      1  0.5003900000000  0.4062600000000  0.4642190000000 1.0
C      1  0.5524930000000  0.5156470000000  0.5458740000000 1.0
C      1  0.4652360000000  0.4693080000000  0.4133010000000 1.0
C      1  0.5044320000000  0.5588260000000  0.5330920000000 1.0
C      1  0.4128950000000  0.4866450000000  0.5062660000000 1.0
C      1  0.4823510000000  0.4501840000000  0.5484770000000 1.0
C      1  0.5649300000000  0.4468370000000  0.4290520000000 1.0
C      1  0.5239610000000  0.5161510000000  0.5558900000000 1.0
C      1  0.5825360000000  0.5416340000000  0.4767080000000 1.0
C      1  0.5642680000000  0.5918470000000  0.4951710000000 1.0
C      1  0.4709680000000  0.5544950000000  0.5360190000000 1.0
C      1  0.4627960000000  0.5085970000000  0.5952330000000 1.0
C      1  0.5637240000000  0.5416280000000  0.5287690000000 1.0
C      1  0.5830130000000  0.4572440000000  0.4960080000000 1.0
C      1  0.4232620000000  0.5907640000000  0.5183640000000 1.0
C      1  0.5679180000000  0.5125260000000  0.5722170000000 1.0
C      1  0.5273830000000  0.4508980000000  0.4847880000000 1.0
C      1  0.5198970000000  0.5741630000000  0.5102660000000 1.0
C      1  0.4427900000000  0.5532300000000  0.5800240000000 1.0
C      1  0.5156170000000  0.4592610000000  0.5853710000000 1.0
C      1  0.5777620000000  0.5218890000000  0.4306280000000 1.0
C      1  0.4851800000000  0.5527420000000  0.6001920000000 1.0
C      1  0.4745760000000  0.3942040000000  0.5570860000000 1.0
C      1  0.4268200000000  0.5089960000000  0.5658400000000 1.0
C      1  0.4913240000000  0.5206610000000  0.4874330000000 1.0
C      1  0.4006370000000  0.5062560000000  0.5254130000000 1.0
C      1  0.4104630000000  0.5564420000000  0.4530060000000 1.0
C      1  0.5328120000000  0.4816760000000  0.5960350000000 1.0
C      1  0.5579170000000  0.4245130000000  0.5203550000000 1.0
C      1  0.4963000000000  0.5045830000000  0.4310440000000 1.0
C      1  0.5570890000000  0.4979080000000  0.4144030000000 1.0
C      1  0.3986360000000  0.4570070000000  0.5252080000000 1.0
C      1  0.4876240000000  0.4653930000000  0.5976710000000 1.0
C      1  0.5397890000000  0.5075900000000  0.4997820000000 1.0
C      1  0.4840040000000  0.5584210000000  0.4028610000000 1.0
C      1  0.4506840000000  0.4945090000000  0.4200590000000 1.0
C      1  0.4079470000000  0.5664590000000  0.4800150000000 1.0
C      1  0.5500350000000  0.4730410000000  0.4359030000000 1.0
C      1  0.4428020000000  0.4199040000000  0.5318750000000 1.0
C      1  0.5612320000000  0.5869190000000  0.4680590000000 1.0
C      1  0.5581120000000  0.5709270000000  0.5374870000000 1.0
C      1  0.5564710000000  0.5613390000000  0.5819260000000 1.0
C      1  0.5350520000000  0.4927250000000  0.4745420000000 1.0
C      1  0.4474230000000  0.4064810000000  0.4835910000000 1.0
C      1  0.6131680000000  0.5357910000000  0.5154450000000 1.0
C      1  0.5630840000000  0.4788400000000  0.3926770000000 1.0
C      1  0.4671130000000  0.4289690000000  0.4365290000000 1.0
C      1  0.4875720000000  0.4806560000000  0.5123660000000 1.0
C      1  0.5671820000000  0.4623610000000  0.5669110000000 1.0
C      1  0.6144490000000  0.4913770000000  0.5160170000000 1.0
C      1  0.5219590000000  0.4590370000000  0.4477380000000 1.0
C      1  0.4629600000000  0.5013030000000  0.5515920000000 1.0
C      1  0.4664740000000  0.5944480000000  0.5690320000000 1.0
C      1  0.4523490000000  0.4435680000000  0.5488240000000 1.0
C      1  0.4820370000000  0.5985260000000  0.5270100000000 1.0
C      1  0.6052460000000  0.5484130000000  0.4923890000000 1.0
C      1  0.4524030000000  0.4104340000000  0.4554690000000 1.0
C      1  0.5462720000000  0.5854520000000  0.5156400000000 1.0
C      1  0.4002770000000  0.4857460000000  0.4781550000000 1.0
C      1  0.4963150000000  0.5931770000000  0.4352480000000 1.0
C      1  0.4128480000000  0.5018430000000  0.4556590000000 1.0
C      1  0.5037850000000  0.5458250000000  0.4752580000000 1.0
C      1  0.5430360000000  0.5757930000000  0.5620550000000 1.0
C      1  0.5957020000000  0.5135400000000  0.5570040000000 1.0
C      1  0.5449070000000  0.4352490000000  0.4105260000000 1.0
C      1  0.5122930000000  0.5302050000000  0.5331780000000 1.0
C      1  0.4943610000000  0.4745800000000  0.4463100000000 1.0
C      1  0.4621200000000  0.5380960000000  0.5959070000000 1.0
C      1  0.5423240000000  0.5882160000000  0.4159990000000 1.0
C      1  0.5071920000000  0.5532130000000  0.5837160000000 1.0
C      1  0.4271790000000  0.4861820000000  0.4350770000000 1.0
C      1  0.4936180000000  0.4290930000000  0.4178150000000 1.0
C      1  0.4388950000000  0.4631250000000  0.5799890000000 1.0
C      1  0.4159860000000  0.4664080000000  0.5477840000000 1.0
C      1  0.5589300000000  0.4853980000000  0.5824960000000 1.0
C      1  0.5147590000000  0.4716010000000  0.4029610000000 1.0
C      1  0.4028440000000  0.4552330000000  0.4765310000000 1.0
C      1  0.4532320000000  0.5323040000000  0.4544260000000 1.0
C      1  0.5260140000000  0.4074980000000  0.4491840000000 1.0
C      1  0.5767280000000  0.4706760000000  0.5402000000000 1.0
C      1  0.5435560000000  0.4119120000000  0.4967820000000 1.0
C      1  0.5548530000000  0.5365230000000  0.4956990000000 1.0
C      1  0.5733180000000  0.5518660000000  0.4297630000000 1.0
C      1  0.4612800000000  0.3973210000000  0.5313850000000 1.0
C      1  0.5512060000000  0.5616830000000  0.4115120000000 1.0
C      1  0.5157120000000  0.3936680000000  0.5332960000000 1.0
C      1  0.4254970000000  0.5779080000000  0.5431460000000 1.0
C      1  0.4078510000000  0.5417290000000  0.4947110000000 1.0
C      1  0.5055230000000  0.5878810000000  0.4891340000000 1.0
C      1  0.5862970000000  0.4921190000000  0.4683450000000 1.0
C      1  0.5157560000000  0.4860070000000  0.5558480000000 1.0
C      1  0.5889310000000  0.5186740000000  0.4578570000000 1.0
C      1  0.4574740000000  0.5514390000000  0.5091590000000 1.0
C      1  0.4204380000000  0.5377400000000  0.5697990000000 1.0
C      1  0.4968130000000  0.4304950000000  0.5677800000000 1.0
C      1  0.5378210000000  0.5313940000000  0.4468640000000 1.0
C      1  0.5605660000000  0.4534220000000  0.4771300000000 1.0
C      1  0.5217940000000  0.3946280000000  0.5060820000000 1.0
C      1  0.4865970000000  0.4889780000000  0.4789500000000 1.0
C      1  0.5023430000000  0.4021820000000  0.5564090000000 1.0
C      1  0.4348850000000  0.4265430000000  0.5038410000000 1.0
C      1  0.5329290000000  0.5794380000000  0.4645810000000 1.0
C      1  0.4620690000000  0.5411850000000  0.4073770000000 1.0
C      1  0.5104490000000  0.5120340000000  0.5100970000000 1.0
C      1  0.4719120000000  0.4228880000000  0.5827540000000 1.0
C      1  0.5774850000000  0.5643210000000  0.4574400000000 1.0
C      1  0.4542000000000  0.4547600000000  0.4766110000000 1.0
C      1  0.4093770000000  0.4426760000000  0.5023540000000 1.0
C      1  0.5330390000000  0.5491350000000  0.4709440000000 1.0
C      1  0.5343340000000  0.5152240000000  0.4030750000000 1.0
C      1  0.5502060000000  0.4402430000000  0.5659830000000 1.0
C      1  0.4654740000000  0.5193790000000  0.4283320000000 1.0
C      1  0.5151310000000  0.5052130000000  0.6016740000000 1.0
C      1  0.4391140000000  0.4928360000000  0.5871460000000 1.0
C      1  0.6308580000000  0.5143610000000  0.5137300000000 1.0
C      1  0.4705950000000  0.5281030000000  0.5471480000000 1.0
C      1  0.6023560000000  0.4872080000000  0.5430630000000 1.0
C      1  0.4726650000000  0.4026270000000  0.5021870000000 1.0
C      1  0.5678370000000  0.4329890000000  0.4564890000000 1.0
C      1  0.4984300000000  0.3897990000000  0.4889810000000 1.0
C      1  0.4111440000000  0.5517560000000  0.5454120000000 1.0
C      1  0.5493610000000  0.4115520000000  0.4671130000000 1.0
C      1  0.4763680000000  0.5820240000000  0.4173460000000 1.0
C      1  0.4417500000000  0.4643440000000  0.5315070000000 1.0
C      1  0.5406840000000  0.4603900000000  0.3941360000000 1.0
C      1  0.5096600000000  0.4999010000000  0.4044030000000 1.0
C      1  0.4973740000000  0.4343210000000  0.4750340000000 1.0
C      1  0.5544000000000  0.4905550000000  0.5274480000000 1.0
C      1  0.4078520000000  0.5340220000000  0.5220580000000 1.0
C      1  0.4622310000000  0.5254450000000  0.4968320000000 1.0
C      1  0.4775570000000  0.4489090000000  0.4571310000000 1.0
C      1  0.5241980000000  0.5284210000000  0.5840720000000 1.0
C      1  0.4608820000000  0.5617060000000  0.4581760000000 1.0
C      1  0.4234870000000  0.5301360000000  0.4612940000000 1.0
C      1  0.4561540000000  0.5741570000000  0.4891240000000 1.0
C      1  0.5238480000000  0.5855490000000  0.4370060000000 1.0
C      1  0.4594220000000  0.4869730000000  0.5252670000000 1.0
C      1  0.5214720000000  0.4315560000000  0.4306430000000 1.0
C      1  0.4894290000000  0.5626230000000  0.4571770000000 1.0
C      1  0.5535320000000  0.5345840000000  0.5885310000000 1.0
C      1  0.4899870000000  0.5952280000000  0.5541570000000 1.0
C      1  0.4907290000000  0.4560580000000  0.4061500000000 1.0
C      1  0.4392420000000  0.5572220000000  0.4140990000000 1.0
C      1  0.4485190000000  0.4463580000000  0.4200200000000 1.0
C      1  0.4448170000000  0.4992430000000  0.5022410000000 1.0
C      1  0.5593130000000  0.4797740000000  0.4631660000000 1.0
C      1  0.5399270000000  0.4287340000000  0.5427150000000 1.0
END
