TITL C-951340-9809-414 -3.18147991146818e-08 125000 -134.284557804071 0 0 24 (C1) n - 1
REM
REM in /home/bkarasulu/work/CARBON/AIRSS/Generating-Clusters/EDIP-Nigel-Params/with-SteepDescent/Only-C1/SD-CG/HFTN-CG
REM
REM
REM
REM
REM
REM ./C.cell (11c1c37f851c82e70ff6c80c92926a4b)
REM
REM compiler GCC version 9.2.1 20190827 (Red Hat 9.2.1-1)
REM options -cpp -mtune=generic -march=x86-64 -g -O0 -fpre-include=/usr/include/finclude/math-vector-fortran.h
REM seed 966864857 1425610515 -1413669230 1273285178 -2065464314 -1703620675 1038847131 342900075 -1981916290 990431947 -608901007 445715107 1477472720 1129519078 -1397079993 -1402572405 909290104 -1724837522 -1461201492 1941972820 1942087424 1350237608 1075412419 2117514553 1313091400 -91145103 272354231 98573199 586169187 -1282137533 714131736 -2001050102 -1426247347
REM
CELL 1.54180   50.00000   50.00000   50.00000   90.00000   90.00000   90.00000
LATT -1
SFAC C  
C      1  0.5325210000000  0.5122310000000  0.4858950000000 1.0
C      1  0.4944630000000  0.5331600000000  0.5239490000000 1.0
C      1  0.5201470000000  0.4587540000000  0.4400870000000 1.0
C      1  0.5213860000000  0.4685090000000  0.5470460000000 1.0
C      1  0.4632920000000  0.4482990000000  0.5008110000000 1.0
C      1  0.4411580000000  0.5199320000000  0.4843850000000 1.0
C      1  0.4712600000000  0.5140140000000  0.5247290000000 1.0
C      1  0.5020300000000  0.4554510000000  0.4616560000000 1.0
C      1  0.5069350000000  0.5244810000000  0.4746870000000 1.0
C      1  0.4605450000000  0.5100480000000  0.4686210000000 1.0
C      1  0.5386470000000  0.5309240000000  0.5093800000000 1.0
C      1  0.5247630000000  0.4847930000000  0.4954560000000 1.0
C      1  0.5452580000000  0.4780520000000  0.5391760000000 1.0
C      1  0.5214000000000  0.4896330000000  0.5254020000000 1.0
C      1  0.4806720000000  0.4679690000000  0.5042290000000 1.0
C      1  0.4489870000000  0.5215890000000  0.5100510000000 1.0
C      1  0.4875190000000  0.5027370000000  0.4696140000000 1.0
C      1  0.4997630000000  0.5459420000000  0.4953260000000 1.0
C      1  0.5265530000000  0.5560690000000  0.5010670000000 1.0
C      1  0.4898280000000  0.5531700000000  0.5419170000000 1.0
C      1  0.5263700000000  0.4410370000000  0.4592800000000 1.0
C      1  0.5210370000000  0.5193160000000  0.5309920000000 1.0
C      1  0.4769490000000  0.4868480000000  0.5241250000000 1.0
C      1  0.4985170000000  0.4770410000000  0.4821140000000 1.0
END
