TITL C-951333-8791-635 1.01764163429894e-06 125000 -793.864370895744 0 0 126 (C1) n - 1
REM
REM in /home/bkarasulu/work/CARBON/AIRSS/Generating-Clusters/EDIP-Nigel-Params/with-SteepDescent/Only-C1/SD-CG/HFTN-CG
REM
REM
REM
REM
REM
REM ./C.cell (11c1c37f851c82e70ff6c80c92926a4b)
REM
REM compiler GCC version 9.2.1 20190827 (Red Hat 9.2.1-1)
REM options -cpp -mtune=generic -march=x86-64 -g -O0 -fpre-include=/usr/include/finclude/math-vector-fortran.h
REM seed -1365029712 -1826390572 -2140348852 1315017245 -2009344124 -1104425013 -945484297 -1691118266 -1879266164 -786928582 1447810703 863514327 -269157579 1982658660 467753071 -1881312251 684205087 -341550615 -345275176 -1963411841 459777273 2084811186 1928602481 1710449948 -1820237130 1445180204 450142157 1351615220 -1613136833 6434461 1023095174 715521053 1993582231
REM
CELL 1.54180   50.00000   50.00000   50.00000   90.00000   90.00000   90.00000
LATT -1
SFAC C  
C      1  0.5448420000000  0.5281730000000  0.4592160000000 1.0
C      1  0.4770310000000  0.5806580000000  0.4966450000000 1.0
C      1  0.4288290000000  0.4860560000000  0.5561600000000 1.0
C      1  0.4961050000000  0.4708300000000  0.4573210000000 1.0
C      1  0.5172540000000  0.4134960000000  0.4888780000000 1.0
C      1  0.4558550000000  0.4927370000000  0.4132730000000 1.0
C      1  0.4510810000000  0.5357620000000  0.4229290000000 1.0
C      1  0.4153030000000  0.4434590000000  0.5243690000000 1.0
C      1  0.4965430000000  0.4925870000000  0.5797470000000 1.0
C      1  0.4661940000000  0.5725300000000  0.5241350000000 1.0
C      1  0.5213660000000  0.5539900000000  0.5657460000000 1.0
C      1  0.4657440000000  0.4406800000000  0.4367190000000 1.0
C      1  0.5456240000000  0.5339000000000  0.4070130000000 1.0
C      1  0.5954140000000  0.5163180000000  0.5013810000000 1.0
C      1  0.5388930000000  0.5119970000000  0.5848520000000 1.0
C      1  0.4596120000000  0.4460590000000  0.4840520000000 1.0
C      1  0.5633310000000  0.4307580000000  0.5646390000000 1.0
C      1  0.4626280000000  0.5280500000000  0.5084700000000 1.0
C      1  0.5169000000000  0.5259290000000  0.4040100000000 1.0
C      1  0.4504170000000  0.5194260000000  0.4480340000000 1.0
C      1  0.5497970000000  0.4340690000000  0.4401020000000 1.0
C      1  0.5069380000000  0.4279030000000  0.4642370000000 1.0
C      1  0.5214090000000  0.4212160000000  0.4388480000000 1.0
C      1  0.5462410000000  0.5884020000000  0.4601410000000 1.0
C      1  0.4508010000000  0.5180980000000  0.4011850000000 1.0
C      1  0.4616660000000  0.4447030000000  0.5362770000000 1.0
C      1  0.5391000000000  0.4769950000000  0.4641440000000 1.0
C      1  0.3962190000000  0.4801660000000  0.4642840000000 1.0
C      1  0.5830510000000  0.4696520000000  0.5054550000000 1.0
C      1  0.4761810000000  0.5446440000000  0.5327340000000 1.0
C      1  0.5094420000000  0.5492360000000  0.5367750000000 1.0
C      1  0.4104010000000  0.4676400000000  0.5116180000000 1.0
C      1  0.5265070000000  0.5815530000000  0.5701460000000 1.0
C      1  0.4739310000000  0.5484330000000  0.5804330000000 1.0
C      1  0.4328420000000  0.5503390000000  0.5512180000000 1.0
C      1  0.4314150000000  0.4463450000000  0.4716380000000 1.0
C      1  0.5572820000000  0.4424400000000  0.4688730000000 1.0
C      1  0.5014820000000  0.5840000000000  0.4430090000000 1.0
C      1  0.5553620000000  0.5685770000000  0.4406600000000 1.0
C      1  0.5393890000000  0.5041450000000  0.4787720000000 1.0
C      1  0.4236140000000  0.5213710000000  0.4625090000000 1.0
C      1  0.5710400000000  0.5452780000000  0.4671740000000 1.0
C      1  0.5168110000000  0.4712330000000  0.5751440000000 1.0
C      1  0.4616110000000  0.5728810000000  0.4718930000000 1.0
C      1  0.5098620000000  0.5026610000000  0.4226910000000 1.0
C      1  0.5153430000000  0.4564770000000  0.4733720000000 1.0
C      1  0.4368580000000  0.5656270000000  0.5259630000000 1.0
C      1  0.4769730000000  0.5159990000000  0.4618380000000 1.0
C      1  0.5115720000000  0.5059180000000  0.4915370000000 1.0
C      1  0.5755750000000  0.4534600000000  0.5506430000000 1.0
C      1  0.5173270000000  0.5886600000000  0.4665990000000 1.0
C      1  0.5180650000000  0.5403170000000  0.4576990000000 1.0
C      1  0.4666730000000  0.4310480000000  0.5093620000000 1.0
C      1  0.4178560000000  0.5498680000000  0.4569610000000 1.0
C      1  0.5065010000000  0.5739750000000  0.4921580000000 1.0
C      1  0.4990180000000  0.4752980000000  0.5221830000000 1.0
C      1  0.4595010000000  0.5371720000000  0.5586480000000 1.0
C      1  0.5480900000000  0.5555180000000  0.5107240000000 1.0
C      1  0.4850820000000  0.4905190000000  0.4755620000000 1.0
C      1  0.5401210000000  0.5618400000000  0.4165080000000 1.0
C      1  0.5010080000000  0.5436370000000  0.5848980000000 1.0
C      1  0.4547420000000  0.4935870000000  0.5140970000000 1.0
C      1  0.4351380000000  0.5615020000000  0.4769160000000 1.0
C      1  0.5431180000000  0.4844330000000  0.5743610000000 1.0
C      1  0.5227930000000  0.5692750000000  0.5171700000000 1.0
C      1  0.4998930000000  0.5216420000000  0.4444800000000 1.0
C      1  0.4136760000000  0.5268020000000  0.4994100000000 1.0
C      1  0.5671640000000  0.5642460000000  0.4907040000000 1.0
C      1  0.5064280000000  0.5438010000000  0.4850380000000 1.0
C      1  0.4249940000000  0.4898960000000  0.5261390000000 1.0
C      1  0.4622340000000  0.4777870000000  0.4892070000000 1.0
C      1  0.4786800000000  0.5340260000000  0.4841860000000 1.0
C      1  0.5491110000000  0.5355100000000  0.5700760000000 1.0
C      1  0.4724560000000  0.4777130000000  0.5344100000000 1.0
C      1  0.5505050000000  0.5292070000000  0.5234970000000 1.0
C      1  0.4976370000000  0.4269920000000  0.5106360000000 1.0
C      1  0.4336440000000  0.4401520000000  0.5450590000000 1.0
C      1  0.5121510000000  0.4427830000000  0.4188850000000 1.0
C      1  0.4141630000000  0.4677670000000  0.4822040000000 1.0
C      1  0.4500620000000  0.5021590000000  0.5705870000000 1.0
C      1  0.5088580000000  0.5555810000000  0.4180770000000 1.0
C      1  0.5247720000000  0.4114330000000  0.5544550000000 1.0
C      1  0.5461950000000  0.4231250000000  0.4909810000000 1.0
C      1  0.5965250000000  0.4935210000000  0.5192660000000 1.0
C      1  0.5658650000000  0.4946390000000  0.4333660000000 1.0
C      1  0.5545620000000  0.4299360000000  0.5180250000000 1.0
C      1  0.4795230000000  0.4299080000000  0.5546530000000 1.0
C      1  0.5395780000000  0.4563850000000  0.4200790000000 1.0
C      1  0.4743400000000  0.5753440000000  0.4448180000000 1.0
C      1  0.5689950000000  0.5291340000000  0.5472610000000 1.0
C      1  0.4302640000000  0.4588420000000  0.5674590000000 1.0
C      1  0.5314780000000  0.6066760000000  0.5709610000000 1.0
C      1  0.4124120000000  0.5321210000000  0.5455950000000 1.0
C      1  0.4359150000000  0.5456390000000  0.5024680000000 1.0
C      1  0.5514010000000  0.4149510000000  0.5429980000000 1.0
C      1  0.5378210000000  0.4828610000000  0.4337300000000 1.0
C      1  0.5066120000000  0.4544430000000  0.5032970000000 1.0
C      1  0.5290580000000  0.4237060000000  0.5806490000000 1.0
C      1  0.4128290000000  0.4959970000000  0.4479370000000 1.0
C      1  0.4829180000000  0.4911610000000  0.6055090000000 1.0
C      1  0.4557550000000  0.4869140000000  0.5967750000000 1.0
C      1  0.5102510000000  0.5167060000000  0.5936280000000 1.0
C      1  0.4757940000000  0.4961670000000  0.5579320000000 1.0
C      1  0.5167510000000  0.4976090000000  0.5198470000000 1.0
C      1  0.4089270000000  0.5145160000000  0.5241420000000 1.0
C      1  0.5033140000000  0.4241290000000  0.5398920000000 1.0
C      1  0.5829630000000  0.5015540000000  0.5470540000000 1.0
C      1  0.5581690000000  0.5223470000000  0.4317600000000 1.0
C      1  0.4847580000000  0.4841860000000  0.4136240000000 1.0
C      1  0.4354140000000  0.4805230000000  0.4337290000000 1.0
C      1  0.5876380000000  0.5184310000000  0.4738500000000 1.0
C      1  0.4706140000000  0.5570350000000  0.4228540000000 1.0
C      1  0.5779290000000  0.4464080000000  0.5222700000000 1.0
C      1  0.5803280000000  0.4921310000000  0.4601970000000 1.0
C      1  0.5104640000000  0.4454670000000  0.5880340000000 1.0
C      1  0.5579640000000  0.5058350000000  0.5036950000000 1.0
C      1  0.5628370000000  0.5909180000000  0.4827220000000 1.0
C      1  0.5230070000000  0.5233270000000  0.5333280000000 1.0
C      1  0.5450270000000  0.4844650000000  0.5223430000000 1.0
C      1  0.4890830000000  0.4596280000000  0.4302570000000 1.0
C      1  0.4514180000000  0.4587640000000  0.5886310000000 1.0
C      1  0.5608860000000  0.4806820000000  0.5494310000000 1.0
C      1  0.5789370000000  0.4658810000000  0.4760640000000 1.0
C      1  0.4387660000000  0.4522360000000  0.4426270000000 1.0
C      1  0.4759230000000  0.4298780000000  0.4623660000000 1.0
C      1  0.4816540000000  0.4388690000000  0.5820970000000 1.0
END
