TITL C-951341-1326-438 -5.13394531151893e-06 125000 -823.943960263189 0 0 131 (C1) n - 1
REM
REM in /home/bkarasulu/work/CARBON/AIRSS/Generating-Clusters/EDIP-Nigel-Params/with-SteepDescent/Only-C1/SD-CG/HFTN-CG
REM
REM
REM
REM
REM
REM ./C.cell (11c1c37f851c82e70ff6c80c92926a4b)
REM
REM compiler GCC version 9.2.1 20190827 (Red Hat 9.2.1-1)
REM options -cpp -mtune=generic -march=x86-64 -g -O0 -fpre-include=/usr/include/finclude/math-vector-fortran.h
REM seed 2142166799 1822095740 1393503071 -1889027461 -1955224107 -42798863 -26673457 990975973 -1928788780 -1510300082 2065838042 338560437 2121856230 1388599723 286027891 -1359735988 -2059237224 673378574 1861507751 1999460060 3101422 600268990 -1544711229 1953533308 -68027509 -258928404 1815863873 1728381849 -1377358093 -1955818741 -1599656005 -833471194 665739025
REM
CELL 1.54180   50.00000   50.00000   50.00000   90.00000   90.00000   90.00000
LATT -1
SFAC C  
C      1  0.4522030000000  0.5773380000000  0.5142770000000 1.0
C      1  0.5614230000000  0.4847480000000  0.5787350000000 1.0
C      1  0.4644020000000  0.6028450000000  0.5045270000000 1.0
C      1  0.4371220000000  0.5838870000000  0.4708860000000 1.0
C      1  0.5317900000000  0.5585270000000  0.4437990000000 1.0
C      1  0.4268780000000  0.4571380000000  0.5634820000000 1.0
C      1  0.5115590000000  0.5339390000000  0.5421020000000 1.0
C      1  0.4137150000000  0.4953650000000  0.5346680000000 1.0
C      1  0.5011940000000  0.5106000000000  0.4891640000000 1.0
C      1  0.4784500000000  0.4033160000000  0.5093500000000 1.0
C      1  0.4716950000000  0.4479040000000  0.5797940000000 1.0
C      1  0.5439300000000  0.5105170000000  0.4347630000000 1.0
C      1  0.5518500000000  0.4311350000000  0.4552630000000 1.0
C      1  0.4946100000000  0.5725190000000  0.5191850000000 1.0
C      1  0.5196040000000  0.4074510000000  0.4843850000000 1.0
C      1  0.5846660000000  0.4782110000000  0.4912300000000 1.0
C      1  0.4104380000000  0.5340650000000  0.4790610000000 1.0
C      1  0.5427370000000  0.4632750000000  0.5735170000000 1.0
C      1  0.5773980000000  0.4908120000000  0.5557750000000 1.0
C      1  0.4009920000000  0.5005750000000  0.5103040000000 1.0
C      1  0.4932430000000  0.5210970000000  0.5839380000000 1.0
C      1  0.5217630000000  0.5909830000000  0.5498570000000 1.0
C      1  0.4517990000000  0.4388290000000  0.5580090000000 1.0
C      1  0.4517540000000  0.4472700000000  0.4636020000000 1.0
C      1  0.5506880000000  0.5671910000000  0.4876300000000 1.0
C      1  0.4167080000000  0.4662140000000  0.5377640000000 1.0
C      1  0.5119600000000  0.4853600000000  0.4036330000000 1.0
C      1  0.5713270000000  0.4720520000000  0.4352590000000 1.0
C      1  0.4913100000000  0.5053980000000  0.4075030000000 1.0
C      1  0.4334790000000  0.4996230000000  0.4399730000000 1.0
C      1  0.5115920000000  0.4385870000000  0.5539260000000 1.0
C      1  0.4715340000000  0.5323020000000  0.4603220000000 1.0
C      1  0.4187360000000  0.4873270000000  0.4648060000000 1.0
C      1  0.4870450000000  0.5168040000000  0.5366430000000 1.0
C      1  0.5117100000000  0.6020770000000  0.5022260000000 1.0
C      1  0.5302030000000  0.4923640000000  0.5312840000000 1.0
C      1  0.5091240000000  0.5462930000000  0.5696830000000 1.0
C      1  0.4545250000000  0.5060840000000  0.5066510000000 1.0
C      1  0.4866380000000  0.5868750000000  0.4631990000000 1.0
C      1  0.5805890000000  0.5379400000000  0.5286760000000 1.0
C      1  0.5013260000000  0.4869800000000  0.5432320000000 1.0
C      1  0.5475540000000  0.4191300000000  0.5355960000000 1.0
C      1  0.5534990000000  0.5394580000000  0.4369990000000 1.0
C      1  0.5126180000000  0.5941730000000  0.4740490000000 1.0
C      1  0.5387070000000  0.5461930000000  0.5783960000000 1.0
C      1  0.5655150000000  0.5623360000000  0.5367120000000 1.0
C      1  0.5290660000000  0.4998800000000  0.5002560000000 1.0
C      1  0.5925590000000  0.4542910000000  0.4752100000000 1.0
C      1  0.4983130000000  0.4511010000000  0.4824860000000 1.0
C      1  0.4529680000000  0.4884730000000  0.4833270000000 1.0
C      1  0.4576830000000  0.5228710000000  0.5519100000000 1.0
C      1  0.4860040000000  0.4431010000000  0.4213900000000 1.0
C      1  0.5577540000000  0.4699030000000  0.4105530000000 1.0
C      1  0.4138590000000  0.5452350000000  0.4537020000000 1.0
C      1  0.4693710000000  0.4617510000000  0.4834290000000 1.0
C      1  0.4790260000000  0.5224230000000  0.5082220000000 1.0
C      1  0.5076330000000  0.4074610000000  0.5111880000000 1.0
C      1  0.5037990000000  0.4902950000000  0.4557370000000 1.0
C      1  0.5834410000000  0.5172940000000  0.5477430000000 1.0
C      1  0.5772000000000  0.4474940000000  0.4510250000000 1.0
C      1  0.4436700000000  0.4818850000000  0.4178380000000 1.0
C      1  0.4982240000000  0.4226490000000  0.4694890000000 1.0
C      1  0.4743760000000  0.4765120000000  0.5801850000000 1.0
C      1  0.5352520000000  0.5173750000000  0.5446960000000 1.0
C      1  0.4496510000000  0.5735090000000  0.5527050000000 1.0
C      1  0.5613600000000  0.4931970000000  0.4539120000000 1.0
C      1  0.5560390000000  0.4308090000000  0.5079670000000 1.0
C      1  0.5761680000000  0.5523470000000  0.4811680000000 1.0
C      1  0.5017200000000  0.5756060000000  0.5627580000000 1.0
C      1  0.5171230000000  0.4660780000000  0.5875050000000 1.0
C      1  0.4779910000000  0.4858180000000  0.4449410000000 1.0
C      1  0.5064490000000  0.4096700000000  0.5573580000000 1.0
C      1  0.5848680000000  0.4373850000000  0.5077740000000 1.0
C      1  0.4748010000000  0.4063670000000  0.4797430000000 1.0
C      1  0.5918050000000  0.5061470000000  0.4876350000000 1.0
C      1  0.4629880000000  0.4476740000000  0.5306930000000 1.0
C      1  0.5782490000000  0.5394540000000  0.4541570000000 1.0
C      1  0.5155180000000  0.5524200000000  0.5195500000000 1.0
C      1  0.4267020000000  0.5760660000000  0.4978810000000 1.0
C      1  0.4630120000000  0.5194580000000  0.5813870000000 1.0
C      1  0.4490120000000  0.4182700000000  0.4739660000000 1.0
C      1  0.5313660000000  0.5969300000000  0.5235900000000 1.0
C      1  0.5538660000000  0.5799400000000  0.5152920000000 1.0
C      1  0.4765420000000  0.5825200000000  0.5509090000000 1.0
C      1  0.4733850000000  0.5541930000000  0.5057300000000 1.0
C      1  0.4342460000000  0.5641820000000  0.4482680000000 1.0
C      1  0.5064830000000  0.5561670000000  0.4290540000000 1.0
C      1  0.4609690000000  0.5522090000000  0.4403760000000 1.0
C      1  0.4639550000000  0.4596320000000  0.4355870000000 1.0
C      1  0.4832970000000  0.5719880000000  0.4381460000000 1.0
C      1  0.4529040000000  0.4924080000000  0.5891550000000 1.0
C      1  0.4440210000000  0.5004980000000  0.5337900000000 1.0
C      1  0.5004500000000  0.4403430000000  0.5815640000000 1.0
C      1  0.5402500000000  0.4919530000000  0.4103360000000 1.0
C      1  0.4291590000000  0.4799210000000  0.5807260000000 1.0
C      1  0.5412120000000  0.4576810000000  0.5077800000000 1.0
C      1  0.4590390000000  0.5041100000000  0.4570930000000 1.0
C      1  0.4226920000000  0.4479500000000  0.4982360000000 1.0
C      1  0.5470520000000  0.4172180000000  0.4820910000000 1.0
C      1  0.5855480000000  0.5107230000000  0.4595730000000 1.0
C      1  0.4347690000000  0.4207450000000  0.5004740000000 1.0
C      1  0.5185100000000  0.4657830000000  0.4644580000000 1.0
C      1  0.5417670000000  0.4771290000000  0.4812280000000 1.0
C      1  0.5852280000000  0.4655370000000  0.5171600000000 1.0
C      1  0.5042660000000  0.4273260000000  0.4393400000000 1.0
C      1  0.5021290000000  0.4588590000000  0.4039270000000 1.0
C      1  0.5361590000000  0.5791260000000  0.4645950000000 1.0
C      1  0.4642810000000  0.4965390000000  0.4043090000000 1.0
C      1  0.5465490000000  0.5189060000000  0.5712100000000 1.0
C      1  0.4407130000000  0.4650540000000  0.5170080000000 1.0
C      1  0.4954870000000  0.4564650000000  0.5338040000000 1.0
C      1  0.5459320000000  0.5230510000000  0.4971100000000 1.0
C      1  0.5753570000000  0.5289700000000  0.5000780000000 1.0
C      1  0.4629740000000  0.5975630000000  0.4762850000000 1.0
C      1  0.5037450000000  0.5330170000000  0.4667500000000 1.0
C      1  0.5112850000000  0.4516570000000  0.5091690000000 1.0
C      1  0.4239440000000  0.4578140000000  0.4700170000000 1.0
C      1  0.4411470000000  0.5473310000000  0.5453540000000 1.0
C      1  0.5553500000000  0.5636580000000  0.5632760000000 1.0
C      1  0.5231990000000  0.4010870000000  0.5349560000000 1.0
C      1  0.4039730000000  0.5064260000000  0.4832200000000 1.0
C      1  0.5279090000000  0.4451840000000  0.4430880000000 1.0
C      1  0.4556120000000  0.4185700000000  0.5238270000000 1.0
C      1  0.5152770000000  0.5152790000000  0.4429690000000 1.0
C      1  0.4184300000000  0.5439410000000  0.5288730000000 1.0
C      1  0.4998280000000  0.5329180000000  0.4119770000000 1.0
C      1  0.5283150000000  0.5455970000000  0.4926180000000 1.0
C      1  0.5002070000000  0.4892760000000  0.5756200000000 1.0
C      1  0.4124490000000  0.5512860000000  0.5023300000000 1.0
C      1  0.5499690000000  0.4385690000000  0.5584930000000 1.0
C      1  0.5635540000000  0.4733970000000  0.5358590000000 1.0
END
