TITL C-950530-3293-477 1.00667157061828e-06 125000 -357.489550368514 0 0 58 (C1) n - 1
REM
REM in /home/bkarasulu/work/CARBON/AIRSS/Generating-Clusters/EDIP-Nigel-Params/with-SteepDescent/Only-C1/SD-CG/HFTN-CG
REM
REM
REM
REM
REM
REM ./C.cell (11c1c37f851c82e70ff6c80c92926a4b)
REM
REM compiler GCC version 9.2.1 20190827 (Red Hat 9.2.1-1)
REM options -cpp -mtune=generic -march=x86-64 -g -O0 -fpre-include=/usr/include/finclude/math-vector-fortran.h
REM seed -143933306 1389744593 1494319112 526171929 416114884 -2140022904 1884730863 -988627602 -609943413 -131730157 811331517 1034970445 899318302 -825331479 -1254214843 198565407 -289777523 -903949378 -1830095301 -1755004915 803506951 -1508230845 -165955545 -786500390 -935004035 43888030 1915690054 1577893379 -1225193606 -135540029 1839517194 -1534590680 -274289633
REM
CELL 1.54180   50.00000   50.00000   50.00000   90.00000   90.00000   90.00000
LATT -1
SFAC C  
C      1  0.5225050000000  0.4777050000000  0.4338050000000 1.0
C      1  0.5529920000000  0.5527470000000  0.5048850000000 1.0
C      1  0.5041560000000  0.4955890000000  0.4452340000000 1.0
C      1  0.5475720000000  0.4794290000000  0.4864460000000 1.0
C      1  0.5618010000000  0.5072080000000  0.5227320000000 1.0
C      1  0.4360050000000  0.5185980000000  0.4748610000000 1.0
C      1  0.4683210000000  0.4752420000000  0.4297160000000 1.0
C      1  0.4956210000000  0.4527530000000  0.4658240000000 1.0
C      1  0.5361520000000  0.4631900000000  0.5586030000000 1.0
C      1  0.5094540000000  0.5392710000000  0.5419600000000 1.0
C      1  0.4487910000000  0.5360010000000  0.5171590000000 1.0
C      1  0.4392680000000  0.5127040000000  0.5030950000000 1.0
C      1  0.4470610000000  0.4552790000000  0.5451910000000 1.0
C      1  0.5220490000000  0.4949500000000  0.4856460000000 1.0
C      1  0.4376060000000  0.4649380000000  0.4993640000000 1.0
C      1  0.4768760000000  0.5010980000000  0.4715090000000 1.0
C      1  0.5146830000000  0.5132800000000  0.5561080000000 1.0
C      1  0.4301430000000  0.4883100000000  0.5165080000000 1.0
C      1  0.5633880000000  0.5157180000000  0.5494670000000 1.0
C      1  0.4823350000000  0.5518650000000  0.5425640000000 1.0
C      1  0.4531760000000  0.4994650000000  0.4336570000000 1.0
C      1  0.5205590000000  0.4276440000000  0.5008200000000 1.0
C      1  0.4965870000000  0.5045390000000  0.4942100000000 1.0
C      1  0.4942260000000  0.4923540000000  0.5562180000000 1.0
C      1  0.5072420000000  0.4650620000000  0.5523550000000 1.0
C      1  0.5521910000000  0.4614510000000  0.5352400000000 1.0
C      1  0.5417320000000  0.5068910000000  0.5651930000000 1.0
C      1  0.5103500000000  0.5772820000000  0.5092940000000 1.0
C      1  0.4954010000000  0.4373460000000  0.4904910000000 1.0
C      1  0.5015950000000  0.5688350000000  0.4596370000000 1.0
C      1  0.4697420000000  0.4605910000000  0.4543270000000 1.0
C      1  0.5635860000000  0.5256860000000  0.5004720000000 1.0
C      1  0.4813110000000  0.5713220000000  0.5167210000000 1.0
C      1  0.4707090000000  0.5473670000000  0.4995250000000 1.0
C      1  0.5448630000000  0.4532140000000  0.4697220000000 1.0
C      1  0.4611930000000  0.5304060000000  0.5429500000000 1.0
C      1  0.5200630000000  0.4241380000000  0.5288410000000 1.0
C      1  0.5590420000000  0.4794320000000  0.5147260000000 1.0
C      1  0.5527630000000  0.5156960000000  0.4745890000000 1.0
C      1  0.5435830000000  0.4297100000000  0.4851720000000 1.0
C      1  0.4439970000000  0.4835530000000  0.5427570000000 1.0
C      1  0.5456490000000  0.5640000000000  0.4780360000000 1.0
C      1  0.4576890000000  0.5374930000000  0.4677270000000 1.0
C      1  0.5190700000000  0.5791650000000  0.4799790000000 1.0
C      1  0.4813210000000  0.4470790000000  0.5138090000000 1.0
C      1  0.4687290000000  0.5250810000000  0.4416030000000 1.0
C      1  0.4528430000000  0.4477980000000  0.5182510000000 1.0
C      1  0.4352550000000  0.4948630000000  0.4572470000000 1.0
C      1  0.4679310000000  0.5011180000000  0.5454320000000 1.0
C      1  0.5213120000000  0.4552430000000  0.4511220000000 1.0
C      1  0.5259120000000  0.5536180000000  0.5189860000000 1.0
C      1  0.5445370000000  0.4820350000000  0.5777110000000 1.0
C      1  0.4525480000000  0.4759220000000  0.4736070000000 1.0
C      1  0.4983330000000  0.5230830000000  0.4398800000000 1.0
C      1  0.4983570000000  0.4412000000000  0.5367920000000 1.0
C      1  0.5123570000000  0.5430190000000  0.4552770000000 1.0
C      1  0.5408570000000  0.5401090000000  0.4607230000000 1.0
C      1  0.4966140000000  0.5313120000000  0.5062230000000 1.0
END
