TITL C-951342-2639-521 -4.79829504362056e-07 125000 -126.500156254491 0 0 22 (C1) n - 1
REM
REM in /home/bkarasulu/work/CARBON/AIRSS/Generating-Clusters/EDIP-Nigel-Params/with-SteepDescent/Only-C1/SD-CG/HFTN-CG
REM
REM
REM
REM
REM
REM ./C.cell (11c1c37f851c82e70ff6c80c92926a4b)
REM
REM compiler GCC version 9.2.1 20190827 (Red Hat 9.2.1-1)
REM options -cpp -mtune=generic -march=x86-64 -g -O0 -fpre-include=/usr/include/finclude/math-vector-fortran.h
REM seed 1526508107 987015899 405775132 -352201191 -1602691577 1528134463 1024432583 824302953 -1019621570 521238320 889975605 435939679 -2055481085 -1077835665 -245589156 420912212 812559981 -860250212 442387022 134002964 840152081 1677347586 -269732970 -1539651811 329751397 1437577032 558077179 1543973364 -2017319832 1970735207 1130366072 1712940361 14194787
REM
CELL 1.54180   50.00000   50.00000   50.00000   90.00000   90.00000   90.00000
LATT -1
SFAC C  
C      1  0.4821510000000  0.4550130000000  0.5171210000000 1.0
C      1  0.5542780000000  0.4807430000000  0.5090760000000 1.0
C      1  0.4936500000000  0.4982430000000  0.5486320000000 1.0
C      1  0.5005020000000  0.5456710000000  0.5276790000000 1.0
C      1  0.4630780000000  0.4730300000000  0.5108940000000 1.0
C      1  0.5199360000000  0.5117800000000  0.4975640000000 1.0
C      1  0.5153990000000  0.4831540000000  0.5390260000000 1.0
C      1  0.5156500000000  0.5109820000000  0.4487650000000 1.0
C      1  0.5054300000000  0.5371080000000  0.5014090000000 1.0
C      1  0.4826180000000  0.5406910000000  0.4853010000000 1.0
C      1  0.5306800000000  0.5049490000000  0.4714670000000 1.0
C      1  0.5065590000000  0.4587270000000  0.5280310000000 1.0
C      1  0.4699840000000  0.5152910000000  0.4858420000000 1.0
C      1  0.4633010000000  0.5011470000000  0.5111670000000 1.0
C      1  0.5337910000000  0.4983590000000  0.5201980000000 1.0
C      1  0.4694950000000  0.5010720000000  0.4606690000000 1.0
C      1  0.4759930000000  0.5407380000000  0.5385800000000 1.0
C      1  0.4895100000000  0.5081260000000  0.4425810000000 1.0
C      1  0.5484180000000  0.4825790000000  0.4707670000000 1.0
C      1  0.5501580000000  0.4621340000000  0.4891520000000 1.0
C      1  0.4570480000000  0.4777450000000  0.4588590000000 1.0
C      1  0.4723690000000  0.5127190000000  0.5372190000000 1.0
END
