TITL C-950528-5794-215 -5.70746682838853e-06 125000 -1095.92771355617 0 0 176 (C1) n - 1
REM
REM in /home/bkarasulu/work/CARBON/AIRSS/Generating-Clusters/EDIP-Nigel-Params/with-SteepDescent/Only-C1/SD-CG/HFTN-CG
REM
REM
REM
REM
REM
REM ./C.cell (11c1c37f851c82e70ff6c80c92926a4b)
REM
REM compiler GCC version 9.2.1 20190827 (Red Hat 9.2.1-1)
REM options -cpp -mtune=generic -march=x86-64 -g -O0 -fpre-include=/usr/include/finclude/math-vector-fortran.h
REM seed -1582941582 17399535 678758127 -315598951 -1945414365 1890756733 1803718125 -568420518 -464121722 -1178168310 -625407918 653515530 -925814867 -810960361 552176090 -772425607 -530811784 -848579031 1145952233 595733103 1999540142 1247086893 -36615077 -1636172424 2056204735 -775949551 -749428116 -2143337636 -923387799 1065679126 545382328 323707647 125140045
REM
CELL 1.54180   50.00000   50.00000   50.00000   90.00000   90.00000   90.00000
LATT -1
SFAC C  
C      1  0.5119930000000  0.5599880000000  0.5399670000000 1.0
C      1  0.4887420000000  0.4862260000000  0.5677180000000 1.0
C      1  0.6096680000000  0.5317900000000  0.5122760000000 1.0
C      1  0.4740500000000  0.5031970000000  0.4423190000000 1.0
C      1  0.5937590000000  0.5661740000000  0.5353340000000 1.0
C      1  0.5278110000000  0.5214620000000  0.5071490000000 1.0
C      1  0.5463950000000  0.4979170000000  0.4113370000000 1.0
C      1  0.4368740000000  0.4573310000000  0.5826880000000 1.0
C      1  0.5715280000000  0.5571860000000  0.5779280000000 1.0
C      1  0.5712890000000  0.5553770000000  0.4519510000000 1.0
C      1  0.4376540000000  0.5570170000000  0.5563580000000 1.0
C      1  0.4868140000000  0.4230630000000  0.4248490000000 1.0
C      1  0.5527970000000  0.4828420000000  0.5114870000000 1.0
C      1  0.4568120000000  0.4602880000000  0.5335340000000 1.0
C      1  0.5765320000000  0.4208800000000  0.4572570000000 1.0
C      1  0.5752820000000  0.4575350000000  0.5672250000000 1.0
C      1  0.4835590000000  0.4961220000000  0.5124280000000 1.0
C      1  0.4631300000000  0.4292640000000  0.4971620000000 1.0
C      1  0.5470620000000  0.5619870000000  0.4879160000000 1.0
C      1  0.4259500000000  0.4625820000000  0.4081260000000 1.0
C      1  0.6046050000000  0.4872590000000  0.5284730000000 1.0
C      1  0.5917240000000  0.5566100000000  0.4702670000000 1.0
C      1  0.4710890000000  0.3996670000000  0.4941000000000 1.0
C      1  0.4224830000000  0.5668860000000  0.4568520000000 1.0
C      1  0.4043730000000  0.5410470000000  0.4973330000000 1.0
C      1  0.4670940000000  0.4127860000000  0.4453650000000 1.0
C      1  0.5272430000000  0.4417360000000  0.4918200000000 1.0
C      1  0.5267620000000  0.4916560000000  0.5021780000000 1.0
C      1  0.5803130000000  0.5327040000000  0.5898960000000 1.0
C      1  0.5560650000000  0.4620620000000  0.4454420000000 1.0
C      1  0.4596990000000  0.5781170000000  0.4256550000000 1.0
C      1  0.4402970000000  0.4171150000000  0.5499300000000 1.0
C      1  0.5511480000000  0.5780050000000  0.5646210000000 1.0
C      1  0.6167400000000  0.5511620000000  0.5308050000000 1.0
C      1  0.5096260000000  0.4371540000000  0.5866330000000 1.0
C      1  0.4707140000000  0.5480380000000  0.6015820000000 1.0
C      1  0.4522900000000  0.4351660000000  0.5711890000000 1.0
C      1  0.4631940000000  0.4053030000000  0.5387810000000 1.0
C      1  0.4579850000000  0.5558140000000  0.4805140000000 1.0
C      1  0.4429860000000  0.4781510000000  0.4815440000000 1.0
C      1  0.5712780000000  0.4631900000000  0.4713440000000 1.0
C      1  0.5410960000000  0.4806140000000  0.5838090000000 1.0
C      1  0.4940590000000  0.5319460000000  0.4712440000000 1.0
C      1  0.5188950000000  0.5477790000000  0.5667780000000 1.0
C      1  0.5126260000000  0.5582550000000  0.5917900000000 1.0
C      1  0.5482810000000  0.5751980000000  0.4512420000000 1.0
C      1  0.4222620000000  0.5480120000000  0.5780780000000 1.0
C      1  0.5720420000000  0.5205710000000  0.5461340000000 1.0
C      1  0.4557080000000  0.4861940000000  0.5174480000000 1.0
C      1  0.4231280000000  0.5017870000000  0.5597320000000 1.0
C      1  0.4059530000000  0.5049690000000  0.5346270000000 1.0
C      1  0.5660360000000  0.4843050000000  0.4294600000000 1.0
C      1  0.4672890000000  0.6206210000000  0.4842850000000 1.0
C      1  0.4943350000000  0.5543040000000  0.4923700000000 1.0
C      1  0.5104790000000  0.4749330000000  0.5490780000000 1.0
C      1  0.5058380000000  0.4769840000000  0.5200500000000 1.0
C      1  0.5604500000000  0.4405110000000  0.5869860000000 1.0
C      1  0.5371570000000  0.5790550000000  0.5363280000000 1.0
C      1  0.4825100000000  0.4311470000000  0.5746190000000 1.0
C      1  0.4063520000000  0.5486560000000  0.4703320000000 1.0
C      1  0.5535320000000  0.4125490000000  0.5255970000000 1.0
C      1  0.4489350000000  0.4832900000000  0.4048410000000 1.0
C      1  0.4811800000000  0.6068850000000  0.5039970000000 1.0
C      1  0.5100040000000  0.3974570000000  0.4667300000000 1.0
C      1  0.5206120000000  0.5986040000000  0.4657190000000 1.0
C      1  0.5850870000000  0.4908150000000  0.4748220000000 1.0
C      1  0.5620370000000  0.4347420000000  0.4359900000000 1.0
C      1  0.4926240000000  0.4984750000000  0.3931230000000 1.0
C      1  0.5036290000000  0.4492120000000  0.5115540000000 1.0
C      1  0.5164190000000  0.4537680000000  0.4636900000000 1.0
C      1  0.4538600000000  0.6063480000000  0.4648560000000 1.0
C      1  0.4718330000000  0.4559530000000  0.4393270000000 1.0
C      1  0.4688110000000  0.5826120000000  0.5142910000000 1.0
C      1  0.5374620000000  0.4192740000000  0.4306820000000 1.0
C      1  0.4271630000000  0.4544970000000  0.5298960000000 1.0
C      1  0.4611450000000  0.4767660000000  0.5601660000000 1.0
C      1  0.5358090000000  0.3986100000000  0.4519940000000 1.0
C      1  0.5191740000000  0.3938740000000  0.4935950000000 1.0
C      1  0.4975790000000  0.3974550000000  0.5117170000000 1.0
C      1  0.4038690000000  0.4499220000000  0.4766900000000 1.0
C      1  0.5835210000000  0.5824490000000  0.5151990000000 1.0
C      1  0.4062700000000  0.4897110000000  0.4430480000000 1.0
C      1  0.4848780000000  0.5406820000000  0.4203060000000 1.0
C      1  0.4654250000000  0.5730640000000  0.5896480000000 1.0
C      1  0.5870310000000  0.4443770000000  0.5136440000000 1.0
C      1  0.5075330000000  0.5855520000000  0.4208380000000 1.0
C      1  0.4837840000000  0.5690930000000  0.4113410000000 1.0
C      1  0.5096090000000  0.4978930000000  0.6120570000000 1.0
C      1  0.4232580000000  0.4258060000000  0.5263910000000 1.0
C      1  0.5349820000000  0.4549280000000  0.5984860000000 1.0
C      1  0.5336830000000  0.4182730000000  0.5457470000000 1.0
C      1  0.4968520000000  0.5489070000000  0.6119030000000 1.0
C      1  0.5549030000000  0.4573180000000  0.4967900000000 1.0
C      1  0.5491590000000  0.5304460000000  0.4896420000000 1.0
C      1  0.4237190000000  0.4280480000000  0.4733110000000 1.0
C      1  0.5105690000000  0.6056390000000  0.5025340000000 1.0
C      1  0.4344870000000  0.5381480000000  0.5337010000000 1.0
C      1  0.4135150000000  0.5160070000000  0.4376700000000 1.0
C      1  0.5630980000000  0.5274990000000  0.4439980000000 1.0
C      1  0.4875660000000  0.4624700000000  0.4648030000000 1.0
C      1  0.5132090000000  0.4583740000000  0.4110250000000 1.0
C      1  0.5392040000000  0.4794790000000  0.5536180000000 1.0
C      1  0.5251840000000  0.4854980000000  0.4663950000000 1.0
C      1  0.4336490000000  0.5303300000000  0.4248490000000 1.0
C      1  0.5280510000000  0.5052290000000  0.5927140000000 1.0
C      1  0.4972730000000  0.6030330000000  0.5483230000000 1.0
C      1  0.5202790000000  0.5192020000000  0.5664210000000 1.0
C      1  0.5710920000000  0.5043540000000  0.4992580000000 1.0
C      1  0.4601750000000  0.4530020000000  0.4757670000000 1.0
C      1  0.4176000000000  0.4735460000000  0.5687940000000 1.0
C      1  0.4645720000000  0.4998060000000  0.6065340000000 1.0
C      1  0.4370070000000  0.5590980000000  0.4325710000000 1.0
C      1  0.4994700000000  0.6012080000000  0.4443040000000 1.0
C      1  0.5356880000000  0.4231030000000  0.5755740000000 1.0
C      1  0.4577440000000  0.5047420000000  0.4772180000000 1.0
C      1  0.4636740000000  0.5680050000000  0.5624260000000 1.0
C      1  0.4602970000000  0.5356630000000  0.5198600000000 1.0
C      1  0.4738670000000  0.4753360000000  0.3888270000000 1.0
C      1  0.3888930000000  0.4684850000000  0.5061130000000 1.0
C      1  0.5811650000000  0.5036010000000  0.4473570000000 1.0
C      1  0.5902830000000  0.5112350000000  0.5218540000000 1.0
C      1  0.3969350000000  0.4918200000000  0.4900720000000 1.0
C      1  0.5341600000000  0.5719530000000  0.4236130000000 1.0
C      1  0.5709480000000  0.5522100000000  0.5478460000000 1.0
C      1  0.4876480000000  0.4520250000000  0.3990880000000 1.0
C      1  0.4847510000000  0.5215150000000  0.5284500000000 1.0
C      1  0.4404930000000  0.4264740000000  0.4476610000000 1.0
C      1  0.4037100000000  0.4739790000000  0.4202620000000 1.0
C      1  0.5545910000000  0.5265680000000  0.4148910000000 1.0
C      1  0.4019180000000  0.4728280000000  0.5332070000000 1.0
C      1  0.5072210000000  0.4095340000000  0.5372330000000 1.0
C      1  0.5847040000000  0.5119190000000  0.5713620000000 1.0
C      1  0.4389070000000  0.5794710000000  0.5054710000000 1.0
C      1  0.4489070000000  0.5023060000000  0.5462100000000 1.0
C      1  0.4806320000000  0.3978060000000  0.4662380000000 1.0
C      1  0.5417820000000  0.4126260000000  0.4967050000000 1.0
C      1  0.5432760000000  0.5087280000000  0.5459610000000 1.0
C      1  0.5144440000000  0.4381110000000  0.4334080000000 1.0
C      1  0.4586260000000  0.4806890000000  0.4320040000000 1.0
C      1  0.5121730000000  0.5310570000000  0.4268190000000 1.0
C      1  0.5597670000000  0.4536270000000  0.5403700000000 1.0
C      1  0.4357200000000  0.4159990000000  0.4992810000000 1.0
C      1  0.4835820000000  0.5779920000000  0.5413910000000 1.0
C      1  0.5178980000000  0.5361560000000  0.4550200000000 1.0
C      1  0.4197980000000  0.5575600000000  0.5158690000000 1.0
C      1  0.5323310000000  0.5450170000000  0.4099480000000 1.0
C      1  0.5053060000000  0.4962150000000  0.4421710000000 1.0
C      1  0.5059650000000  0.5393580000000  0.5171440000000 1.0
C      1  0.4135570000000  0.4776830000000  0.4703660000000 1.0
C      1  0.5199500000000  0.6030810000000  0.5310440000000 1.0
C      1  0.4884610000000  0.5157810000000  0.5602440000000 1.0
C      1  0.4344350000000  0.5869410000000  0.4755210000000 1.0
C      1  0.4763440000000  0.4376120000000  0.5225920000000 1.0
C      1  0.4104700000000  0.5129650000000  0.5058480000000 1.0
C      1  0.5565460000000  0.5748800000000  0.5129230000000 1.0
C      1  0.5582730000000  0.4034200000000  0.4716700000000 1.0
C      1  0.4703320000000  0.5364350000000  0.4489930000000 1.0
C      1  0.4335980000000  0.4407050000000  0.4242510000000 1.0
C      1  0.5154030000000  0.4886400000000  0.4137200000000 1.0
C      1  0.4882310000000  0.5028120000000  0.4829200000000 1.0
C      1  0.6060860000000  0.5412800000000  0.4866240000000 1.0
C      1  0.4715200000000  0.5929750000000  0.4473860000000 1.0
C      1  0.4749490000000  0.5222380000000  0.3991370000000 1.0
C      1  0.5404030000000  0.5204480000000  0.4628120000000 1.0
C      1  0.4467820000000  0.5146220000000  0.4033270000000 1.0
C      1  0.4855360000000  0.4101770000000  0.5551890000000 1.0
C      1  0.4314740000000  0.5217630000000  0.5819160000000 1.0
C      1  0.4459500000000  0.5293580000000  0.4939940000000 1.0
C      1  0.5978740000000  0.4487510000000  0.4711300000000 1.0
C      1  0.4618530000000  0.5219110000000  0.5881370000000 1.0
C      1  0.6092910000000  0.4638880000000  0.5142410000000 1.0
C      1  0.5799210000000  0.4222730000000  0.5308770000000 1.0
C      1  0.5183720000000  0.5730010000000  0.4836020000000 1.0
C      1  0.4878690000000  0.4874230000000  0.5981950000000 1.0
C      1  0.5840130000000  0.4838320000000  0.5755920000000 1.0
C      1  0.6134220000000  0.4681220000000  0.4861900000000 1.0
END
