TITL C-951333-8791-576 1.86814518843704e-06 125000 -1170.26802391809 0 0 186 (C1) n - 1
REM
REM in /home/bkarasulu/work/CARBON/AIRSS/Generating-Clusters/EDIP-Nigel-Params/with-SteepDescent/Only-C1/SD-CG/HFTN-CG
REM
REM
REM
REM
REM
REM ./C.cell (11c1c37f851c82e70ff6c80c92926a4b)
REM
REM compiler GCC version 9.2.1 20190827 (Red Hat 9.2.1-1)
REM options -cpp -mtune=generic -march=x86-64 -g -O0 -fpre-include=/usr/include/finclude/math-vector-fortran.h
REM seed 806841560 -921103024 764667940 525236199 27177810 397976037 -1679406567 -1208548074 1939661619 -804277464 -901672283 313743695 -364093357 -1959148853 922153724 813067959 -1575594715 1725804410 -2002775598 1497073620 1811361512 2110752160 -108222543 846350515 994474287 512746863 -1384459951 -1255543793 -112751496 -1182049926 -125318732 -2071853159 -384687260
REM
CELL 1.54180   50.00000   50.00000   50.00000   90.00000   90.00000   90.00000
LATT -1
SFAC C  
C      1  0.5187240000000  0.5521780000000  0.6014950000000 1.0
C      1  0.4923320000000  0.4847380000000  0.3933040000000 1.0
C      1  0.4593510000000  0.4418880000000  0.5177490000000 1.0
C      1  0.4173640000000  0.4457190000000  0.4857320000000 1.0
C      1  0.4914450000000  0.4236080000000  0.5908770000000 1.0
C      1  0.5616130000000  0.4424270000000  0.5776050000000 1.0
C      1  0.5301830000000  0.5905350000000  0.5353090000000 1.0
C      1  0.4541690000000  0.4247450000000  0.4547810000000 1.0
C      1  0.4009730000000  0.5040650000000  0.5424680000000 1.0
C      1  0.4977200000000  0.5281940000000  0.5077880000000 1.0
C      1  0.4947650000000  0.5003820000000  0.4732560000000 1.0
C      1  0.5358280000000  0.5473160000000  0.4778260000000 1.0
C      1  0.5730970000000  0.5108670000000  0.4957430000000 1.0
C      1  0.4463030000000  0.4571450000000  0.4955840000000 1.0
C      1  0.4743690000000  0.5316520000000  0.3941300000000 1.0
C      1  0.3817510000000  0.5120480000000  0.5223880000000 1.0
C      1  0.5049520000000  0.5308000000000  0.4357530000000 1.0
C      1  0.4524140000000  0.4520410000000  0.5961810000000 1.0
C      1  0.4227660000000  0.5511490000000  0.4116500000000 1.0
C      1  0.4827670000000  0.4632870000000  0.4138320000000 1.0
C      1  0.4907100000000  0.4811590000000  0.5292210000000 1.0
C      1  0.4759120000000  0.4627690000000  0.5768440000000 1.0
C      1  0.6053930000000  0.4628870000000  0.5564490000000 1.0
C      1  0.5370930000000  0.4261170000000  0.5678050000000 1.0
C      1  0.4722560000000  0.5757900000000  0.4149290000000 1.0
C      1  0.5985830000000  0.4856900000000  0.4585770000000 1.0
C      1  0.4978430000000  0.4206960000000  0.4391810000000 1.0
C      1  0.4399540000000  0.4981490000000  0.5870030000000 1.0
C      1  0.5517200000000  0.3948350000000  0.5250540000000 1.0
C      1  0.5724510000000  0.5234030000000  0.4109190000000 1.0
C      1  0.4370520000000  0.5226660000000  0.5085620000000 1.0
C      1  0.4294460000000  0.4121000000000  0.4607890000000 1.0
C      1  0.5268390000000  0.5247440000000  0.4974420000000 1.0
C      1  0.4922590000000  0.5051980000000  0.4441210000000 1.0
C      1  0.4860780000000  0.3906850000000  0.5544180000000 1.0
C      1  0.4636980000000  0.4512610000000  0.4669300000000 1.0
C      1  0.5627760000000  0.4122990000000  0.4732600000000 1.0
C      1  0.4866890000000  0.5160480000000  0.6023400000000 1.0
C      1  0.5002960000000  0.5697280000000  0.4055820000000 1.0
C      1  0.4512980000000  0.3919690000000  0.5211440000000 1.0
C      1  0.5689380000000  0.4588860000000  0.4917730000000 1.0
C      1  0.5503090000000  0.5528830000000  0.5222550000000 1.0
C      1  0.4300650000000  0.5150090000000  0.4765700000000 1.0
C      1  0.4549310000000  0.5385060000000  0.4393430000000 1.0
C      1  0.5614420000000  0.4989110000000  0.4252820000000 1.0
C      1  0.5941600000000  0.4772380000000  0.5354060000000 1.0
C      1  0.4008390000000  0.4522120000000  0.5266750000000 1.0
C      1  0.4168290000000  0.4777400000000  0.5346880000000 1.0
C      1  0.5052450000000  0.4195990000000  0.5163610000000 1.0
C      1  0.5391550000000  0.5525990000000  0.5786100000000 1.0
C      1  0.5218680000000  0.5721580000000  0.4901710000000 1.0
C      1  0.4352550000000  0.4465500000000  0.5723370000000 1.0
C      1  0.3943500000000  0.5451650000000  0.4806680000000 1.0
C      1  0.4500560000000  0.4796570000000  0.6082640000000 1.0
C      1  0.5625280000000  0.5126340000000  0.6012820000000 1.0
C      1  0.5099250000000  0.3962910000000  0.5367310000000 1.0
C      1  0.5231660000000  0.4468930000000  0.5511800000000 1.0
C      1  0.5934450000000  0.5460390000000  0.5445900000000 1.0
C      1  0.5033980000000  0.6047310000000  0.5269710000000 1.0
C      1  0.5509990000000  0.4851370000000  0.5410150000000 1.0
C      1  0.5323300000000  0.4155390000000  0.4696770000000 1.0
C      1  0.4859250000000  0.5933420000000  0.5469030000000 1.0
C      1  0.5394180000000  0.4148770000000  0.4187880000000 1.0
C      1  0.5162680000000  0.4843970000000  0.4848940000000 1.0
C      1  0.5717630000000  0.4886920000000  0.5891510000000 1.0
C      1  0.5048260000000  0.5240160000000  0.5552750000000 1.0
C      1  0.4756740000000  0.4148420000000  0.5671040000000 1.0
C      1  0.5535410000000  0.6005640000000  0.4606660000000 1.0
C      1  0.4217780000000  0.5728300000000  0.5100120000000 1.0
C      1  0.5236900000000  0.5651200000000  0.5205090000000 1.0
C      1  0.5664820000000  0.4188030000000  0.4256040000000 1.0
C      1  0.4078150000000  0.5282860000000  0.4593200000000 1.0
C      1  0.5488960000000  0.5404890000000  0.4014790000000 1.0
C      1  0.4943320000000  0.4342330000000  0.4127930000000 1.0
C      1  0.4633110000000  0.5109800000000  0.4418950000000 1.0
C      1  0.4164980000000  0.5300310000000  0.5464820000000 1.0
C      1  0.4353550000000  0.3909880000000  0.4765310000000 1.0
C      1  0.4933860000000  0.5716180000000  0.4796980000000 1.0
C      1  0.4652960000000  0.4945560000000  0.5698010000000 1.0
C      1  0.5702820000000  0.5658040000000  0.4345820000000 1.0
C      1  0.4116370000000  0.5285310000000  0.4001150000000 1.0
C      1  0.4296430000000  0.4850620000000  0.5079050000000 1.0
C      1  0.5425180000000  0.4835440000000  0.4076660000000 1.0
C      1  0.4402500000000  0.4702180000000  0.5530030000000 1.0
C      1  0.4104380000000  0.5705820000000  0.4827370000000 1.0
C      1  0.4811000000000  0.5453070000000  0.4886840000000 1.0
C      1  0.5229660000000  0.4066280000000  0.4420930000000 1.0
C      1  0.5319680000000  0.5363380000000  0.4474450000000 1.0
C      1  0.5369210000000  0.6030850000000  0.4838270000000 1.0
C      1  0.4257960000000  0.5486230000000  0.4431580000000 1.0
C      1  0.5471460000000  0.4939530000000  0.4740760000000 1.0
C      1  0.5124170000000  0.6194520000000  0.4795960000000 1.0
C      1  0.4466570000000  0.5889360000000  0.5152090000000 1.0
C      1  0.5353750000000  0.5065990000000  0.6113270000000 1.0
C      1  0.5129750000000  0.5254280000000  0.6125870000000 1.0
C      1  0.4572550000000  0.5469430000000  0.5066150000000 1.0
C      1  0.5824480000000  0.4472040000000  0.5574500000000 1.0
C      1  0.4171740000000  0.4633020000000  0.4585320000000 1.0
C      1  0.4746460000000  0.5859410000000  0.4424770000000 1.0
C      1  0.5995780000000  0.5298640000000  0.4558150000000 1.0
C      1  0.4150950000000  0.4274230000000  0.5205020000000 1.0
C      1  0.5549490000000  0.4231130000000  0.5185280000000 1.0
C      1  0.5300370000000  0.4749980000000  0.5593270000000 1.0
C      1  0.4466880000000  0.4217990000000  0.5599940000000 1.0
C      1  0.5019560000000  0.5822880000000  0.5691510000000 1.0
C      1  0.5026260000000  0.4680760000000  0.6140350000000 1.0
C      1  0.5531910000000  0.6162920000000  0.5038900000000 1.0
C      1  0.4793800000000  0.4890500000000  0.6122500000000 1.0
C      1  0.4992010000000  0.5449820000000  0.5317730000000 1.0
C      1  0.5065600000000  0.6191840000000  0.4524280000000 1.0
C      1  0.5298070000000  0.3817200000000  0.5080950000000 1.0
C      1  0.5680510000000  0.5373770000000  0.5851530000000 1.0
C      1  0.4594010000000  0.5360160000000  0.5559670000000 1.0
C      1  0.5791960000000  0.5268010000000  0.5590200000000 1.0
C      1  0.4090170000000  0.5509840000000  0.5262930000000 1.0
C      1  0.4842980000000  0.5341100000000  0.5769330000000 1.0
C      1  0.4684650000000  0.4610290000000  0.5386740000000 1.0
C      1  0.4935830000000  0.5613850000000  0.5879070000000 1.0
C      1  0.5576120000000  0.5968540000000  0.5225510000000 1.0
C      1  0.5020740000000  0.4737510000000  0.4352910000000 1.0
C      1  0.5045770000000  0.4927710000000  0.5531130000000 1.0
C      1  0.4511450000000  0.4973190000000  0.4640780000000 1.0
C      1  0.5661730000000  0.5585940000000  0.4811240000000 1.0
C      1  0.5874400000000  0.5361200000000  0.4825080000000 1.0
C      1  0.6079720000000  0.5459680000000  0.5004270000000 1.0
C      1  0.5552020000000  0.4724440000000  0.5151120000000 1.0
C      1  0.5959510000000  0.4916430000000  0.5092510000000 1.0
C      1  0.4303530000000  0.5235280000000  0.5933090000000 1.0
C      1  0.4548950000000  0.5868260000000  0.4646640000000 1.0
C      1  0.4837790000000  0.3953270000000  0.4800390000000 1.0
C      1  0.5237920000000  0.4381950000000  0.4074890000000 1.0
C      1  0.5873140000000  0.5413830000000  0.4309770000000 1.0
C      1  0.5777130000000  0.4157060000000  0.4498020000000 1.0
C      1  0.5201360000000  0.4185800000000  0.5909130000000 1.0
C      1  0.5110070000000  0.4689890000000  0.5110890000000 1.0
C      1  0.4985970000000  0.4583330000000  0.4619510000000 1.0
C      1  0.5268590000000  0.4449680000000  0.4695200000000 1.0
C      1  0.4454060000000  0.4699070000000  0.4509940000000 1.0
C      1  0.5717320000000  0.4289800000000  0.4961410000000 1.0
C      1  0.5194040000000  0.4979750000000  0.3974200000000 1.0
C      1  0.4422860000000  0.4203520000000  0.5296490000000 1.0
C      1  0.5128210000000  0.4018930000000  0.4924370000000 1.0
C      1  0.5714160000000  0.5791470000000  0.4601990000000 1.0
C      1  0.6162070000000  0.5071310000000  0.4550450000000 1.0
C      1  0.5960760000000  0.5604210000000  0.5210790000000 1.0
C      1  0.5698440000000  0.5706630000000  0.5110940000000 1.0
C      1  0.3943650000000  0.5338350000000  0.5083160000000 1.0
C      1  0.5205750000000  0.5796050000000  0.4242870000000 1.0
C      1  0.4688510000000  0.5027130000000  0.3904190000000 1.0
C      1  0.5457120000000  0.5092990000000  0.4483840000000 1.0
C      1  0.4577260000000  0.3867060000000  0.4928690000000 1.0
C      1  0.4705490000000  0.4930380000000  0.4863410000000 1.0
C      1  0.5295770000000  0.4630490000000  0.4232240000000 1.0
C      1  0.4689350000000  0.5552320000000  0.5336110000000 1.0
C      1  0.5492380000000  0.4697470000000  0.5868340000000 1.0
C      1  0.4326260000000  0.5388950000000  0.5699840000000 1.0
C      1  0.4033940000000  0.4894880000000  0.4638360000000 1.0
C      1  0.4530030000000  0.4687400000000  0.4211340000000 1.0
C      1  0.4283410000000  0.5743150000000  0.4596640000000 1.0
C      1  0.4666530000000  0.3778890000000  0.5395550000000 1.0
C      1  0.5308410000000  0.4775160000000  0.6118460000000 1.0
C      1  0.4577060000000  0.5910890000000  0.5419870000000 1.0
C      1  0.5946800000000  0.4735990000000  0.4857450000000 1.0
C      1  0.4928540000000  0.6059130000000  0.4984080000000 1.0
C      1  0.4562160000000  0.5503420000000  0.4108490000000 1.0
C      1  0.3923200000000  0.4588640000000  0.4994980000000 1.0
C      1  0.5322360000000  0.5294630000000  0.5604880000000 1.0
C      1  0.5032200000000  0.5909140000000  0.4474360000000 1.0
C      1  0.5375230000000  0.3993930000000  0.5518390000000 1.0
C      1  0.4625560000000  0.5985090000000  0.4917410000000 1.0
C      1  0.4769430000000  0.4069690000000  0.4534050000000 1.0
C      1  0.5239370000000  0.5267240000000  0.3911990000000 1.0
C      1  0.5233710000000  0.4424940000000  0.5219980000000 1.0
C      1  0.5514880000000  0.5242850000000  0.5155830000000 1.0
C      1  0.4538580000000  0.5085750000000  0.5363100000000 1.0
C      1  0.5312430000000  0.5810030000000  0.5648200000000 1.0
C      1  0.5011970000000  0.5395160000000  0.4060370000000 1.0
C      1  0.5017650000000  0.4528870000000  0.5888920000000 1.0
C      1  0.5817420000000  0.4811380000000  0.4364420000000 1.0
C      1  0.5509450000000  0.4631020000000  0.4686760000000 1.0
C      1  0.4199550000000  0.5030510000000  0.4006320000000 1.0
C      1  0.4772070000000  0.5033390000000  0.5144880000000 1.0
C      1  0.4455950000000  0.4927590000000  0.4056550000000 1.0
C      1  0.4012550000000  0.4861520000000  0.4930670000000 1.0
C      1  0.5539610000000  0.5148850000000  0.5449470000000 1.0
C      1  0.5426500000000  0.5572100000000  0.4267040000000 1.0
END
