TITL C-951345-2650-337 -3.44478366592894e-06 125000 -542.705287030066 0 0 88 (C1) n - 1
REM
REM in /home/bkarasulu/work/CARBON/AIRSS/Generating-Clusters/EDIP-Nigel-Params/with-SteepDescent/Only-C1/SD-CG/HFTN-CG
REM
REM
REM
REM
REM
REM ./C.cell (11c1c37f851c82e70ff6c80c92926a4b)
REM
REM compiler GCC version 9.2.1 20190827 (Red Hat 9.2.1-1)
REM options -cpp -mtune=generic -march=x86-64 -g -O0 -fpre-include=/usr/include/finclude/math-vector-fortran.h
REM seed 964365540 2047485939 623644079 499688452 -320160728 -1973476619 -1306103945 -1170539130 -1999553548 856706632 1102774266 703389298 1062021087 1615158357 -1134537229 1360518681 49580980 -552495040 1291209255 -1601988148 -1770100646 -812650770 1378423209 1193539524 -136318214 -1321847183 -1172689447 -849972780 -1213852967 355406307 1100497661 1726047907 115457784
REM
CELL 1.54180   50.00000   50.00000   50.00000   90.00000   90.00000   90.00000
LATT -1
SFAC C  
C      1  0.4654190000000  0.4790000000000  0.5690370000000 1.0
C      1  0.5659550000000  0.4470320000000  0.5388840000000 1.0
C      1  0.5385020000000  0.5354410000000  0.5539890000000 1.0
C      1  0.4702650000000  0.5689220000000  0.5416590000000 1.0
C      1  0.5115570000000  0.5829960000000  0.4717280000000 1.0
C      1  0.4727940000000  0.4500680000000  0.5642330000000 1.0
C      1  0.5315170000000  0.5403610000000  0.4546430000000 1.0
C      1  0.4649410000000  0.4565770000000  0.4752970000000 1.0
C      1  0.4343550000000  0.5193780000000  0.4566490000000 1.0
C      1  0.4655360000000  0.4320110000000  0.4568270000000 1.0
C      1  0.5211800000000  0.4647090000000  0.5669390000000 1.0
C      1  0.4723380000000  0.5791890000000  0.5043520000000 1.0
C      1  0.5741730000000  0.5046840000000  0.5400580000000 1.0
C      1  0.4895750000000  0.4731400000000  0.5261910000000 1.0
C      1  0.4278510000000  0.5616920000000  0.4897460000000 1.0
C      1  0.5649800000000  0.5055680000000  0.4643560000000 1.0
C      1  0.4714330000000  0.5336090000000  0.5684120000000 1.0
C      1  0.4264880000000  0.5344490000000  0.5409570000000 1.0
C      1  0.5197220000000  0.4931110000000  0.4682720000000 1.0
C      1  0.5131910000000  0.4922110000000  0.5710810000000 1.0
C      1  0.5114610000000  0.4453360000000  0.4922630000000 1.0
C      1  0.5019510000000  0.5795040000000  0.4990060000000 1.0
C      1  0.4311250000000  0.4908150000000  0.4621170000000 1.0
C      1  0.4801700000000  0.4761330000000  0.4577510000000 1.0
C      1  0.4305170000000  0.4848520000000  0.5529650000000 1.0
C      1  0.5368230000000  0.5195180000000  0.5023720000000 1.0
C      1  0.5708800000000  0.4878520000000  0.5136820000000 1.0
C      1  0.5482830000000  0.5756000000000  0.5135310000000 1.0
C      1  0.4642330000000  0.5729430000000  0.4561860000000 1.0
C      1  0.6075500000000  0.4918610000000  0.4804650000000 1.0
C      1  0.4833350000000  0.4531580000000  0.5030770000000 1.0
C      1  0.5385390000000  0.5162070000000  0.4720210000000 1.0
C      1  0.5077030000000  0.4278740000000  0.4686740000000 1.0
C      1  0.5366080000000  0.5677730000000  0.4659590000000 1.0
C      1  0.4655020000000  0.5529480000000  0.5180940000000 1.0
C      1  0.4670110000000  0.4601230000000  0.4155680000000 1.0
C      1  0.5383940000000  0.4558000000000  0.5284430000000 1.0
C      1  0.4671300000000  0.4879100000000  0.5389410000000 1.0
C      1  0.4893070000000  0.5527870000000  0.5555150000000 1.0
C      1  0.5585280000000  0.5387920000000  0.5104440000000 1.0
C      1  0.4266040000000  0.4717920000000  0.5055050000000 1.0
C      1  0.4379610000000  0.4691230000000  0.4788290000000 1.0
C      1  0.5828670000000  0.4993890000000  0.4872170000000 1.0
C      1  0.5814320000000  0.4597570000000  0.5172270000000 1.0
C      1  0.4987200000000  0.4529960000000  0.5486570000000 1.0
C      1  0.4917250000000  0.5001270000000  0.4772920000000 1.0
C      1  0.4165420000000  0.5066390000000  0.5378820000000 1.0
C      1  0.5523470000000  0.4643160000000  0.5635580000000 1.0
C      1  0.4598190000000  0.5275770000000  0.4432910000000 1.0
C      1  0.4715100000000  0.5083310000000  0.4240520000000 1.0
C      1  0.4354410000000  0.5186960000000  0.4955260000000 1.0
C      1  0.4173300000000  0.4994850000000  0.5090680000000 1.0
C      1  0.4831950000000  0.4135570000000  0.4692270000000 1.0
C      1  0.5321350000000  0.4682840000000  0.4846070000000 1.0
C      1  0.5139250000000  0.5472990000000  0.5370270000000 1.0
C      1  0.5641130000000  0.5327130000000  0.5385160000000 1.0
C      1  0.5604460000000  0.4934420000000  0.5640010000000 1.0
C      1  0.4869550000000  0.4949570000000  0.5834570000000 1.0
C      1  0.5017670000000  0.5118630000000  0.4253940000000 1.0
C      1  0.5406950000000  0.4784240000000  0.4272460000000 1.0
C      1  0.5101370000000  0.5278250000000  0.5127990000000 1.0
C      1  0.5367260000000  0.5103260000000  0.5708930000000 1.0
C      1  0.5771570000000  0.4468730000000  0.4925350000000 1.0
C      1  0.4797290000000  0.4402730000000  0.4312340000000 1.0
C      1  0.5347260000000  0.4495150000000  0.4325880000000 1.0
C      1  0.5206410000000  0.5736040000000  0.5216270000000 1.0
C      1  0.5064680000000  0.4464330000000  0.4452260000000 1.0
C      1  0.4819360000000  0.5398210000000  0.4595330000000 1.0
C      1  0.5056720000000  0.5377010000000  0.4405360000000 1.0
C      1  0.4744240000000  0.4286180000000  0.5202090000000 1.0
C      1  0.5407650000000  0.4816620000000  0.5107640000000 1.0
C      1  0.4883260000000  0.5237660000000  0.4938710000000 1.0
C      1  0.4908750000000  0.5804060000000  0.4527720000000 1.0
C      1  0.4796180000000  0.5205690000000  0.5915110000000 1.0
C      1  0.4187630000000  0.5418840000000  0.4696670000000 1.0
C      1  0.5019610000000  0.4255050000000  0.5341700000000 1.0
C      1  0.5630770000000  0.4893660000000  0.4411030000000 1.0
C      1  0.5564250000000  0.5692840000000  0.4871040000000 1.0
C      1  0.5238150000000  0.4321220000000  0.5158680000000 1.0
C      1  0.5567810000000  0.4532500000000  0.4742720000000 1.0
C      1  0.4634850000000  0.4815300000000  0.4334000000000 1.0
C      1  0.4379630000000  0.4631110000000  0.5322110000000 1.0
C      1  0.4519080000000  0.5786120000000  0.4815060000000 1.0
C      1  0.5143320000000  0.4875290000000  0.4389980000000 1.0
C      1  0.4551930000000  0.4387450000000  0.5416380000000 1.0
C      1  0.4376510000000  0.5437670000000  0.5134570000000 1.0
C      1  0.4441430000000  0.5371860000000  0.5628090000000 1.0
C      1  0.5549500000000  0.4400150000000  0.4497390000000 1.0
END
