TITL C-950528-5794-271 6.33666403291379e-07 125000 -685.025489206931 0 0 111 (C1) n - 1
REM
REM in /home/bkarasulu/work/CARBON/AIRSS/Generating-Clusters/EDIP-Nigel-Params/with-SteepDescent/Only-C1/SD-CG/HFTN-CG
REM
REM
REM
REM
REM
REM ./C.cell (11c1c37f851c82e70ff6c80c92926a4b)
REM
REM compiler GCC version 9.2.1 20190827 (Red Hat 9.2.1-1)
REM options -cpp -mtune=generic -march=x86-64 -g -O0 -fpre-include=/usr/include/finclude/math-vector-fortran.h
REM seed 177285234 801619542 -1559062851 -2135266993 78095510 -15803599 212955001 -234593643 216631610 -994739921 2046156928 -976018351 -2001467970 -1583605826 -1177120945 -1478103861 -1691845309 1356044068 -301021388 -812242359 278960915 -1070824766 -874081148 736146504 -1460203360 -1789015912 -1177759779 1381205441 -1513789340 -173655841 -1793346171 2109474656 605252615
REM
CELL 1.54180   50.00000   50.00000   50.00000   90.00000   90.00000   90.00000
LATT -1
SFAC C  
C      1  0.4680570000000  0.4975650000000  0.4643070000000 1.0
C      1  0.5377850000000  0.5252400000000  0.4090430000000 1.0
C      1  0.4933360000000  0.4809480000000  0.5122360000000 1.0
C      1  0.4108080000000  0.5324420000000  0.5022100000000 1.0
C      1  0.5646900000000  0.5117730000000  0.5379950000000 1.0
C      1  0.4778910000000  0.5158770000000  0.4871600000000 1.0
C      1  0.4336780000000  0.4381820000000  0.5324580000000 1.0
C      1  0.5618500000000  0.4554520000000  0.5626250000000 1.0
C      1  0.5025440000000  0.5019280000000  0.4934750000000 1.0
C      1  0.4190220000000  0.5047940000000  0.4624540000000 1.0
C      1  0.4926520000000  0.5506970000000  0.5842070000000 1.0
C      1  0.5329110000000  0.5213010000000  0.5090350000000 1.0
C      1  0.5717470000000  0.4778750000000  0.4972480000000 1.0
C      1  0.5117770000000  0.4535970000000  0.4629110000000 1.0
C      1  0.4306250000000  0.5500290000000  0.4940960000000 1.0
C      1  0.4355610000000  0.4630980000000  0.5449610000000 1.0
C      1  0.5080350000000  0.5417210000000  0.4542950000000 1.0
C      1  0.5679240000000  0.5635580000000  0.4743230000000 1.0
C      1  0.5262500000000  0.4433020000000  0.5072870000000 1.0
C      1  0.4670550000000  0.5604280000000  0.4715140000000 1.0
C      1  0.5279770000000  0.4325890000000  0.4491970000000 1.0
C      1  0.5203960000000  0.5885730000000  0.5253930000000 1.0
C      1  0.4233050000000  0.4810110000000  0.5256080000000 1.0
C      1  0.5031240000000  0.4953610000000  0.3987900000000 1.0
C      1  0.5407170000000  0.4716380000000  0.4997970000000 1.0
C      1  0.5344420000000  0.4919080000000  0.5733020000000 1.0
C      1  0.4936310000000  0.6004870000000  0.5187620000000 1.0
C      1  0.4206900000000  0.4687550000000  0.4995430000000 1.0
C      1  0.4185840000000  0.5039280000000  0.5685650000000 1.0
C      1  0.5498850000000  0.5248060000000  0.4835390000000 1.0
C      1  0.4080960000000  0.5013190000000  0.5415400000000 1.0
C      1  0.5400540000000  0.5358680000000  0.5757060000000 1.0
C      1  0.4733440000000  0.5799120000000  0.5522750000000 1.0
C      1  0.4608910000000  0.5147880000000  0.5118030000000 1.0
C      1  0.4844090000000  0.6006070000000  0.4923890000000 1.0
C      1  0.5310590000000  0.4087620000000  0.4907360000000 1.0
C      1  0.4905340000000  0.5432240000000  0.4807720000000 1.0
C      1  0.4636420000000  0.4701180000000  0.4770590000000 1.0
C      1  0.5692640000000  0.5406830000000  0.5257830000000 1.0
C      1  0.5476670000000  0.5702600000000  0.4561420000000 1.0
C      1  0.5611420000000  0.4936370000000  0.4342140000000 1.0
C      1  0.4569250000000  0.4882420000000  0.4177230000000 1.0
C      1  0.5239320000000  0.4318960000000  0.5355430000000 1.0
C      1  0.5564950000000  0.5573640000000  0.5016580000000 1.0
C      1  0.4849020000000  0.5087200000000  0.5778150000000 1.0
C      1  0.4853830000000  0.5337630000000  0.4339120000000 1.0
C      1  0.4940570000000  0.5092120000000  0.5484790000000 1.0
C      1  0.5718850000000  0.4390510000000  0.5162850000000 1.0
C      1  0.5728230000000  0.5052900000000  0.4822790000000 1.0
C      1  0.5475020000000  0.4250040000000  0.4737220000000 1.0
C      1  0.5318760000000  0.4741250000000  0.4693140000000 1.0
C      1  0.4779490000000  0.4405420000000  0.4296100000000 1.0
C      1  0.5223080000000  0.5135950000000  0.3904860000000 1.0
C      1  0.5212700000000  0.5761390000000  0.5529050000000 1.0
C      1  0.5346830000000  0.4932540000000  0.5221030000000 1.0
C      1  0.5105030000000  0.4766090000000  0.4208180000000 1.0
C      1  0.4959740000000  0.5382950000000  0.5372370000000 1.0
C      1  0.4805050000000  0.5080980000000  0.4148480000000 1.0
C      1  0.5871180000000  0.5444860000000  0.4676150000000 1.0
C      1  0.5734770000000  0.4582230000000  0.5372590000000 1.0
C      1  0.4868370000000  0.4501910000000  0.4785680000000 1.0
C      1  0.4584580000000  0.4631440000000  0.4335770000000 1.0
C      1  0.4522730000000  0.4251480000000  0.5165490000000 1.0
C      1  0.5106940000000  0.4537320000000  0.5528140000000 1.0
C      1  0.4310780000000  0.5412020000000  0.5431900000000 1.0
C      1  0.4950630000000  0.5616140000000  0.5567480000000 1.0
C      1  0.5023150000000  0.4064130000000  0.4956220000000 1.0
C      1  0.4328360000000  0.5025910000000  0.4258980000000 1.0
C      1  0.5954600000000  0.5192460000000  0.4734120000000 1.0
C      1  0.5527630000000  0.4706640000000  0.4472230000000 1.0
C      1  0.4760240000000  0.4185780000000  0.4473190000000 1.0
C      1  0.5435260000000  0.4649910000000  0.5818870000000 1.0
C      1  0.5184450000000  0.4877680000000  0.5480110000000 1.0
C      1  0.5209800000000  0.5675670000000  0.4480850000000 1.0
C      1  0.4960800000000  0.4525330000000  0.5057720000000 1.0
C      1  0.4742340000000  0.4808470000000  0.5816290000000 1.0
C      1  0.4799170000000  0.4338460000000  0.5245260000000 1.0
C      1  0.4149820000000  0.4825550000000  0.4430690000000 1.0
C      1  0.5777290000000  0.4850900000000  0.5263810000000 1.0
C      1  0.5691690000000  0.5609080000000  0.5452140000000 1.0
C      1  0.4769890000000  0.4219430000000  0.4760950000000 1.0
C      1  0.5023380000000  0.5874160000000  0.4521080000000 1.0
C      1  0.4640920000000  0.4717040000000  0.5532570000000 1.0
C      1  0.4934580000000  0.4921190000000  0.4453360000000 1.0
C      1  0.4814260000000  0.4483410000000  0.5497580000000 1.0
C      1  0.4943320000000  0.4647640000000  0.5935500000000 1.0
C      1  0.5062060000000  0.4467630000000  0.4200910000000 1.0
C      1  0.4793950000000  0.5877880000000  0.4680970000000 1.0
C      1  0.5274670000000  0.5671020000000  0.5060230000000 1.0
C      1  0.4321180000000  0.4585340000000  0.4483090000000 1.0
C      1  0.5006680000000  0.4120560000000  0.5251640000000 1.0
C      1  0.4600680000000  0.5437710000000  0.4463960000000 1.0
C      1  0.5099670000000  0.5425510000000  0.5102240000000 1.0
C      1  0.5692960000000  0.4400420000000  0.4882290000000 1.0
C      1  0.5167310000000  0.4511700000000  0.5821410000000 1.0
C      1  0.5154170000000  0.4977730000000  0.4660440000000 1.0
C      1  0.4466890000000  0.5408180000000  0.5168250000000 1.0
C      1  0.5442010000000  0.5582730000000  0.5577790000000 1.0
C      1  0.4397940000000  0.5226600000000  0.5638470000000 1.0
C      1  0.4458330000000  0.5160780000000  0.4522550000000 1.0
C      1  0.4378360000000  0.4551580000000  0.4791110000000 1.0
C      1  0.4628720000000  0.5288470000000  0.5810750000000 1.0
C      1  0.4743680000000  0.4940750000000  0.5314310000000 1.0
C      1  0.5557590000000  0.5118110000000  0.5679090000000 1.0
C      1  0.4064100000000  0.5291930000000  0.5305280000000 1.0
C      1  0.4485810000000  0.4267250000000  0.4875940000000 1.0
C      1  0.4752730000000  0.6037670000000  0.5397210000000 1.0
C      1  0.5477980000000  0.5177580000000  0.4337070000000 1.0
C      1  0.5436350000000  0.4489430000000  0.4303790000000 1.0
C      1  0.5141170000000  0.5317240000000  0.5887560000000 1.0
C      1  0.5313860000000  0.5217600000000  0.4584000000000 1.0
END
