TITL C-950529-3362-610 -3.32484502282951e-06 125000 -924.28514138875 0 0 147 (C1) n - 1
REM
REM in /home/bkarasulu/work/CARBON/AIRSS/Generating-Clusters/EDIP-Nigel-Params/with-SteepDescent/Only-C1/SD-CG/HFTN-CG
REM
REM
REM
REM
REM
REM ./C.cell (11c1c37f851c82e70ff6c80c92926a4b)
REM
REM compiler GCC version 9.2.1 20190827 (Red Hat 9.2.1-1)
REM options -cpp -mtune=generic -march=x86-64 -g -O0 -fpre-include=/usr/include/finclude/math-vector-fortran.h
REM seed 1538581178 -1766764826 1115056640 -2057858261 1990487037 1919810934 -687288774 1469126799 840057952 -645620890 20771630 -446258528 1283828011 -993119265 -851372943 -1113353938 -1087971922 -1475728736 -599186676 214226049 -1554105310 -892064066 -697805296 845834020 -716774977 2083329717 -1213495551 -721814865 -1613936864 -1619092347 1436392115 1608559582 -222137080
REM
CELL 1.54180   50.00000   50.00000   50.00000   90.00000   90.00000   90.00000
LATT -1
SFAC C  
C      1  0.4950250000000  0.4981730000000  0.4558410000000 1.0
C      1  0.4334040000000  0.4535850000000  0.4576720000000 1.0
C      1  0.5509380000000  0.5662160000000  0.5774320000000 1.0
C      1  0.4505510000000  0.4420710000000  0.4247090000000 1.0
C      1  0.5650940000000  0.4571930000000  0.5776860000000 1.0
C      1  0.4551990000000  0.5202840000000  0.4095650000000 1.0
C      1  0.4140400000000  0.4946110000000  0.5839880000000 1.0
C      1  0.4573780000000  0.5176060000000  0.5365660000000 1.0
C      1  0.4830600000000  0.4918730000000  0.5984120000000 1.0
C      1  0.5580460000000  0.5720090000000  0.4877270000000 1.0
C      1  0.5236320000000  0.4355850000000  0.4084820000000 1.0
C      1  0.4653120000000  0.4167800000000  0.5210010000000 1.0
C      1  0.5620910000000  0.5396870000000  0.5230040000000 1.0
C      1  0.4561810000000  0.4684090000000  0.4726730000000 1.0
C      1  0.5678270000000  0.4528310000000  0.4377920000000 1.0
C      1  0.4444830000000  0.4171120000000  0.4776690000000 1.0
C      1  0.4100160000000  0.4592990000000  0.4981940000000 1.0
C      1  0.4966390000000  0.4517020000000  0.5758010000000 1.0
C      1  0.5731640000000  0.4415740000000  0.4673570000000 1.0
C      1  0.5940200000000  0.4783070000000  0.5338090000000 1.0
C      1  0.4609180000000  0.5563590000000  0.5056320000000 1.0
C      1  0.4693740000000  0.5852860000000  0.5039730000000 1.0
C      1  0.4534880000000  0.5962880000000  0.5266450000000 1.0
C      1  0.5121480000000  0.4124760000000  0.5056000000000 1.0
C      1  0.5402680000000  0.4597780000000  0.4764410000000 1.0
C      1  0.4428140000000  0.5029320000000  0.5074740000000 1.0
C      1  0.6156870000000  0.5023540000000  0.4653930000000 1.0
C      1  0.5137370000000  0.5618200000000  0.4276980000000 1.0
C      1  0.5922570000000  0.4601620000000  0.4817000000000 1.0
C      1  0.5303880000000  0.4818960000000  0.5897790000000 1.0
C      1  0.5532810000000  0.4691590000000  0.6007520000000 1.0
C      1  0.4863370000000  0.5955250000000  0.4624990000000 1.0
C      1  0.4545480000000  0.4709720000000  0.4150450000000 1.0
C      1  0.5569520000000  0.5216330000000  0.5658460000000 1.0
C      1  0.4988610000000  0.5634920000000  0.5656560000000 1.0
C      1  0.4842980000000  0.4074110000000  0.5015310000000 1.0
C      1  0.4875750000000  0.5701640000000  0.4454270000000 1.0
C      1  0.5323890000000  0.5203370000000  0.4006640000000 1.0
C      1  0.6021960000000  0.5268890000000  0.4606450000000 1.0
C      1  0.5024570000000  0.5455590000000  0.5322720000000 1.0
C      1  0.5212000000000  0.4951180000000  0.3874080000000 1.0
C      1  0.4178810000000  0.5569960000000  0.5079710000000 1.0
C      1  0.4647510000000  0.4454480000000  0.5645930000000 1.0
C      1  0.5114910000000  0.5892640000000  0.5651560000000 1.0
C      1  0.4844180000000  0.5176400000000  0.4069900000000 1.0
C      1  0.5201330000000  0.5370420000000  0.5971410000000 1.0
C      1  0.5439400000000  0.4887890000000  0.4746210000000 1.0
C      1  0.5028050000000  0.4122940000000  0.5549890000000 1.0
C      1  0.5278930000000  0.4807470000000  0.4201160000000 1.0
C      1  0.5208820000000  0.5205860000000  0.4956710000000 1.0
C      1  0.4733620000000  0.5275250000000  0.5859660000000 1.0
C      1  0.5084250000000  0.4525310000000  0.5219030000000 1.0
C      1  0.4206000000000  0.4412580000000  0.5173160000000 1.0
C      1  0.4262540000000  0.4290120000000  0.4391520000000 1.0
C      1  0.5079560000000  0.4641600000000  0.5507050000000 1.0
C      1  0.4887810000000  0.4189420000000  0.4528870000000 1.0
C      1  0.5486880000000  0.4243590000000  0.5386200000000 1.0
C      1  0.4520460000000  0.5337870000000  0.5627490000000 1.0
C      1  0.4844810000000  0.4708770000000  0.4104090000000 1.0
C      1  0.4396570000000  0.4208460000000  0.5072140000000 1.0
C      1  0.4759480000000  0.4960790000000  0.5465230000000 1.0
C      1  0.4970710000000  0.5247630000000  0.4433240000000 1.0
C      1  0.4962250000000  0.4767630000000  0.5056150000000 1.0
C      1  0.5369400000000  0.4586450000000  0.5087900000000 1.0
C      1  0.5988730000000  0.5223100000000  0.5520920000000 1.0
C      1  0.3960560000000  0.4855530000000  0.4644980000000 1.0
C      1  0.4270380000000  0.4078970000000  0.4574010000000 1.0
C      1  0.5304040000000  0.4127320000000  0.4831630000000 1.0
C      1  0.4213870000000  0.4590890000000  0.5410450000000 1.0
C      1  0.4455950000000  0.5380620000000  0.4298670000000 1.0
C      1  0.5160180000000  0.5185240000000  0.5254020000000 1.0
C      1  0.6007690000000  0.5071270000000  0.5265370000000 1.0
C      1  0.4953900000000  0.4413270000000  0.4068130000000 1.0
C      1  0.4957610000000  0.6090550000000  0.5530390000000 1.0
C      1  0.4733810000000  0.4197920000000  0.5493270000000 1.0
C      1  0.4464760000000  0.4721210000000  0.5004530000000 1.0
C      1  0.4773850000000  0.4275870000000  0.4265790000000 1.0
C      1  0.4865970000000  0.5040750000000  0.5732330000000 1.0
C      1  0.5223440000000  0.4120830000000  0.5324640000000 1.0
C      1  0.4912100000000  0.5463120000000  0.4643540000000 1.0
C      1  0.4095990000000  0.5333310000000  0.5498760000000 1.0
C      1  0.5070480000000  0.6011790000000  0.4806270000000 1.0
C      1  0.5471590000000  0.5661440000000  0.5150180000000 1.0
C      1  0.4993730000000  0.5887000000000  0.5044690000000 1.0
C      1  0.4082020000000  0.4861130000000  0.5361940000000 1.0
C      1  0.5586770000000  0.4219210000000  0.4886620000000 1.0
C      1  0.5955010000000  0.4832290000000  0.4645780000000 1.0
C      1  0.4114390000000  0.5064210000000  0.5094280000000 1.0
C      1  0.4322870000000  0.4506280000000  0.5677680000000 1.0
C      1  0.4219950000000  0.5235770000000  0.4383450000000 1.0
C      1  0.5316440000000  0.4780990000000  0.5595770000000 1.0
C      1  0.4008690000000  0.5082300000000  0.4800980000000 1.0
C      1  0.4725380000000  0.4088860000000  0.4749530000000 1.0
C      1  0.5149080000000  0.4957770000000  0.4809480000000 1.0
C      1  0.4427960000000  0.5728850000000  0.4635340000000 1.0
C      1  0.5506900000000  0.5869540000000  0.5347940000000 1.0
C      1  0.5389150000000  0.4530140000000  0.4265280000000 1.0
C      1  0.4704380000000  0.4597080000000  0.5158980000000 1.0
C      1  0.4697690000000  0.6073770000000  0.5461380000000 1.0
C      1  0.4342470000000  0.5710640000000  0.5302410000000 1.0
C      1  0.5823650000000  0.5294080000000  0.4377390000000 1.0
C      1  0.4571890000000  0.5631570000000  0.4392310000000 1.0
C      1  0.5592340000000  0.4385580000000  0.5142370000000 1.0
C      1  0.4637030000000  0.5427280000000  0.4782020000000 1.0
C      1  0.4955350000000  0.5474820000000  0.5889800000000 1.0
C      1  0.5438780000000  0.5059560000000  0.4238050000000 1.0
C      1  0.5390570000000  0.5033280000000  0.5423350000000 1.0
C      1  0.4305110000000  0.5545770000000  0.5572150000000 1.0
C      1  0.4575500000000  0.5140150000000  0.4835170000000 1.0
C      1  0.4059620000000  0.5336470000000  0.5207590000000 1.0
C      1  0.5949240000000  0.5396790000000  0.4859520000000 1.0
C      1  0.5408330000000  0.5621400000000  0.4415840000000 1.0
C      1  0.5033330000000  0.4713940000000  0.5982700000000 1.0
C      1  0.5261920000000  0.4479190000000  0.4526020000000 1.0
C      1  0.5181980000000  0.4203420000000  0.4567280000000 1.0
C      1  0.4247170000000  0.4699000000000  0.5866800000000 1.0
C      1  0.5161810000000  0.4287670000000  0.5761440000000 1.0
C      1  0.5838310000000  0.4606410000000  0.5105290000000 1.0
C      1  0.5399030000000  0.5576180000000  0.4702400000000 1.0
C      1  0.5427870000000  0.4403460000000  0.5632610000000 1.0
C      1  0.4119240000000  0.5304730000000  0.4646410000000 1.0
C      1  0.5848470000000  0.5658000000000  0.4839750000000 1.0
C      1  0.4666500000000  0.4943520000000  0.4647650000000 1.0
C      1  0.5800980000000  0.4776510000000  0.5607050000000 1.0
C      1  0.5149160000000  0.5637370000000  0.5104150000000 1.0
C      1  0.4130400000000  0.5047840000000  0.5578880000000 1.0
C      1  0.4957400000000  0.4982700000000  0.5253840000000 1.0
C      1  0.4395870000000  0.4963230000000  0.4168350000000 1.0
C      1  0.5091110000000  0.5377340000000  0.4084230000000 1.0
C      1  0.5654580000000  0.5518000000000  0.4315240000000 1.0
C      1  0.4072610000000  0.4609710000000  0.4703820000000 1.0
C      1  0.5012420000000  0.4793040000000  0.4341970000000 1.0
C      1  0.4644820000000  0.4683170000000  0.5435540000000 1.0
C      1  0.5408840000000  0.5868830000000  0.5612140000000 1.0
C      1  0.4743870000000  0.5397740000000  0.5250170000000 1.0
C      1  0.5830730000000  0.5043310000000  0.5728460000000 1.0
C      1  0.5809800000000  0.5210560000000  0.5064870000000 1.0
C      1  0.5724700000000  0.5040780000000  0.4265870000000 1.0
C      1  0.5155870000000  0.5475990000000  0.4842000000000 1.0
C      1  0.5668450000000  0.4928300000000  0.4962670000000 1.0
C      1  0.4222520000000  0.5547060000000  0.4785750000000 1.0
C      1  0.5738080000000  0.5406280000000  0.5493510000000 1.0
C      1  0.4602310000000  0.5938070000000  0.4768650000000 1.0
C      1  0.4922550000000  0.4930540000000  0.3913920000000 1.0
C      1  0.5456720000000  0.5403640000000  0.5866000000000 1.0
C      1  0.5483260000000  0.4850480000000  0.5189150000000 1.0
C      1  0.5823130000000  0.4789690000000  0.4391610000000 1.0
END
