TITL C-950523-3027-336 -4.67322079667992e-07 125000 -178.166205161126 0 0 31 (C1) n - 1
REM
REM in /home/bkarasulu/work/CARBON/AIRSS/Generating-Clusters/EDIP-Nigel-Params/with-SteepDescent/Only-C1/SD-CG/HFTN-CG
REM
REM
REM
REM
REM
REM ./C.cell (11c1c37f851c82e70ff6c80c92926a4b)
REM
REM compiler GCC version 9.2.1 20190827 (Red Hat 9.2.1-1)
REM options -cpp -mtune=generic -march=x86-64 -g -O0 -fpre-include=/usr/include/finclude/math-vector-fortran.h
REM seed -1475637898 -1391670083 1774231335 -652609107 -1727000545 -1686249741 638896828 647290490 1785932938 -375001445 -371776914 -1357148420 -740075489 550381243 856857352 1631732404 1304465394 -360392504 1553972169 -1396787386 -1029277103 -1817547303 580377845 -995617837 -42924716 -1462073029 371759790 1389806315 -375267680 -970644405 -1410642768 -1132380162 -1889680590
REM
CELL 1.54180   50.00000   50.00000   50.00000   90.00000   90.00000   90.00000
LATT -1
SFAC C  
C      1  0.4837200000000  0.4853750000000  0.4509410000000 1.0
C      1  0.5703960000000  0.4882760000000  0.5069800000000 1.0
C      1  0.4588630000000  0.5319280000000  0.5316030000000 1.0
C      1  0.5657410000000  0.5139570000000  0.5007370000000 1.0
C      1  0.4782380000000  0.5137210000000  0.4434900000000 1.0
C      1  0.5264380000000  0.5171350000000  0.5504130000000 1.0
C      1  0.5180620000000  0.5145900000000  0.5221380000000 1.0
C      1  0.4567290000000  0.4842250000000  0.5137740000000 1.0
C      1  0.4773600000000  0.4802800000000  0.4806540000000 1.0
C      1  0.4885850000000  0.4836380000000  0.5567300000000 1.0
C      1  0.5255730000000  0.4645330000000  0.5082110000000 1.0
C      1  0.5151150000000  0.4585890000000  0.4818640000000 1.0
C      1  0.5530450000000  0.4680980000000  0.5096240000000 1.0
C      1  0.4476730000000  0.5234480000000  0.4841640000000 1.0
C      1  0.5130480000000  0.4842200000000  0.4547180000000 1.0
C      1  0.4539740000000  0.5138580000000  0.5100700000000 1.0
C      1  0.4729610000000  0.5233640000000  0.4712010000000 1.0
C      1  0.4498670000000  0.4666640000000  0.4886760000000 1.0
C      1  0.5112210000000  0.4979860000000  0.5638790000000 1.0
C      1  0.4942100000000  0.5321910000000  0.5141640000000 1.0
C      1  0.5311790000000  0.5407960000000  0.5612040000000 1.0
C      1  0.4652410000000  0.4426450000000  0.4856000000000 1.0
C      1  0.4804610000000  0.4748400000000  0.5303370000000 1.0
C      1  0.5026720000000  0.5243530000000  0.4327800000000 1.0
C      1  0.5380020000000  0.5177410000000  0.4996120000000 1.0
C      1  0.4955960000000  0.5358410000000  0.4848400000000 1.0
C      1  0.4925220000000  0.4418780000000  0.4807810000000 1.0
C      1  0.5087970000000  0.4847290000000  0.5231070000000 1.0
C      1  0.5232720000000  0.5282240000000  0.4761090000000 1.0
C      1  0.5221880000000  0.5124110000000  0.4501290000000 1.0
C      1  0.4792520000000  0.5504700000000  0.5314710000000 1.0
END
