TITL C-951344-124-594 -4.39989839450696e-07 125000 -759.945511917423 0 0 123 (C1) n - 1
REM
REM in /home/bkarasulu/work/CARBON/AIRSS/Generating-Clusters/EDIP-Nigel-Params/with-SteepDescent/Only-C1/SD-CG/HFTN-CG
REM
REM
REM
REM
REM
REM ./C.cell (11c1c37f851c82e70ff6c80c92926a4b)
REM
REM compiler GCC version 9.2.1 20190827 (Red Hat 9.2.1-1)
REM options -cpp -mtune=generic -march=x86-64 -g -O0 -fpre-include=/usr/include/finclude/math-vector-fortran.h
REM seed -889097475 14021806 -1143398121 -1302721591 -421946359 -223567811 -1877760956 1704585691 1801879985 1946998429 1667121017 -842115830 -341733934 -773605783 1269808340 320754193 -268904877 708863922 1041931720 1423403854 -2030571427 -635341730 1699917139 197622369 -967466201 -2066484711 -980956008 -2049647504 -362990014 -799282970 1240680248 1365838448 2070069091
REM
CELL 1.54180   50.00000   50.00000   50.00000   90.00000   90.00000   90.00000
LATT -1
SFAC C  
C      1  0.5384680000000  0.4947750000000  0.4183780000000 1.0
C      1  0.4891320000000  0.4935050000000  0.4211790000000 1.0
C      1  0.5349460000000  0.4550640000000  0.5902430000000 1.0
C      1  0.5403830000000  0.4824340000000  0.5917870000000 1.0
C      1  0.4653430000000  0.5080650000000  0.4334950000000 1.0
C      1  0.5633120000000  0.5547330000000  0.4996610000000 1.0
C      1  0.5911180000000  0.4783870000000  0.5197820000000 1.0
C      1  0.5397530000000  0.4423790000000  0.5650430000000 1.0
C      1  0.6035270000000  0.5113390000000  0.4825670000000 1.0
C      1  0.4804630000000  0.4188860000000  0.5165410000000 1.0
C      1  0.5445410000000  0.5452610000000  0.5213350000000 1.0
C      1  0.5168070000000  0.5222990000000  0.4498330000000 1.0
C      1  0.4459080000000  0.5539970000000  0.5515540000000 1.0
C      1  0.4984760000000  0.5023340000000  0.3948390000000 1.0
C      1  0.5005330000000  0.4972560000000  0.5809830000000 1.0
C      1  0.4632020000000  0.5293850000000  0.5027150000000 1.0
C      1  0.5144960000000  0.4943020000000  0.4380680000000 1.0
C      1  0.5542200000000  0.5162630000000  0.5344150000000 1.0
C      1  0.4621340000000  0.4622460000000  0.5093210000000 1.0
C      1  0.4894890000000  0.5463930000000  0.5901600000000 1.0
C      1  0.5773700000000  0.4739840000000  0.4938000000000 1.0
C      1  0.4651930000000  0.5591490000000  0.5270700000000 1.0
C      1  0.4734500000000  0.4997270000000  0.5401930000000 1.0
C      1  0.4389580000000  0.4417250000000  0.5061180000000 1.0
C      1  0.5011860000000  0.4285150000000  0.4417820000000 1.0
C      1  0.5148520000000  0.5392220000000  0.5135130000000 1.0
C      1  0.5215820000000  0.4947160000000  0.5346620000000 1.0
C      1  0.4398760000000  0.5100750000000  0.4907940000000 1.0
C      1  0.4678160000000  0.4709120000000  0.4819800000000 1.0
C      1  0.4685180000000  0.5838890000000  0.4610520000000 1.0
C      1  0.5838330000000  0.5070150000000  0.5265610000000 1.0
C      1  0.5424460000000  0.5205740000000  0.4680570000000 1.0
C      1  0.5460160000000  0.4251580000000  0.5247240000000 1.0
C      1  0.4561380000000  0.5808660000000  0.5089730000000 1.0
C      1  0.4769480000000  0.5936280000000  0.4888860000000 1.0
C      1  0.5810010000000  0.4558030000000  0.5366450000000 1.0
C      1  0.4270510000000  0.5003240000000  0.5175500000000 1.0
C      1  0.4913480000000  0.5742340000000  0.4450670000000 1.0
C      1  0.4289430000000  0.5302130000000  0.5496990000000 1.0
C      1  0.4524880000000  0.4996560000000  0.5850870000000 1.0
C      1  0.4015050000000  0.5339930000000  0.4794360000000 1.0
C      1  0.5217820000000  0.4444280000000  0.4270470000000 1.0
C      1  0.4461130000000  0.4232670000000  0.5295450000000 1.0
C      1  0.5348580000000  0.5103840000000  0.4955810000000 1.0
C      1  0.5481850000000  0.5255150000000  0.4134400000000 1.0
C      1  0.5568560000000  0.5474400000000  0.4718060000000 1.0
C      1  0.5728380000000  0.4344130000000  0.5170060000000 1.0
C      1  0.4626670000000  0.4710490000000  0.5889790000000 1.0
C      1  0.4374420000000  0.5643190000000  0.4928250000000 1.0
C      1  0.4388310000000  0.5443390000000  0.4480980000000 1.0
C      1  0.4926000000000  0.4562230000000  0.5602380000000 1.0
C      1  0.5476640000000  0.4502670000000  0.4409690000000 1.0
C      1  0.5074620000000  0.4125710000000  0.5326960000000 1.0
C      1  0.5333200000000  0.4166590000000  0.4780910000000 1.0
C      1  0.4465770000000  0.4597370000000  0.4649890000000 1.0
C      1  0.4401670000000  0.4320310000000  0.4764930000000 1.0
C      1  0.4192100000000  0.4959710000000  0.4506770000000 1.0
C      1  0.5531920000000  0.5673370000000  0.4321020000000 1.0
C      1  0.5362470000000  0.5718010000000  0.5343560000000 1.0
C      1  0.4910690000000  0.4728390000000  0.5954680000000 1.0
C      1  0.5493840000000  0.4411720000000  0.4709510000000 1.0
C      1  0.5025880000000  0.5314970000000  0.4024650000000 1.0
C      1  0.4721440000000  0.4296360000000  0.4403690000000 1.0
C      1  0.4763740000000  0.5380320000000  0.4778010000000 1.0
C      1  0.5177110000000  0.4567320000000  0.4018230000000 1.0
C      1  0.4623240000000  0.4167130000000  0.4655200000000 1.0
C      1  0.5748480000000  0.4446130000000  0.4882950000000 1.0
C      1  0.4239840000000  0.5223710000000  0.4648460000000 1.0
C      1  0.5257910000000  0.5717080000000  0.5620260000000 1.0
C      1  0.4821090000000  0.5531810000000  0.4248420000000 1.0
C      1  0.4875200000000  0.4483140000000  0.5190630000000 1.0
C      1  0.4246660000000  0.4776620000000  0.4749250000000 1.0
C      1  0.4901660000000  0.4887700000000  0.4759730000000 1.0
C      1  0.4299090000000  0.4666000000000  0.5469660000000 1.0
C      1  0.4415480000000  0.4890210000000  0.4318500000000 1.0
C      1  0.4804200000000  0.5131750000000  0.4603840000000 1.0
C      1  0.5890820000000  0.4899490000000  0.4718570000000 1.0
C      1  0.4817150000000  0.5105490000000  0.5147580000000 1.0
C      1  0.5042220000000  0.4986910000000  0.5009090000000 1.0
C      1  0.5206090000000  0.5875180000000  0.5163000000000 1.0
C      1  0.4725880000000  0.5259560000000  0.5549430000000 1.0
C      1  0.5188830000000  0.4487980000000  0.5111680000000 1.0
C      1  0.4510440000000  0.4611410000000  0.4356250000000 1.0
C      1  0.5065370000000  0.4200090000000  0.4689650000000 1.0
C      1  0.5233430000000  0.4835770000000  0.3944610000000 1.0
C      1  0.4390620000000  0.4398940000000  0.5536350000000 1.0
C      1  0.5478830000000  0.4820730000000  0.4988460000000 1.0
C      1  0.5541990000000  0.5141990000000  0.5636920000000 1.0
C      1  0.5655050000000  0.5474600000000  0.4176970000000 1.0
C      1  0.4315290000000  0.5090020000000  0.5684320000000 1.0
C      1  0.5074320000000  0.5902210000000  0.4910840000000 1.0
C      1  0.5588680000000  0.4868330000000  0.5707050000000 1.0
C      1  0.5369870000000  0.4718660000000  0.5262520000000 1.0
C      1  0.5429040000000  0.5692600000000  0.4583750000000 1.0
C      1  0.4101660000000  0.5331930000000  0.5281620000000 1.0
C      1  0.4584840000000  0.4455410000000  0.5741850000000 1.0
C      1  0.5043970000000  0.5464680000000  0.4844590000000 1.0
C      1  0.5059420000000  0.5919500000000  0.5612740000000 1.0
C      1  0.5901040000000  0.5507520000000  0.5063700000000 1.0
C      1  0.4138600000000  0.4603190000000  0.4989590000000 1.0
C      1  0.4708570000000  0.5651460000000  0.5785230000000 1.0
C      1  0.5309570000000  0.5201540000000  0.5801490000000 1.0
C      1  0.4775290000000  0.5175680000000  0.5840100000000 1.0
C      1  0.4576360000000  0.5363990000000  0.4265240000000 1.0
C      1  0.4545260000000  0.5586020000000  0.4684130000000 1.0
C      1  0.4979070000000  0.4863280000000  0.5526010000000 1.0
C      1  0.4837750000000  0.4118810000000  0.4857290000000 1.0
C      1  0.5305970000000  0.4619780000000  0.4824510000000 1.0
C      1  0.4495590000000  0.4823860000000  0.5302330000000 1.0
C      1  0.5668960000000  0.4966180000000  0.4547820000000 1.0
C      1  0.5135170000000  0.5446660000000  0.5700830000000 1.0
C      1  0.4993190000000  0.5383920000000  0.5439630000000 1.0
C      1  0.4152630000000  0.5453580000000  0.5018060000000 1.0
C      1  0.4825200000000  0.5774450000000  0.5551630000000 1.0
C      1  0.5334430000000  0.4078780000000  0.5057280000000 1.0
C      1  0.5116190000000  0.4749750000000  0.4619480000000 1.0
C      1  0.5978550000000  0.5240460000000  0.5069470000000 1.0
C      1  0.4064190000000  0.4782500000000  0.5196340000000 1.0
C      1  0.5554030000000  0.4641920000000  0.5498960000000 1.0
C      1  0.5229150000000  0.5365980000000  0.4234640000000 1.0
C      1  0.5582760000000  0.4777530000000  0.4337370000000 1.0
C      1  0.5134790000000  0.4354010000000  0.5528280000000 1.0
C      1  0.5130510000000  0.5703050000000  0.4682190000000 1.0
END
