TITL C-950521-2237-315 2.04427237869008e-06 125000 -1143.97687736294 0 0 183 (C1) n - 1
REM
REM in /home/bkarasulu/work/CARBON/AIRSS/Generating-Clusters/EDIP-Nigel-Params/with-SteepDescent/Only-C1/SD-CG/HFTN-CG
REM
REM
REM
REM
REM
REM ./C.cell (11c1c37f851c82e70ff6c80c92926a4b)
REM
REM compiler GCC version 9.2.1 20190827 (Red Hat 9.2.1-1)
REM options -cpp -mtune=generic -march=x86-64 -g -O0 -fpre-include=/usr/include/finclude/math-vector-fortran.h
REM seed -579928014 -1556221799 830959124 948478463 1460442793 238360381 2065550314 1721657156 547965582 1314069821 199347477 -435057082 -1682855382 185190046 269777383 -140809485 -1535996632 1014289763 697535523 -82824906 -1653407923 591381870 991387818 725127068 -40366301 1556000739 497747777 1352045907 678577640 1187605826 -1004789798 893987369 -681719069
REM
CELL 1.54180   50.00000   50.00000   50.00000   90.00000   90.00000   90.00000
LATT -1
SFAC C  
C      1  0.5954720000000  0.4466370000000  0.4323590000000 1.0
C      1  0.4925880000000  0.4064900000000  0.4250830000000 1.0
C      1  0.4661920000000  0.4927940000000  0.3984020000000 1.0
C      1  0.4550660000000  0.5424440000000  0.4858330000000 1.0
C      1  0.5062180000000  0.5156280000000  0.3841560000000 1.0
C      1  0.5291440000000  0.6051070000000  0.5440960000000 1.0
C      1  0.4227540000000  0.5187170000000  0.4058140000000 1.0
C      1  0.4296280000000  0.5559980000000  0.4449470000000 1.0
C      1  0.6047950000000  0.5312550000000  0.4843850000000 1.0
C      1  0.5295340000000  0.5401710000000  0.6032730000000 1.0
C      1  0.4415710000000  0.5231530000000  0.6067980000000 1.0
C      1  0.5315390000000  0.5486500000000  0.4751220000000 1.0
C      1  0.4404670000000  0.5348690000000  0.5309670000000 1.0
C      1  0.5287230000000  0.4553230000000  0.4601990000000 1.0
C      1  0.5801200000000  0.4370500000000  0.4786170000000 1.0
C      1  0.4148830000000  0.5038190000000  0.4914560000000 1.0
C      1  0.5430290000000  0.5451350000000  0.5329130000000 1.0
C      1  0.4196710000000  0.4539510000000  0.4362620000000 1.0
C      1  0.4068450000000  0.5310490000000  0.5678580000000 1.0
C      1  0.5169460000000  0.5945930000000  0.4970660000000 1.0
C      1  0.4412750000000  0.4990970000000  0.5693900000000 1.0
C      1  0.4181640000000  0.5291260000000  0.4520620000000 1.0
C      1  0.4986170000000  0.5716710000000  0.5344490000000 1.0
C      1  0.4365510000000  0.4386450000000  0.5240250000000 1.0
C      1  0.4340190000000  0.5486410000000  0.5062660000000 1.0
C      1  0.4023930000000  0.5267880000000  0.4773270000000 1.0
C      1  0.5601390000000  0.5464190000000  0.5091200000000 1.0
C      1  0.5230160000000  0.4805650000000  0.5671850000000 1.0
C      1  0.4841410000000  0.4157570000000  0.4713110000000 1.0
C      1  0.6030600000000  0.5377680000000  0.5369230000000 1.0
C      1  0.4990690000000  0.4320080000000  0.5658330000000 1.0
C      1  0.4102080000000  0.4483500000000  0.5356000000000 1.0
C      1  0.5871950000000  0.4650540000000  0.4125790000000 1.0
C      1  0.4390180000000  0.4953990000000  0.4710670000000 1.0
C      1  0.5471710000000  0.5992410000000  0.4655280000000 1.0
C      1  0.5562120000000  0.4635070000000  0.4138070000000 1.0
C      1  0.4433600000000  0.4367780000000  0.4359290000000 1.0
C      1  0.5074450000000  0.5428580000000  0.4964880000000 1.0
C      1  0.5020400000000  0.5344500000000  0.6170180000000 1.0
C      1  0.5946170000000  0.4808650000000  0.4662080000000 1.0
C      1  0.4519940000000  0.4364280000000  0.4644690000000 1.0
C      1  0.3965390000000  0.4904830000000  0.5361380000000 1.0
C      1  0.4747720000000  0.4694710000000  0.3821050000000 1.0
C      1  0.4919160000000  0.5220570000000  0.5574130000000 1.0
C      1  0.5430330000000  0.4291440000000  0.5620770000000 1.0
C      1  0.5016170000000  0.4027960000000  0.4507610000000 1.0
C      1  0.5597420000000  0.5004810000000  0.4442970000000 1.0
C      1  0.5897600000000  0.5024270000000  0.4458840000000 1.0
C      1  0.5176350000000  0.4902160000000  0.3928890000000 1.0
C      1  0.4792270000000  0.6117660000000  0.5139930000000 1.0
C      1  0.5154410000000  0.5498480000000  0.5240090000000 1.0
C      1  0.6103260000000  0.4740200000000  0.4903910000000 1.0
C      1  0.4950020000000  0.4086650000000  0.5191860000000 1.0
C      1  0.5397720000000  0.4635420000000  0.5105500000000 1.0
C      1  0.5210030000000  0.3950660000000  0.5275680000000 1.0
C      1  0.5411170000000  0.4186220000000  0.4286920000000 1.0
C      1  0.4416640000000  0.4106760000000  0.4810160000000 1.0
C      1  0.5469370000000  0.5544810000000  0.4333210000000 1.0
C      1  0.4769820000000  0.5725250000000  0.4543900000000 1.0
C      1  0.4795880000000  0.6145660000000  0.4832390000000 1.0
C      1  0.5764310000000  0.4548350000000  0.5193680000000 1.0
C      1  0.4795970000000  0.4806630000000  0.4792540000000 1.0
C      1  0.4276060000000  0.4149360000000  0.5069760000000 1.0
C      1  0.5057960000000  0.5006150000000  0.5211440000000 1.0
C      1  0.3919460000000  0.5194300000000  0.5442570000000 1.0
C      1  0.4290250000000  0.4810250000000  0.4310070000000 1.0
C      1  0.3994620000000  0.4141680000000  0.5045730000000 1.0
C      1  0.5276780000000  0.4730790000000  0.4829210000000 1.0
C      1  0.5302890000000  0.4290230000000  0.4754670000000 1.0
C      1  0.3907680000000  0.4388650000000  0.5155760000000 1.0
C      1  0.5693460000000  0.5743760000000  0.5045200000000 1.0
C      1  0.5535280000000  0.5926250000000  0.5339190000000 1.0
C      1  0.3939350000000  0.4866830000000  0.5058380000000 1.0
C      1  0.5476670000000  0.5156430000000  0.5989100000000 1.0
C      1  0.4577890000000  0.5921650000000  0.5218580000000 1.0
C      1  0.5226880000000  0.5619930000000  0.4486150000000 1.0
C      1  0.6098910000000  0.4913100000000  0.5154470000000 1.0
C      1  0.4178690000000  0.4602090000000  0.5821450000000 1.0
C      1  0.5809210000000  0.4567760000000  0.4557960000000 1.0
C      1  0.4998240000000  0.4289120000000  0.4937120000000 1.0
C      1  0.5297210000000  0.4097480000000  0.4529600000000 1.0
C      1  0.5209870000000  0.5014870000000  0.4751030000000 1.0
C      1  0.5977470000000  0.5778540000000  0.5080910000000 1.0
C      1  0.4572740000000  0.5140360000000  0.4416990000000 1.0
C      1  0.5923360000000  0.5287790000000  0.5644040000000 1.0
C      1  0.5656960000000  0.4700130000000  0.5768790000000 1.0
C      1  0.5678200000000  0.4426580000000  0.5669960000000 1.0
C      1  0.4370110000000  0.4621040000000  0.4771260000000 1.0
C      1  0.6082290000000  0.5207720000000  0.5119380000000 1.0
C      1  0.4081760000000  0.4547560000000  0.4726910000000 1.0
C      1  0.5360500000000  0.3847650000000  0.5055510000000 1.0
C      1  0.5180820000000  0.4518860000000  0.5274310000000 1.0
C      1  0.5699320000000  0.5526730000000  0.4531160000000 1.0
C      1  0.5815480000000  0.4394830000000  0.5428470000000 1.0
C      1  0.4857010000000  0.4400530000000  0.5899550000000 1.0
C      1  0.4619190000000  0.5026660000000  0.6180740000000 1.0
C      1  0.5451330000000  0.4881250000000  0.4005360000000 1.0
C      1  0.4541500000000  0.6148530000000  0.4707990000000 1.0
C      1  0.5460280000000  0.5194620000000  0.4701920000000 1.0
C      1  0.4950870000000  0.4702850000000  0.5227130000000 1.0
C      1  0.4767100000000  0.4777630000000  0.5465040000000 1.0
C      1  0.5541820000000  0.4681560000000  0.4446260000000 1.0
C      1  0.4718710000000  0.5649440000000  0.5230090000000 1.0
C      1  0.4287230000000  0.5075110000000  0.5229250000000 1.0
C      1  0.4429150000000  0.5575870000000  0.4201950000000 1.0
C      1  0.4490730000000  0.5663510000000  0.4650450000000 1.0
C      1  0.5212700000000  0.5918880000000  0.4530020000000 1.0
C      1  0.3892770000000  0.4599210000000  0.4943720000000 1.0
C      1  0.5610670000000  0.5740200000000  0.4743500000000 1.0
C      1  0.5680650000000  0.5225830000000  0.4934020000000 1.0
C      1  0.5087490000000  0.4836980000000  0.6118370000000 1.0
C      1  0.5417390000000  0.5671180000000  0.5776150000000 1.0
C      1  0.3912840000000  0.5377560000000  0.5226290000000 1.0
C      1  0.5837970000000  0.4856390000000  0.5593710000000 1.0
C      1  0.4920410000000  0.5508430000000  0.4092000000000 1.0
C      1  0.5838890000000  0.4833460000000  0.5278310000000 1.0
C      1  0.6040080000000  0.5650330000000  0.5310110000000 1.0
C      1  0.4799990000000  0.5557660000000  0.4953210000000 1.0
C      1  0.4757920000000  0.3889070000000  0.5102280000000 1.0
C      1  0.5023070000000  0.4544560000000  0.4449560000000 1.0
C      1  0.5914140000000  0.5310070000000  0.4582520000000 1.0
C      1  0.4618630000000  0.5041240000000  0.4894200000000 1.0
C      1  0.4051710000000  0.5463590000000  0.4993950000000 1.0
C      1  0.4594180000000  0.4862100000000  0.4279820000000 1.0
C      1  0.5404970000000  0.4378090000000  0.4080190000000 1.0
C      1  0.4582440000000  0.4746470000000  0.6090820000000 1.0
C      1  0.4805120000000  0.4582430000000  0.4992460000000 1.0
C      1  0.5036120000000  0.5138530000000  0.4956030000000 1.0
C      1  0.5045290000000  0.4660550000000  0.3840150000000 1.0
C      1  0.4956610000000  0.4932710000000  0.5635920000000 1.0
C      1  0.5364710000000  0.4860910000000  0.5954210000000 1.0
C      1  0.5120280000000  0.4412250000000  0.3989170000000 1.0
C      1  0.4913350000000  0.5074200000000  0.6148220000000 1.0
C      1  0.4550260000000  0.4327630000000  0.5465560000000 1.0
C      1  0.5536500000000  0.5676360000000  0.5490800000000 1.0
C      1  0.4999740000000  0.5733530000000  0.5635520000000 1.0
C      1  0.4279530000000  0.5485740000000  0.5562170000000 1.0
C      1  0.5382920000000  0.6116860000000  0.4892300000000 1.0
C      1  0.5976080000000  0.4910230000000  0.4193030000000 1.0
C      1  0.4012100000000  0.4611060000000  0.5600550000000 1.0
C      1  0.6011950000000  0.5035210000000  0.5718690000000 1.0
C      1  0.5438870000000  0.5242300000000  0.5540590000000 1.0
C      1  0.4935150000000  0.5516220000000  0.4393240000000 1.0
C      1  0.5059630000000  0.5988740000000  0.5236050000000 1.0
C      1  0.4629520000000  0.4564880000000  0.5636290000000 1.0
C      1  0.4620560000000  0.5219970000000  0.5657360000000 1.0
C      1  0.4488770000000  0.4611920000000  0.5062210000000 1.0
C      1  0.4963750000000  0.5907830000000  0.4735700000000 1.0
C      1  0.4386220000000  0.5923840000000  0.4772060000000 1.0
C      1  0.4861230000000  0.4786420000000  0.4499500000000 1.0
C      1  0.5581950000000  0.4029060000000  0.5063850000000 1.0
C      1  0.5556940000000  0.4273490000000  0.4913610000000 1.0
C      1  0.5372070000000  0.5330080000000  0.4172920000000 1.0
C      1  0.5417350000000  0.4955340000000  0.5500860000000 1.0
C      1  0.4928070000000  0.4356700000000  0.4220910000000 1.0
C      1  0.4593280000000  0.4465630000000  0.3890740000000 1.0
C      1  0.4579610000000  0.5411210000000  0.5886430000000 1.0
C      1  0.5217300000000  0.4487050000000  0.5567130000000 1.0
C      1  0.4770510000000  0.5203470000000  0.3906040000000 1.0
C      1  0.5436100000000  0.4085470000000  0.5416270000000 1.0
C      1  0.4860820000000  0.4638420000000  0.6064370000000 1.0
C      1  0.5224190000000  0.5906810000000  0.5704400000000 1.0
C      1  0.4778630000000  0.5269310000000  0.5290100000000 1.0
C      1  0.4851780000000  0.5508140000000  0.5987610000000 1.0
C      1  0.4823740000000  0.4221410000000  0.5434670000000 1.0
C      1  0.5975460000000  0.4481090000000  0.4989550000000 1.0
C      1  0.4440480000000  0.4719170000000  0.5819080000000 1.0
C      1  0.4351260000000  0.5926650000000  0.5049860000000 1.0
C      1  0.4204460000000  0.5111730000000  0.5869450000000 1.0
C      1  0.5034880000000  0.5468470000000  0.5749760000000 1.0
C      1  0.5372080000000  0.4929670000000  0.5216590000000 1.0
C      1  0.4644350000000  0.4435760000000  0.4164430000000 1.0
C      1  0.5612560000000  0.5331600000000  0.5756400000000 1.0
C      1  0.4849650000000  0.5243860000000  0.4493790000000 1.0
C      1  0.4669860000000  0.3953160000000  0.4844750000000 1.0
C      1  0.5540670000000  0.5102670000000  0.4165950000000 1.0
C      1  0.5163260000000  0.5391110000000  0.3978650000000 1.0
C      1  0.4428220000000  0.5620570000000  0.5762460000000 1.0
C      1  0.5041900000000  0.5024580000000  0.4498250000000 1.0
C      1  0.4537460000000  0.4918540000000  0.5177970000000 1.0
C      1  0.5642500000000  0.5004000000000  0.5124020000000 1.0
C      1  0.4480930000000  0.5297730000000  0.4148500000000 1.0
C      1  0.4133340000000  0.5074350000000  0.4301950000000 1.0
END
