TITL C-951338-5626-252 -7.71916489707214e-06 125000 -650.578199417607 0 0 104 (C1) n - 1
REM
REM in /home/bkarasulu/work/CARBON/AIRSS/Generating-Clusters/EDIP-Nigel-Params/with-SteepDescent/Only-C1/SD-CG/HFTN-CG
REM
REM
REM
REM
REM
REM ./C.cell (11c1c37f851c82e70ff6c80c92926a4b)
REM
REM compiler GCC version 9.2.1 20190827 (Red Hat 9.2.1-1)
REM options -cpp -mtune=generic -march=x86-64 -g -O0 -fpre-include=/usr/include/finclude/math-vector-fortran.h
REM seed 2105007941 104406390 66967132 138082468 1181530148 1564375440 -1569726031 -755299888 -1511054583 1080609816 2102396472 -1514513998 15333028 -1491769558 238831475 751768860 -2083171987 -444291591 2129843132 2020795229 -1139570839 1569291215 757697855 264827952 -971411425 -874239515 1067087432 -1431059634 1218194083 -1189746783 -1173935916 1613544743 1216861341
REM
CELL 1.54180   50.00000   50.00000   50.00000   90.00000   90.00000   90.00000
LATT -1
SFAC C  
C      1  0.4736630000000  0.5613400000000  0.4339540000000 1.0
C      1  0.4815230000000  0.4684970000000  0.5064830000000 1.0
C      1  0.5559040000000  0.5322630000000  0.5536960000000 1.0
C      1  0.4995450000000  0.5291900000000  0.4872040000000 1.0
C      1  0.5074950000000  0.4439610000000  0.5694960000000 1.0
C      1  0.5304560000000  0.5173980000000  0.5599140000000 1.0
C      1  0.5088380000000  0.4106790000000  0.4995450000000 1.0
C      1  0.4967280000000  0.4626960000000  0.4209390000000 1.0
C      1  0.5849410000000  0.5158590000000  0.4948310000000 1.0
C      1  0.4394330000000  0.4453990000000  0.4900710000000 1.0
C      1  0.4789810000000  0.5081390000000  0.4862310000000 1.0
C      1  0.5029160000000  0.5719550000000  0.4573180000000 1.0
C      1  0.5544780000000  0.4294590000000  0.4820700000000 1.0
C      1  0.4279560000000  0.5525750000000  0.4690360000000 1.0
C      1  0.4203360000000  0.4673190000000  0.4988900000000 1.0
C      1  0.5949760000000  0.4874360000000  0.4916280000000 1.0
C      1  0.4514020000000  0.5439370000000  0.5581430000000 1.0
C      1  0.5335190000000  0.5705230000000  0.4630020000000 1.0
C      1  0.5515910000000  0.5576750000000  0.5366460000000 1.0
C      1  0.4826940000000  0.5018700000000  0.5776170000000 1.0
C      1  0.5795160000000  0.4517900000000  0.5226790000000 1.0
C      1  0.5751150000000  0.5255700000000  0.4677920000000 1.0
C      1  0.4779830000000  0.4311780000000  0.5320460000000 1.0
C      1  0.4541520000000  0.4885530000000  0.4194400000000 1.0
C      1  0.5013590000000  0.4320880000000  0.4616560000000 1.0
C      1  0.5522380000000  0.5038550000000  0.4343890000000 1.0
C      1  0.5406440000000  0.4562840000000  0.4395750000000 1.0
C      1  0.5450660000000  0.5392370000000  0.4641400000000 1.0
C      1  0.4309660000000  0.4741700000000  0.5274590000000 1.0
C      1  0.5722410000000  0.4781570000000  0.4728190000000 1.0
C      1  0.5245190000000  0.5133470000000  0.5895570000000 1.0
C      1  0.5087380000000  0.5332880000000  0.6017870000000 1.0
C      1  0.5494430000000  0.4287510000000  0.5456680000000 1.0
C      1  0.4786380000000  0.5761550000000  0.5406080000000 1.0
C      1  0.5392760000000  0.4813280000000  0.4239180000000 1.0
C      1  0.5071050000000  0.4738880000000  0.4621860000000 1.0
C      1  0.5420850000000  0.5464530000000  0.4265540000000 1.0
C      1  0.4952590000000  0.4766690000000  0.5352740000000 1.0
C      1  0.5247370000000  0.4760360000000  0.5300310000000 1.0
C      1  0.4248840000000  0.5483630000000  0.4966360000000 1.0
C      1  0.5178710000000  0.5794620000000  0.5139170000000 1.0
C      1  0.4841450000000  0.4529520000000  0.5522440000000 1.0
C      1  0.4281020000000  0.5065790000000  0.4575830000000 1.0
C      1  0.5119580000000  0.4868550000000  0.4147080000000 1.0
C      1  0.4569180000000  0.5199390000000  0.5394060000000 1.0
C      1  0.5607820000000  0.4509160000000  0.4614260000000 1.0
C      1  0.4108360000000  0.5225450000000  0.5018920000000 1.0
C      1  0.4601380000000  0.4440240000000  0.4510160000000 1.0
C      1  0.5331590000000  0.4653580000000  0.5044570000000 1.0
C      1  0.4828720000000  0.5283530000000  0.5919090000000 1.0
C      1  0.4700990000000  0.5698270000000  0.4949910000000 1.0
C      1  0.4983650000000  0.5629530000000  0.4204210000000 1.0
C      1  0.4559160000000  0.4868750000000  0.5774470000000 1.0
C      1  0.4519810000000  0.5637580000000  0.5374090000000 1.0
C      1  0.5306950000000  0.4947110000000  0.4646870000000 1.0
C      1  0.4683230000000  0.4401670000000  0.5043830000000 1.0
C      1  0.4998700000000  0.5137370000000  0.4164030000000 1.0
C      1  0.5047620000000  0.4208420000000  0.5273540000000 1.0
C      1  0.5260370000000  0.5726450000000  0.5416390000000 1.0
C      1  0.4883350000000  0.5844810000000  0.5139560000000 1.0
C      1  0.5623900000000  0.5050310000000  0.5399070000000 1.0
C      1  0.5647950000000  0.4536760000000  0.5488520000000 1.0
C      1  0.5138520000000  0.4439830000000  0.4359650000000 1.0
C      1  0.4850230000000  0.5075340000000  0.5475040000000 1.0
C      1  0.5066890000000  0.5289990000000  0.5432920000000 1.0
C      1  0.5589360000000  0.5101620000000  0.5090850000000 1.0
C      1  0.4564660000000  0.4847290000000  0.5161820000000 1.0
C      1  0.4365160000000  0.4532520000000  0.5468650000000 1.0
C      1  0.4672060000000  0.4610170000000  0.4241770000000 1.0
C      1  0.5149750000000  0.5397630000000  0.4175610000000 1.0
C      1  0.5478610000000  0.4872200000000  0.4893330000000 1.0
C      1  0.5394000000000  0.5809110000000  0.4922690000000 1.0
C      1  0.5950620000000  0.4733940000000  0.5152310000000 1.0
C      1  0.5302960000000  0.4136790000000  0.4784980000000 1.0
C      1  0.4355040000000  0.5336030000000  0.4501590000000 1.0
C      1  0.4869860000000  0.5549380000000  0.4758490000000 1.0
C      1  0.5232780000000  0.4665050000000  0.5782260000000 1.0
C      1  0.4562730000000  0.4726120000000  0.4598770000000 1.0
C      1  0.5460840000000  0.4785120000000  0.5503910000000 1.0
C      1  0.5011670000000  0.5588460000000  0.5541510000000 1.0
C      1  0.4262070000000  0.5005100000000  0.4878470000000 1.0
C      1  0.4535700000000  0.5104950000000  0.5021830000000 1.0
C      1  0.5220290000000  0.5216930000000  0.4695190000000 1.0
C      1  0.4722590000000  0.5501140000000  0.5770980000000 1.0
C      1  0.4576310000000  0.4602210000000  0.5645390000000 1.0
C      1  0.5085750000000  0.4886350000000  0.5889370000000 1.0
C      1  0.4583280000000  0.5372420000000  0.4324160000000 1.0
C      1  0.4346760000000  0.5036860000000  0.5660790000000 1.0
C      1  0.4304130000000  0.4881010000000  0.4360090000000 1.0
C      1  0.5582820000000  0.5625260000000  0.5058110000000 1.0
C      1  0.4706900000000  0.5136440000000  0.4206380000000 1.0
C      1  0.5134890000000  0.5308760000000  0.5138900000000 1.0
C      1  0.4844110000000  0.4214290000000  0.4861820000000 1.0
C      1  0.4507330000000  0.5527940000000  0.5103750000000 1.0
C      1  0.5737330000000  0.5005400000000  0.4523000000000 1.0
C      1  0.4063730000000  0.5169420000000  0.5287490000000 1.0
C      1  0.5215560000000  0.4245270000000  0.5512660000000 1.0
C      1  0.5522460000000  0.4418330000000  0.5092750000000 1.0
C      1  0.5422020000000  0.5350350000000  0.5068180000000 1.0
C      1  0.4369640000000  0.4338960000000  0.4640020000000 1.0
C      1  0.4193020000000  0.4969090000000  0.5427810000000 1.0
C      1  0.5469910000000  0.5729940000000  0.4362500000000 1.0
C      1  0.4809970000000  0.4874720000000  0.4664440000000 1.0
C      1  0.5070770000000  0.4592110000000  0.4890370000000 1.0
END
