TITL C-951341-1326-430 -6.43676757386106e-06 125000 -1020.01211255388 0 0 164 (C1) n - 1
REM
REM in /home/bkarasulu/work/CARBON/AIRSS/Generating-Clusters/EDIP-Nigel-Params/with-SteepDescent/Only-C1/SD-CG/HFTN-CG
REM
REM
REM
REM
REM
REM ./C.cell (11c1c37f851c82e70ff6c80c92926a4b)
REM
REM compiler GCC version 9.2.1 20190827 (Red Hat 9.2.1-1)
REM options -cpp -mtune=generic -march=x86-64 -g -O0 -fpre-include=/usr/include/finclude/math-vector-fortran.h
REM seed -744941964 893608971 -45534875 1940800373 327266416 -635004968 845401540 953487269 147023571 349267082 848299594 274676173 -560871883 -585905709 1574334370 335142056 48640732 -1356857554 819835655 -1343763466 -974383339 -1641767548 1627355377 -1840131563 -2100656245 -1642489256 -897054932 1427381271 -458865074 1593974332 -115981604 -898651689 -1280999318
REM
CELL 1.54180   50.00000   50.00000   50.00000   90.00000   90.00000   90.00000
LATT -1
SFAC C  
C      1  0.4472190000000  0.4542650000000  0.5492740000000 1.0
C      1  0.4798840000000  0.5211510000000  0.5500900000000 1.0
C      1  0.5445460000000  0.4727430000000  0.3899570000000 1.0
C      1  0.4520880000000  0.4269460000000  0.5397940000000 1.0
C      1  0.4662210000000  0.4079160000000  0.5555380000000 1.0
C      1  0.4998530000000  0.5390840000000  0.4642080000000 1.0
C      1  0.5365120000000  0.5503720000000  0.5054030000000 1.0
C      1  0.4928030000000  0.5712110000000  0.5082780000000 1.0
C      1  0.5001050000000  0.3849000000000  0.5256950000000 1.0
C      1  0.5881440000000  0.5000090000000  0.5625600000000 1.0
C      1  0.5886990000000  0.4843050000000  0.5208930000000 1.0
C      1  0.4257270000000  0.5681590000000  0.4657660000000 1.0
C      1  0.5009790000000  0.5030430000000  0.3857690000000 1.0
C      1  0.4755980000000  0.4614000000000  0.4783380000000 1.0
C      1  0.5258570000000  0.3992410000000  0.4878080000000 1.0
C      1  0.5227050000000  0.4398170000000  0.4196270000000 1.0
C      1  0.5324290000000  0.4812980000000  0.4312390000000 1.0
C      1  0.4537060000000  0.5316740000000  0.4577500000000 1.0
C      1  0.4170980000000  0.5514290000000  0.4325190000000 1.0
C      1  0.4722900000000  0.5743630000000  0.5722410000000 1.0
C      1  0.5400960000000  0.5203450000000  0.4534690000000 1.0
C      1  0.5207150000000  0.5253260000000  0.5816300000000 1.0
C      1  0.5182120000000  0.4586870000000  0.3958260000000 1.0
C      1  0.5564740000000  0.5773200000000  0.4700470000000 1.0
C      1  0.3876960000000  0.5198290000000  0.4687390000000 1.0
C      1  0.5823460000000  0.5122890000000  0.4348520000000 1.0
C      1  0.4752330000000  0.3966640000000  0.4814600000000 1.0
C      1  0.5797330000000  0.4612080000000  0.4603210000000 1.0
C      1  0.4703170000000  0.5793140000000  0.4410860000000 1.0
C      1  0.5208610000000  0.4245030000000  0.5773450000000 1.0
C      1  0.4819130000000  0.4982320000000  0.4471570000000 1.0
C      1  0.4282910000000  0.5706630000000  0.5448900000000 1.0
C      1  0.5379910000000  0.5507150000000  0.5823650000000 1.0
C      1  0.6095270000000  0.4776480000000  0.5007110000000 1.0
C      1  0.5351790000000  0.5068540000000  0.5610860000000 1.0
C      1  0.4361230000000  0.4748700000000  0.4566200000000 1.0
C      1  0.4756020000000  0.6127990000000  0.4825260000000 1.0
C      1  0.5032110000000  0.5741780000000  0.4094770000000 1.0
C      1  0.4996470000000  0.3956640000000  0.4985240000000 1.0
C      1  0.5487350000000  0.4916250000000  0.4533740000000 1.0
C      1  0.4396790000000  0.4245140000000  0.4567430000000 1.0
C      1  0.5737590000000  0.5575800000000  0.5494390000000 1.0
C      1  0.5112760000000  0.4512240000000  0.4450710000000 1.0
C      1  0.4631780000000  0.4530890000000  0.4286240000000 1.0
C      1  0.5237330000000  0.5070460000000  0.4162260000000 1.0
C      1  0.4204450000000  0.5679780000000  0.5178680000000 1.0
C      1  0.5303360000000  0.4774190000000  0.5624170000000 1.0
C      1  0.5577150000000  0.4679950000000  0.4169770000000 1.0
C      1  0.4533360000000  0.5844900000000  0.5517680000000 1.0
C      1  0.4732090000000  0.5346960000000  0.4800200000000 1.0
C      1  0.6005440000000  0.5212830000000  0.4846340000000 1.0
C      1  0.4812380000000  0.4448390000000  0.4518640000000 1.0
C      1  0.4215830000000  0.4592880000000  0.5349800000000 1.0
C      1  0.5036170000000  0.6142020000000  0.4861490000000 1.0
C      1  0.5385060000000  0.5667970000000  0.4488350000000 1.0
C      1  0.4775380000000  0.3866380000000  0.5416560000000 1.0
C      1  0.5515240000000  0.5769360000000  0.5441470000000 1.0
C      1  0.4677370000000  0.5892520000000  0.4677280000000 1.0
C      1  0.4434050000000  0.5488000000000  0.4145650000000 1.0
C      1  0.6015590000000  0.5446770000000  0.5050470000000 1.0
C      1  0.4319710000000  0.4017660000000  0.4984480000000 1.0
C      1  0.4178750000000  0.4170430000000  0.4763280000000 1.0
C      1  0.5390510000000  0.4684960000000  0.5252850000000 1.0
C      1  0.4417050000000  0.4249130000000  0.5129960000000 1.0
C      1  0.4688260000000  0.4175210000000  0.4609650000000 1.0
C      1  0.5395540000000  0.4771880000000  0.4777470000000 1.0
C      1  0.4679830000000  0.4742300000000  0.4081990000000 1.0
C      1  0.5980520000000  0.5282560000000  0.4544770000000 1.0
C      1  0.5685250000000  0.5150630000000  0.4896840000000 1.0
C      1  0.5290790000000  0.5718660000000  0.5636170000000 1.0
C      1  0.5102980000000  0.5700270000000  0.4583050000000 1.0
C      1  0.4658330000000  0.5576070000000  0.4984550000000 1.0
C      1  0.5245330000000  0.4760610000000  0.6061930000000 1.0
C      1  0.4346370000000  0.5070700000000  0.5779860000000 1.0
C      1  0.4456540000000  0.4692980000000  0.4857500000000 1.0
C      1  0.5483670000000  0.4012810000000  0.5330290000000 1.0
C      1  0.5827550000000  0.5660520000000  0.4710280000000 1.0
C      1  0.5309980000000  0.4493720000000  0.4686690000000 1.0
C      1  0.4271930000000  0.5392010000000  0.4684280000000 1.0
C      1  0.6193310000000  0.4995710000000  0.4872190000000 1.0
C      1  0.4666530000000  0.6024980000000  0.5323660000000 1.0
C      1  0.5934720000000  0.5101630000000  0.5364380000000 1.0
C      1  0.4026500000000  0.4418620000000  0.4902840000000 1.0
C      1  0.5576570000000  0.4271460000000  0.5472810000000 1.0
C      1  0.4047340000000  0.5238330000000  0.5027810000000 1.0
C      1  0.4171870000000  0.5034070000000  0.5551190000000 1.0
C      1  0.5012210000000  0.4693430000000  0.5690490000000 1.0
C      1  0.5898370000000  0.4660710000000  0.5441380000000 1.0
C      1  0.5013160000000  0.4396890000000  0.5623400000000 1.0
C      1  0.5243770000000  0.3880930000000  0.5392720000000 1.0
C      1  0.4897290000000  0.4487770000000  0.5006820000000 1.0
C      1  0.5105990000000  0.5856090000000  0.4866320000000 1.0
C      1  0.4575900000000  0.5250870000000  0.4000400000000 1.0
C      1  0.4795700000000  0.5394530000000  0.6104460000000 1.0
C      1  0.5477420000000  0.4071920000000  0.5047530000000 1.0
C      1  0.4908150000000  0.4689480000000  0.5216760000000 1.0
C      1  0.4821450000000  0.4214160000000  0.5772150000000 1.0
C      1  0.3937010000000  0.4999100000000  0.4888830000000 1.0
C      1  0.4521420000000  0.4997720000000  0.4429400000000 1.0
C      1  0.4930880000000  0.5899640000000  0.5326110000000 1.0
C      1  0.5158730000000  0.4936190000000  0.4861700000000 1.0
C      1  0.5278290000000  0.5117260000000  0.5318120000000 1.0
C      1  0.4068000000000  0.4808140000000  0.5434140000000 1.0
C      1  0.4229430000000  0.5470670000000  0.5595500000000 1.0
C      1  0.4649410000000  0.5500750000000  0.4350850000000 1.0
C      1  0.4722100000000  0.5078520000000  0.4919910000000 1.0
C      1  0.5630520000000  0.5267270000000  0.4159900000000 1.0
C      1  0.5984860000000  0.5697140000000  0.4934540000000 1.0
C      1  0.4934900000000  0.4658670000000  0.6001770000000 1.0
C      1  0.5406600000000  0.5785320000000  0.4959980000000 1.0
C      1  0.4958270000000  0.4781990000000  0.3987390000000 1.0
C      1  0.5459530000000  0.4651260000000  0.5846210000000 1.0
C      1  0.5950070000000  0.4563260000000  0.4856980000000 1.0
C      1  0.5210690000000  0.5218180000000  0.4756820000000 1.0
C      1  0.4496070000000  0.4985840000000  0.4125950000000 1.0
C      1  0.4612550000000  0.5523290000000  0.5910690000000 1.0
C      1  0.4873560000000  0.4891370000000  0.4749280000000 1.0
C      1  0.4467160000000  0.4963750000000  0.4978110000000 1.0
C      1  0.5023900000000  0.5261770000000  0.5307050000000 1.0
C      1  0.5549350000000  0.5275570000000  0.5137300000000 1.0
C      1  0.5395020000000  0.5469890000000  0.4241390000000 1.0
C      1  0.4432940000000  0.4969350000000  0.5268200000000 1.0
C      1  0.4271360000000  0.4498000000000  0.5061730000000 1.0
C      1  0.4276030000000  0.5405680000000  0.5124020000000 1.0
C      1  0.4695920000000  0.4432030000000  0.5934990000000 1.0
C      1  0.5329840000000  0.4398960000000  0.5195300000000 1.0
C      1  0.5624920000000  0.5344380000000  0.4667160000000 1.0
C      1  0.4076120000000  0.5261430000000  0.4487340000000 1.0
C      1  0.4472670000000  0.5783410000000  0.4851530000000 1.0
C      1  0.5657870000000  0.5428900000000  0.5742750000000 1.0
C      1  0.4745930000000  0.4888430000000  0.6065200000000 1.0
C      1  0.3928070000000  0.4651040000000  0.4746980000000 1.0
C      1  0.5524100000000  0.4396480000000  0.4259400000000 1.0
C      1  0.4400030000000  0.5353790000000  0.5784750000000 1.0
C      1  0.5197730000000  0.5068000000000  0.6078890000000 1.0
C      1  0.5579160000000  0.4404230000000  0.4556100000000 1.0
C      1  0.4903850000000  0.5275400000000  0.3978730000000 1.0
C      1  0.5134230000000  0.5486110000000  0.4064230000000 1.0
C      1  0.4567310000000  0.4874300000000  0.5822830000000 1.0
C      1  0.4773740000000  0.4905170000000  0.5595820000000 1.0
C      1  0.4481330000000  0.4584690000000  0.5793840000000 1.0
C      1  0.4971340000000  0.5844900000000  0.4345060000000 1.0
C      1  0.4918200000000  0.5360430000000  0.5740330000000 1.0
C      1  0.5161600000000  0.4863540000000  0.5168250000000 1.0
C      1  0.4942570000000  0.5240630000000  0.4375880000000 1.0
C      1  0.4993650000000  0.5759970000000  0.5585200000000 1.0
C      1  0.4360400000000  0.4486130000000  0.4392710000000 1.0
C      1  0.5810510000000  0.4407960000000  0.5338920000000 1.0
C      1  0.4904930000000  0.5125410000000  0.6115320000000 1.0
C      1  0.5475580000000  0.4351560000000  0.5761540000000 1.0
C      1  0.5816420000000  0.5366520000000  0.5274740000000 1.0
C      1  0.4466700000000  0.5275650000000  0.5356260000000 1.0
C      1  0.5478950000000  0.5093720000000  0.3979350000000 1.0
C      1  0.4518860000000  0.3835560000000  0.4903140000000 1.0
C      1  0.5787580000000  0.4414700000000  0.5048020000000 1.0
C      1  0.4569620000000  0.6094980000000  0.5056990000000 1.0
C      1  0.5638980000000  0.5137060000000  0.5694880000000 1.0
C      1  0.5099470000000  0.5492060000000  0.5160350000000 1.0
C      1  0.5823350000000  0.4803720000000  0.4350230000000 1.0
C      1  0.4075290000000  0.4718970000000  0.4515830000000 1.0
C      1  0.5600770000000  0.4751960000000  0.5048420000000 1.0
C      1  0.4649870000000  0.4767430000000  0.5370080000000 1.0
C      1  0.5167900000000  0.4359920000000  0.4939230000000 1.0
C      1  0.5508010000000  0.5922140000000  0.5198210000000 1.0
END
