TITL C-950523-3027-672 -1.68177418354986e-06 125000 -738.083621206648 0 0 119 (C1) n - 1
REM
REM in /home/bkarasulu/work/CARBON/AIRSS/Generating-Clusters/EDIP-Nigel-Params/with-SteepDescent/Only-C1/SD-CG/HFTN-CG
REM
REM
REM
REM
REM
REM ./C.cell (11c1c37f851c82e70ff6c80c92926a4b)
REM
REM compiler GCC version 9.2.1 20190827 (Red Hat 9.2.1-1)
REM options -cpp -mtune=generic -march=x86-64 -g -O0 -fpre-include=/usr/include/finclude/math-vector-fortran.h
REM seed -1130866614 622722479 728529214 -746766662 1720109409 -2087561457 1865594991 10711351 952110888 560388228 -1615165968 -1736100076 -317242266 -93295172 963459198 1443611268 -220567944 1008017058 1465475968 -1420772384 1126677408 -842628047 -763787562 -1036636750 -1073704703 1252992023 2139330982 1946173895 -1610835483 1991438511 -617641603 -1375435318 -2002476643
REM
CELL 1.54180   50.00000   50.00000   50.00000   90.00000   90.00000   90.00000
LATT -1
SFAC C  
C      1  0.4464160000000  0.4553420000000  0.4755710000000 1.0
C      1  0.4344880000000  0.4693280000000  0.4321550000000 1.0
C      1  0.5182340000000  0.5514610000000  0.5138380000000 1.0
C      1  0.5295720000000  0.4209050000000  0.5337430000000 1.0
C      1  0.4436980000000  0.5873480000000  0.5046510000000 1.0
C      1  0.4039630000000  0.4749200000000  0.4706530000000 1.0
C      1  0.4502800000000  0.4853890000000  0.4856090000000 1.0
C      1  0.5119490000000  0.4939910000000  0.5807470000000 1.0
C      1  0.5179450000000  0.4315160000000  0.4428960000000 1.0
C      1  0.5643840000000  0.5532490000000  0.5264610000000 1.0
C      1  0.5876340000000  0.5352660000000  0.5301080000000 1.0
C      1  0.4914190000000  0.5980690000000  0.5040380000000 1.0
C      1  0.4556110000000  0.4577340000000  0.4462830000000 1.0
C      1  0.4661220000000  0.4033130000000  0.4990720000000 1.0
C      1  0.4658730000000  0.5280290000000  0.5867200000000 1.0
C      1  0.4950380000000  0.5964410000000  0.5327210000000 1.0
C      1  0.5961040000000  0.5182460000000  0.5068840000000 1.0
C      1  0.4519810000000  0.5273400000000  0.4487010000000 1.0
C      1  0.5188690000000  0.4823350000000  0.4983440000000 1.0
C      1  0.4882970000000  0.5250410000000  0.4876080000000 1.0
C      1  0.4373780000000  0.4672240000000  0.5560220000000 1.0
C      1  0.4374020000000  0.5614390000000  0.5130930000000 1.0
C      1  0.4154860000000  0.5446090000000  0.5555760000000 1.0
C      1  0.4832120000000  0.4523730000000  0.5108040000000 1.0
C      1  0.5086230000000  0.5362360000000  0.4665970000000 1.0
C      1  0.5191310000000  0.5856650000000  0.4666040000000 1.0
C      1  0.4832640000000  0.4701650000000  0.4381010000000 1.0
C      1  0.5711330000000  0.4607240000000  0.4475280000000 1.0
C      1  0.5424430000000  0.4936330000000  0.4792350000000 1.0
C      1  0.5884830000000  0.4885530000000  0.5451760000000 1.0
C      1  0.5776080000000  0.5160970000000  0.5514690000000 1.0
C      1  0.4333650000000  0.5404200000000  0.4911500000000 1.0
C      1  0.5713820000000  0.5485180000000  0.4766880000000 1.0
C      1  0.4862080000000  0.4729970000000  0.5665540000000 1.0
C      1  0.5575950000000  0.4215670000000  0.5350370000000 1.0
C      1  0.5416790000000  0.4915570000000  0.5459390000000 1.0
C      1  0.4496100000000  0.5576260000000  0.4524120000000 1.0
C      1  0.4940420000000  0.5122850000000  0.5326450000000 1.0
C      1  0.4548320000000  0.5055720000000  0.5779520000000 1.0
C      1  0.4684120000000  0.5850120000000  0.4919000000000 1.0
C      1  0.4615430000000  0.5665390000000  0.5588550000000 1.0
C      1  0.4790060000000  0.5488920000000  0.5744040000000 1.0
C      1  0.4802410000000  0.4908220000000  0.4150790000000 1.0
C      1  0.4401840000000  0.5136140000000  0.5249470000000 1.0
C      1  0.5777040000000  0.4366310000000  0.4849040000000 1.0
C      1  0.5685850000000  0.4553930000000  0.5035190000000 1.0
C      1  0.5533600000000  0.5551450000000  0.5554890000000 1.0
C      1  0.5560240000000  0.5060890000000  0.5207310000000 1.0
C      1  0.5446700000000  0.5827860000000  0.4569630000000 1.0
C      1  0.5263020000000  0.4706680000000  0.4201090000000 1.0
C      1  0.5235520000000  0.5210360000000  0.5735590000000 1.0
C      1  0.5014720000000  0.5170200000000  0.4439470000000 1.0
C      1  0.4239270000000  0.5159550000000  0.4456660000000 1.0
C      1  0.4935680000000  0.5356260000000  0.5146250000000 1.0
C      1  0.4395280000000  0.5539580000000  0.5420490000000 1.0
C      1  0.5480930000000  0.5247080000000  0.4273630000000 1.0
C      1  0.4734350000000  0.5888760000000  0.5480480000000 1.0
C      1  0.5677710000000  0.4857150000000  0.4972760000000 1.0
C      1  0.5197760000000  0.5780160000000  0.5304960000000 1.0
C      1  0.4916030000000  0.4262340000000  0.5649480000000 1.0
C      1  0.5363260000000  0.4314920000000  0.4637820000000 1.0
C      1  0.5260740000000  0.5670030000000  0.5581560000000 1.0
C      1  0.4939240000000  0.4947490000000  0.4870440000000 1.0
C      1  0.5155130000000  0.4890990000000  0.5291860000000 1.0
C      1  0.4724460000000  0.4813940000000  0.5049980000000 1.0
C      1  0.4666000000000  0.4993900000000  0.5307970000000 1.0
C      1  0.4828280000000  0.4008280000000  0.5235560000000 1.0
C      1  0.5525210000000  0.5277050000000  0.5674430000000 1.0
C      1  0.5395790000000  0.5264650000000  0.4776760000000 1.0
C      1  0.5441820000000  0.5350000000000  0.5092230000000 1.0
C      1  0.4721290000000  0.5708610000000  0.4666790000000 1.0
C      1  0.5109520000000  0.4929660000000  0.4071320000000 1.0
C      1  0.4164870000000  0.4498820000000  0.4821110000000 1.0
C      1  0.4234790000000  0.5585540000000  0.4669180000000 1.0
C      1  0.5081890000000  0.5460030000000  0.5697630000000 1.0
C      1  0.5200070000000  0.5198200000000  0.4187630000000 1.0
C      1  0.4107050000000  0.4495850000000  0.5124680000000 1.0
C      1  0.4840470000000  0.4059900000000  0.4764570000000 1.0
C      1  0.4227890000000  0.4870340000000  0.4508260000000 1.0
C      1  0.4224650000000  0.5192730000000  0.5469590000000 1.0
C      1  0.5123290000000  0.4007920000000  0.5164990000000 1.0
C      1  0.4468610000000  0.4257340000000  0.5458990000000 1.0
C      1  0.4998190000000  0.5655780000000  0.4564150000000 1.0
C      1  0.5161310000000  0.4392910000000  0.5537240000000 1.0
C      1  0.5707150000000  0.4457730000000  0.5302810000000 1.0
C      1  0.5100470000000  0.4529570000000  0.4970590000000 1.0
C      1  0.5604740000000  0.5031250000000  0.4402290000000 1.0
C      1  0.4743130000000  0.5188130000000  0.4294950000000 1.0
C      1  0.5826670000000  0.5025860000000  0.4592580000000 1.0
C      1  0.5109020000000  0.5424770000000  0.4020880000000 1.0
C      1  0.5580630000000  0.5589230000000  0.4539510000000 1.0
C      1  0.5913670000000  0.4756520000000  0.4617780000000 1.0
C      1  0.5010640000000  0.4636390000000  0.5409070000000 1.0
C      1  0.5055440000000  0.4512510000000  0.4279870000000 1.0
C      1  0.4649310000000  0.4355930000000  0.4925590000000 1.0
C      1  0.4750430000000  0.4214760000000  0.5416110000000 1.0
C      1  0.5265150000000  0.4283110000000  0.4919190000000 1.0
C      1  0.3923490000000  0.4714200000000  0.5169020000000 1.0
C      1  0.5613590000000  0.5490930000000  0.4280750000000 1.0
C      1  0.4290150000000  0.4982520000000  0.5023360000000 1.0
C      1  0.5330530000000  0.4501220000000  0.5744140000000 1.0
C      1  0.5182990000000  0.5687210000000  0.4080270000000 1.0
C      1  0.4576140000000  0.5220730000000  0.4786830000000 1.0
C      1  0.4009740000000  0.4897720000000  0.4967150000000 1.0
C      1  0.4963490000000  0.4897470000000  0.4574070000000 1.0
C      1  0.5647350000000  0.4357600000000  0.4604600000000 1.0
C      1  0.5172370000000  0.5912380000000  0.4941650000000 1.0
C      1  0.4082730000000  0.5340420000000  0.4621800000000 1.0
C      1  0.4767190000000  0.4470690000000  0.5798630000000 1.0
C      1  0.5351710000000  0.4781300000000  0.5737630000000 1.0
C      1  0.5702740000000  0.4665570000000  0.5495100000000 1.0
C      1  0.4474690000000  0.4429440000000  0.5721470000000 1.0
C      1  0.5109390000000  0.4027670000000  0.4860550000000 1.0
C      1  0.4976900000000  0.5674980000000  0.4266940000000 1.0
C      1  0.4605820000000  0.4864020000000  0.5580100000000 1.0
C      1  0.5992190000000  0.4914420000000  0.5181130000000 1.0
C      1  0.4350130000000  0.4497890000000  0.5303640000000 1.0
C      1  0.5464280000000  0.4776690000000  0.4438510000000 1.0
C      1  0.5837080000000  0.5231740000000  0.4804040000000 1.0
END
