TITL C-951337-3020-516 -3.75261157973025e-06 125000 -858.256018111866 0 0 135 (C1) n - 1
REM
REM in /home/bkarasulu/work/CARBON/AIRSS/Generating-Clusters/EDIP-Nigel-Params/with-SteepDescent/Only-C1/SD-CG/HFTN-CG
REM
REM
REM
REM
REM
REM ./C.cell (11c1c37f851c82e70ff6c80c92926a4b)
REM
REM compiler GCC version 9.2.1 20190827 (Red Hat 9.2.1-1)
REM options -cpp -mtune=generic -march=x86-64 -g -O0 -fpre-include=/usr/include/finclude/math-vector-fortran.h
REM seed -1198008746 2044518179 244290597 -371739150 396486848 -1586299032 -1210379409 336257056 -1041858420 -1663453358 -1021717601 560608822 -503241890 1454469057 -172014404 662106127 1807777025 -2051229379 1486298111 1382132956 1116051812 762558250 -1156860017 1470561038 -1408345582 -542525232 -1815353178 -1659208025 1170249354 295781729 -1883286181 -1915827372 -36032812
REM
CELL 1.54180   50.00000   50.00000   50.00000   90.00000   90.00000   90.00000
LATT -1
SFAC C  
C      1  0.4470520000000  0.5729000000000  0.4928040000000 1.0
C      1  0.4598080000000  0.4284020000000  0.4677940000000 1.0
C      1  0.4266020000000  0.5425920000000  0.5334710000000 1.0
C      1  0.5786170000000  0.5578300000000  0.4998110000000 1.0
C      1  0.4496680000000  0.5323830000000  0.4434870000000 1.0
C      1  0.4787630000000  0.4966910000000  0.4612470000000 1.0
C      1  0.4693760000000  0.5499910000000  0.5642710000000 1.0
C      1  0.5063250000000  0.3966170000000  0.4645560000000 1.0
C      1  0.5752030000000  0.4800380000000  0.5628530000000 1.0
C      1  0.5134390000000  0.4736340000000  0.4053060000000 1.0
C      1  0.4592300000000  0.5177600000000  0.4981790000000 1.0
C      1  0.5298730000000  0.4514820000000  0.5694510000000 1.0
C      1  0.5287990000000  0.4928120000000  0.4495450000000 1.0
C      1  0.4542720000000  0.4852880000000  0.5683210000000 1.0
C      1  0.5892950000000  0.4908760000000  0.5387460000000 1.0
C      1  0.5681630000000  0.5473680000000  0.4252120000000 1.0
C      1  0.4636480000000  0.4677380000000  0.4953030000000 1.0
C      1  0.5289580000000  0.5696670000000  0.4426950000000 1.0
C      1  0.5197070000000  0.4663530000000  0.5908530000000 1.0
C      1  0.4679770000000  0.5269010000000  0.4181090000000 1.0
C      1  0.5589590000000  0.4561900000000  0.5629140000000 1.0
C      1  0.4623680000000  0.4985010000000  0.4094210000000 1.0
C      1  0.4685900000000  0.5238910000000  0.4671930000000 1.0
C      1  0.5247700000000  0.4642420000000  0.4539030000000 1.0
C      1  0.4099200000000  0.5251880000000  0.5153930000000 1.0
C      1  0.4863300000000  0.4794150000000  0.4182070000000 1.0
C      1  0.5019430000000  0.4538880000000  0.5236220000000 1.0
C      1  0.5062160000000  0.4071530000000  0.5392590000000 1.0
C      1  0.5261300000000  0.5869060000000  0.4877170000000 1.0
C      1  0.5581450000000  0.4198170000000  0.4569160000000 1.0
C      1  0.4951950000000  0.5546310000000  0.5796390000000 1.0
C      1  0.5042350000000  0.4961880000000  0.5038040000000 1.0
C      1  0.5841950000000  0.4872250000000  0.4505950000000 1.0
C      1  0.5540530000000  0.4886310000000  0.4271000000000 1.0
C      1  0.4634190000000  0.5749280000000  0.5469780000000 1.0
C      1  0.4383930000000  0.5604200000000  0.4522380000000 1.0
C      1  0.5074030000000  0.4370190000000  0.5503400000000 1.0
C      1  0.4184920000000  0.4434360000000  0.4829740000000 1.0
C      1  0.5302140000000  0.5204710000000  0.5834090000000 1.0
C      1  0.4469650000000  0.4635140000000  0.4408250000000 1.0
C      1  0.4671850000000  0.4940230000000  0.5392150000000 1.0
C      1  0.5326880000000  0.4988100000000  0.4058550000000 1.0
C      1  0.5501580000000  0.5356720000000  0.5704290000000 1.0
C      1  0.5078100000000  0.5233440000000  0.5514750000000 1.0
C      1  0.5450600000000  0.4927350000000  0.5425880000000 1.0
C      1  0.5679090000000  0.5601890000000  0.4721180000000 1.0
C      1  0.4059070000000  0.4668790000000  0.4933990000000 1.0
C      1  0.5649530000000  0.4092460000000  0.4820700000000 1.0
C      1  0.5222870000000  0.5271370000000  0.4136020000000 1.0
C      1  0.4115510000000  0.5092800000000  0.4666010000000 1.0
C      1  0.4757210000000  0.5265670000000  0.5439240000000 1.0
C      1  0.5152530000000  0.5386450000000  0.5265040000000 1.0
C      1  0.4864100000000  0.5066120000000  0.5962480000000 1.0
C      1  0.4390520000000  0.5971870000000  0.5089420000000 1.0
C      1  0.4286250000000  0.4263510000000  0.5056950000000 1.0
C      1  0.5460340000000  0.4575320000000  0.5038540000000 1.0
C      1  0.4442590000000  0.4533620000000  0.4705380000000 1.0
C      1  0.4221280000000  0.4746310000000  0.5175490000000 1.0
C      1  0.5038960000000  0.4562870000000  0.4724240000000 1.0
C      1  0.5695630000000  0.4381600000000  0.5445980000000 1.0
C      1  0.5891770000000  0.4811960000000  0.5093080000000 1.0
C      1  0.5261900000000  0.4525220000000  0.4254920000000 1.0
C      1  0.4537480000000  0.5864490000000  0.4573820000000 1.0
C      1  0.5930450000000  0.5312890000000  0.5095250000000 1.0
C      1  0.4742780000000  0.6015770000000  0.4740240000000 1.0
C      1  0.5186390000000  0.4241810000000  0.4252800000000 1.0
C      1  0.5448310000000  0.5774810000000  0.4666000000000 1.0
C      1  0.3999430000000  0.4854450000000  0.4738410000000 1.0
C      1  0.4375010000000  0.5855680000000  0.5367690000000 1.0
C      1  0.5785600000000  0.4625850000000  0.4634370000000 1.0
C      1  0.5003210000000  0.5684370000000  0.4514490000000 1.0
C      1  0.5402070000000  0.5468430000000  0.4271310000000 1.0
C      1  0.4066740000000  0.4982690000000  0.5292770000000 1.0
C      1  0.4762690000000  0.4037570000000  0.5332840000000 1.0
C      1  0.5346920000000  0.5118950000000  0.4728310000000 1.0
C      1  0.5577040000000  0.5217400000000  0.5446060000000 1.0
C      1  0.4971370000000  0.5817350000000  0.4778870000000 1.0
C      1  0.4597450000000  0.5392280000000  0.5189270000000 1.0
C      1  0.4879270000000  0.4801230000000  0.4827510000000 1.0
C      1  0.4480850000000  0.5340650000000  0.5780390000000 1.0
C      1  0.5426560000000  0.5626020000000  0.5704290000000 1.0
C      1  0.4546620000000  0.4157060000000  0.4934240000000 1.0
C      1  0.4750040000000  0.4483260000000  0.5153150000000 1.0
C      1  0.5140360000000  0.5314450000000  0.4782250000000 1.0
C      1  0.4988620000000  0.5264740000000  0.5030260000000 1.0
C      1  0.5572730000000  0.5618610000000  0.5196820000000 1.0
C      1  0.4388140000000  0.4888770000000  0.4264810000000 1.0
C      1  0.4179790000000  0.5283910000000  0.4871770000000 1.0
C      1  0.5555710000000  0.4569620000000  0.4225880000000 1.0
C      1  0.5692800000000  0.4428510000000  0.4449660000000 1.0
C      1  0.5003640000000  0.4146560000000  0.4441260000000 1.0
C      1  0.5825770000000  0.5506110000000  0.4491170000000 1.0
C      1  0.4255290000000  0.5553960000000  0.4788770000000 1.0
C      1  0.5450990000000  0.5344890000000  0.5208140000000 1.0
C      1  0.4981290000000  0.4972110000000  0.4397890000000 1.0
C      1  0.4647660000000  0.6122910000000  0.5012090000000 1.0
C      1  0.5517510000000  0.5100080000000  0.4972580000000 1.0
C      1  0.4973810000000  0.4838930000000  0.5305630000000 1.0
C      1  0.4266140000000  0.5278670000000  0.5591720000000 1.0
C      1  0.5163160000000  0.5695720000000  0.5637080000000 1.0
C      1  0.4942870000000  0.4777970000000  0.5928440000000 1.0
C      1  0.4735900000000  0.4549780000000  0.4314520000000 1.0
C      1  0.4957470000000  0.5397710000000  0.4566040000000 1.0
C      1  0.5877430000000  0.5211080000000  0.5380790000000 1.0
C      1  0.5165860000000  0.4950090000000  0.5497950000000 1.0
C      1  0.4261100000000  0.4782710000000  0.5684920000000 1.0
C      1  0.4725000000000  0.4641380000000  0.5787920000000 1.0
C      1  0.5402850000000  0.4866570000000  0.5131550000000 1.0
C      1  0.5118290000000  0.5690960000000  0.5335740000000 1.0
C      1  0.4153000000000  0.5687000000000  0.5387330000000 1.0
C      1  0.4787480000000  0.4410130000000  0.5619350000000 1.0
C      1  0.4615780000000  0.4331770000000  0.5370110000000 1.0
C      1  0.5765210000000  0.4566480000000  0.4929720000000 1.0
C      1  0.5827460000000  0.4270000000000  0.4967100000000 1.0
C      1  0.5016050000000  0.3961430000000  0.4923600000000 1.0
C      1  0.5212970000000  0.3996970000000  0.5139410000000 1.0
C      1  0.5176690000000  0.4479340000000  0.4976650000000 1.0
C      1  0.4142620000000  0.5012350000000  0.5571420000000 1.0
C      1  0.5511600000000  0.4094740000000  0.5110660000000 1.0
C      1  0.5053000000000  0.5300350000000  0.5942750000000 1.0
C      1  0.4849320000000  0.4375270000000  0.4541410000000 1.0
C      1  0.4965910000000  0.5248940000000  0.4292480000000 1.0
C      1  0.5829490000000  0.5071310000000  0.4944180000000 1.0
C      1  0.5342050000000  0.5813040000000  0.5161020000000 1.0
C      1  0.4584240000000  0.5084180000000  0.5877110000000 1.0
C      1  0.4746570000000  0.5623440000000  0.5033360000000 1.0
C      1  0.5501530000000  0.4357820000000  0.5249150000000 1.0
C      1  0.4744720000000  0.3967800000000  0.5045720000000 1.0
C      1  0.4840270000000  0.5800610000000  0.5263250000000 1.0
C      1  0.5941690000000  0.5073510000000  0.4669760000000 1.0
C      1  0.4505230000000  0.4895350000000  0.5115470000000 1.0
C      1  0.6013740000000  0.5312440000000  0.4549680000000 1.0
C      1  0.4850720000000  0.6084460000000  0.5203200000000 1.0
C      1  0.4308040000000  0.4441610000000  0.5301660000000 1.0
C      1  0.4282920000000  0.5116440000000  0.4427830000000 1.0
END
