TITL C-951337-3020-396 -2.25387744101974e-07 125000 -920.515868084358 0 0 147 (C1) n - 1
REM
REM in /home/bkarasulu/work/CARBON/AIRSS/Generating-Clusters/EDIP-Nigel-Params/with-SteepDescent/Only-C1/SD-CG/HFTN-CG
REM
REM
REM
REM
REM
REM ./C.cell (11c1c37f851c82e70ff6c80c92926a4b)
REM
REM compiler GCC version 9.2.1 20190827 (Red Hat 9.2.1-1)
REM options -cpp -mtune=generic -march=x86-64 -g -O0 -fpre-include=/usr/include/finclude/math-vector-fortran.h
REM seed 799139610 547242855 -1291829596 -1125665036 824140807 1528577468 -1736886487 1807240562 -865327426 -373350363 819399775 1126191916 148787220 -1062367805 1876554858 -265573909 -1571394177 -978740150 -964462881 1634818471 -1336161160 2067238027 1485741668 -1799909957 -338045389 -923068452 1812506929 1114616754 16211917 90349979 -1753686076 -127521045 -2144211547
REM
CELL 1.54180   50.00000   50.00000   50.00000   90.00000   90.00000   90.00000
LATT -1
SFAC C  
C      1  0.5688900000000  0.5041540000000  0.5739350000000 1.0
C      1  0.5839260000000  0.5341350000000  0.4590490000000 1.0
C      1  0.5764030000000  0.4991130000000  0.4899620000000 1.0
C      1  0.5262970000000  0.4995650000000  0.5121080000000 1.0
C      1  0.4896080000000  0.4977240000000  0.5952560000000 1.0
C      1  0.5301570000000  0.3963940000000  0.5072640000000 1.0
C      1  0.5692350000000  0.4972480000000  0.4393900000000 1.0
C      1  0.4838760000000  0.5049670000000  0.5236780000000 1.0
C      1  0.4558890000000  0.5141090000000  0.5124500000000 1.0
C      1  0.4284510000000  0.4651260000000  0.4313930000000 1.0
C      1  0.4446760000000  0.4889560000000  0.5008860000000 1.0
C      1  0.4808730000000  0.5877850000000  0.4218030000000 1.0
C      1  0.4490000000000  0.5801650000000  0.5145520000000 1.0
C      1  0.5965830000000  0.4603610000000  0.4755060000000 1.0
C      1  0.5634620000000  0.4538480000000  0.5621350000000 1.0
C      1  0.5608650000000  0.4298860000000  0.5425080000000 1.0
C      1  0.5908120000000  0.4889350000000  0.5350150000000 1.0
C      1  0.4474470000000  0.5515940000000  0.4195930000000 1.0
C      1  0.5010960000000  0.4393600000000  0.5817180000000 1.0
C      1  0.5114170000000  0.3988930000000  0.4850220000000 1.0
C      1  0.4186360000000  0.4620380000000  0.4583010000000 1.0
C      1  0.5129220000000  0.4938150000000  0.4860080000000 1.0
C      1  0.4607790000000  0.4358770000000  0.4677680000000 1.0
C      1  0.5139020000000  0.4670320000000  0.5586560000000 1.0
C      1  0.4328570000000  0.4433910000000  0.4748730000000 1.0
C      1  0.4539030000000  0.5812440000000  0.4602190000000 1.0
C      1  0.4795520000000  0.4948420000000  0.4360360000000 1.0
C      1  0.5560730000000  0.5730180000000  0.4563890000000 1.0
C      1  0.4358660000000  0.5125510000000  0.4450020000000 1.0
C      1  0.4694810000000  0.6013870000000  0.4750830000000 1.0
C      1  0.4273500000000  0.5751970000000  0.4688710000000 1.0
C      1  0.4696260000000  0.5575540000000  0.5103020000000 1.0
C      1  0.5173130000000  0.4061410000000  0.5320920000000 1.0
C      1  0.5436870000000  0.4772020000000  0.5212910000000 1.0
C      1  0.5367450000000  0.4403210000000  0.4225670000000 1.0
C      1  0.5014480000000  0.5235770000000  0.6045180000000 1.0
C      1  0.5386100000000  0.5166340000000  0.3997640000000 1.0
C      1  0.5260190000000  0.4109970000000  0.4621640000000 1.0
C      1  0.4287870000000  0.4185390000000  0.5164700000000 1.0
C      1  0.4765620000000  0.4265850000000  0.5741700000000 1.0
C      1  0.4862060000000  0.5041120000000  0.4791430000000 1.0
C      1  0.5447920000000  0.5010450000000  0.5886420000000 1.0
C      1  0.4982860000000  0.4919160000000  0.5675830000000 1.0
C      1  0.4537370000000  0.4637360000000  0.5177840000000 1.0
C      1  0.4210870000000  0.5484560000000  0.5358440000000 1.0
C      1  0.5407150000000  0.5527860000000  0.5812870000000 1.0
C      1  0.5008270000000  0.5936910000000  0.4413600000000 1.0
C      1  0.4426450000000  0.4553890000000  0.5752540000000 1.0
C      1  0.5762940000000  0.5545750000000  0.5024950000000 1.0
C      1  0.5346480000000  0.4664920000000  0.4088210000000 1.0
C      1  0.4372700000000  0.5733250000000  0.5429790000000 1.0
C      1  0.4521090000000  0.5150520000000  0.5786580000000 1.0
C      1  0.4022790000000  0.4959070000000  0.4950700000000 1.0
C      1  0.4242300000000  0.4424500000000  0.5572980000000 1.0
C      1  0.5724110000000  0.5271290000000  0.5566990000000 1.0
C      1  0.4741370000000  0.4965720000000  0.5522810000000 1.0
C      1  0.5871020000000  0.5181280000000  0.5339820000000 1.0
C      1  0.5117000000000  0.5049970000000  0.3893540000000 1.0
C      1  0.5434980000000  0.4759570000000  0.5520910000000 1.0
C      1  0.5818440000000  0.4802230000000  0.5619080000000 1.0
C      1  0.4686490000000  0.4206730000000  0.5464220000000 1.0
C      1  0.4655370000000  0.4105660000000  0.4801530000000 1.0
C      1  0.5051520000000  0.4567850000000  0.5311690000000 1.0
C      1  0.5739580000000  0.4784660000000  0.5124100000000 1.0
C      1  0.5353610000000  0.4189480000000  0.5519800000000 1.0
C      1  0.4526710000000  0.4886300000000  0.4500650000000 1.0
C      1  0.6025260000000  0.4929150000000  0.4751310000000 1.0
C      1  0.5396720000000  0.4747730000000  0.5981260000000 1.0
C      1  0.5507910000000  0.4654350000000  0.4640070000000 1.0
C      1  0.4954420000000  0.4689110000000  0.4288070000000 1.0
C      1  0.4884420000000  0.5467190000000  0.4464980000000 1.0
C      1  0.5361050000000  0.5374880000000  0.4821400000000 1.0
C      1  0.4311380000000  0.5053260000000  0.5575600000000 1.0
C      1  0.4657990000000  0.5669040000000  0.4359730000000 1.0
C      1  0.4675470000000  0.6031080000000  0.5047770000000 1.0
C      1  0.4581010000000  0.5365910000000  0.4903350000000 1.0
C      1  0.4115880000000  0.5483860000000  0.5080410000000 1.0
C      1  0.4396020000000  0.4234120000000  0.5416010000000 1.0
C      1  0.4110860000000  0.4765040000000  0.5170790000000 1.0
C      1  0.5484250000000  0.4496690000000  0.5878400000000 1.0
C      1  0.5360640000000  0.5595330000000  0.4377120000000 1.0
C      1  0.5191200000000  0.5896370000000  0.5565670000000 1.0
C      1  0.4928110000000  0.6056410000000  0.5181050000000 1.0
C      1  0.4278450000000  0.5312690000000  0.4664710000000 1.0
C      1  0.5604040000000  0.5686140000000  0.5239030000000 1.0
C      1  0.5225190000000  0.4624030000000  0.4511180000000 1.0
C      1  0.5284260000000  0.5401270000000  0.5352880000000 1.0
C      1  0.4637770000000  0.4847950000000  0.4776210000000 1.0
C      1  0.4022040000000  0.4810080000000  0.4710560000000 1.0
C      1  0.5308400000000  0.5264000000000  0.5944450000000 1.0
C      1  0.4165370000000  0.5222830000000  0.4929740000000 1.0
C      1  0.4781070000000  0.4580990000000  0.4809910000000 1.0
C      1  0.5014620000000  0.5309210000000  0.5475210000000 1.0
C      1  0.5945850000000  0.5095090000000  0.4503500000000 1.0
C      1  0.4561080000000  0.4361350000000  0.5905390000000 1.0
C      1  0.5841050000000  0.4522170000000  0.5033090000000 1.0
C      1  0.5170650000000  0.5956430000000  0.5294450000000 1.0
C      1  0.5753010000000  0.4513990000000  0.4564720000000 1.0
C      1  0.4790670000000  0.5479520000000  0.6014970000000 1.0
C      1  0.4615170000000  0.4972600000000  0.5993860000000 1.0
C      1  0.5541390000000  0.4083760000000  0.4689650000000 1.0
C      1  0.5101850000000  0.4630000000000  0.4815250000000 1.0
C      1  0.5718790000000  0.5249250000000  0.5097810000000 1.0
C      1  0.4878870000000  0.4082030000000  0.5273320000000 1.0
C      1  0.4859130000000  0.4046800000000  0.4977470000000 1.0
C      1  0.5565890000000  0.4071970000000  0.4985350000000 1.0
C      1  0.5270890000000  0.4530990000000  0.5097470000000 1.0
C      1  0.5368890000000  0.5868260000000  0.4840930000000 1.0
C      1  0.4445600000000  0.5236620000000  0.4195580000000 1.0
C      1  0.4914430000000  0.4257300000000  0.4302970000000 1.0
C      1  0.4819580000000  0.5320710000000  0.4731500000000 1.0
C      1  0.5394260000000  0.5256850000000  0.5117410000000 1.0
C      1  0.5731120000000  0.4236780000000  0.4555320000000 1.0
C      1  0.4676460000000  0.5059510000000  0.4096390000000 1.0
C      1  0.4249130000000  0.5733490000000  0.4976110000000 1.0
C      1  0.5562460000000  0.4935960000000  0.4666190000000 1.0
C      1  0.4286630000000  0.4447090000000  0.5043340000000 1.0
C      1  0.4683710000000  0.4731220000000  0.4006180000000 1.0
C      1  0.4855270000000  0.4736030000000  0.5169560000000 1.0
C      1  0.4732560000000  0.5452320000000  0.5389500000000 1.0
C      1  0.4538280000000  0.4558490000000  0.4212270000000 1.0
C      1  0.5053460000000  0.5294990000000  0.4263890000000 1.0
C      1  0.5373980000000  0.5445470000000  0.4118030000000 1.0
C      1  0.4139400000000  0.5544680000000  0.4555610000000 1.0
C      1  0.5183640000000  0.5040720000000  0.4392450000000 1.0
C      1  0.5519690000000  0.5491410000000  0.5526710000000 1.0
C      1  0.4954120000000  0.5653030000000  0.4994220000000 1.0
C      1  0.4926410000000  0.6105110000000  0.4621020000000 1.0
C      1  0.5178870000000  0.5715250000000  0.5778220000000 1.0
C      1  0.5278250000000  0.4304300000000  0.5782580000000 1.0
C      1  0.4673060000000  0.4364460000000  0.4382650000000 1.0
C      1  0.5650230000000  0.5503470000000  0.4737550000000 1.0
C      1  0.4403640000000  0.5255720000000  0.5376970000000 1.0
C      1  0.5102290000000  0.5668380000000  0.4512110000000 1.0
C      1  0.4980850000000  0.5486270000000  0.5753560000000 1.0
C      1  0.4907810000000  0.5217470000000  0.4013400000000 1.0
C      1  0.4189960000000  0.4791470000000  0.5466460000000 1.0
C      1  0.5183170000000  0.4218840000000  0.4358080000000 1.0
C      1  0.4568930000000  0.4705120000000  0.5496810000000 1.0
C      1  0.5176250000000  0.5640330000000  0.4805370000000 1.0
C      1  0.4548660000000  0.5453570000000  0.5840690000000 1.0
C      1  0.5411060000000  0.5886080000000  0.5132690000000 1.0
C      1  0.4598280000000  0.5629570000000  0.5596330000000 1.0
C      1  0.5418980000000  0.4949240000000  0.4208840000000 1.0
C      1  0.5303420000000  0.5089350000000  0.4669180000000 1.0
C      1  0.5071820000000  0.4749540000000  0.3979720000000 1.0
C      1  0.5605120000000  0.4338210000000  0.5125440000000 1.0
END
