TITL C-951340-9809-558 -1.24418080284084e-06 125000 -510.921412323524 0 0 83 (C1) n - 1
REM
REM in /home/bkarasulu/work/CARBON/AIRSS/Generating-Clusters/EDIP-Nigel-Params/with-SteepDescent/Only-C1/SD-CG/HFTN-CG
REM
REM
REM
REM
REM
REM ./C.cell (11c1c37f851c82e70ff6c80c92926a4b)
REM
REM compiler GCC version 9.2.1 20190827 (Red Hat 9.2.1-1)
REM options -cpp -mtune=generic -march=x86-64 -g -O0 -fpre-include=/usr/include/finclude/math-vector-fortran.h
REM seed 52246533 1107956847 -2090652617 2043869240 2122328582 1627812468 -2017947318 -306040720 -276806804 -641685650 427100290 496270260 -752711487 1084021339 -734135575 423966139 1066689402 1906550178 -433417861 -1682715712 -1097344686 170477352 -498425334 -1460309655 -403343439 -863129834 -1434986673 2090275650 1323080237 -578384485 -973107568 1649302393 -1956361862
REM
CELL 1.54180   50.00000   50.00000   50.00000   90.00000   90.00000   90.00000
LATT -1
SFAC C  
C      1  0.5658880000000  0.5214600000000  0.5314730000000 1.0
C      1  0.4900440000000  0.4892960000000  0.4225060000000 1.0
C      1  0.4796310000000  0.4683270000000  0.4668630000000 1.0
C      1  0.4622090000000  0.5027890000000  0.4240180000000 1.0
C      1  0.4942060000000  0.4663120000000  0.4408440000000 1.0
C      1  0.4461470000000  0.5652050000000  0.5620980000000 1.0
C      1  0.4452370000000  0.5441960000000  0.5798150000000 1.0
C      1  0.4774270000000  0.5765060000000  0.5228010000000 1.0
C      1  0.4457940000000  0.4448300000000  0.5033640000000 1.0
C      1  0.5220440000000  0.4925780000000  0.4734200000000 1.0
C      1  0.5601380000000  0.5065140000000  0.4432960000000 1.0
C      1  0.5608280000000  0.4553030000000  0.4318400000000 1.0
C      1  0.5700700000000  0.5014630000000  0.4919850000000 1.0
C      1  0.4669150000000  0.5327110000000  0.4241200000000 1.0
C      1  0.4881100000000  0.5414370000000  0.4898720000000 1.0
C      1  0.4824030000000  0.4795690000000  0.5837890000000 1.0
C      1  0.4511590000000  0.5446700000000  0.4443070000000 1.0
C      1  0.4763470000000  0.5181320000000  0.4768230000000 1.0
C      1  0.5071000000000  0.5768330000000  0.5220790000000 1.0
C      1  0.4959180000000  0.5369890000000  0.4288530000000 1.0
C      1  0.5205960000000  0.5741860000000  0.5475290000000 1.0
C      1  0.5174200000000  0.4162120000000  0.5026360000000 1.0
C      1  0.4996730000000  0.5742210000000  0.4735660000000 1.0
C      1  0.5014790000000  0.4101910000000  0.5253480000000 1.0
C      1  0.5124430000000  0.5435610000000  0.5684290000000 1.0
C      1  0.5198670000000  0.4711720000000  0.5539510000000 1.0
C      1  0.5476320000000  0.4476610000000  0.5266600000000 1.0
C      1  0.4884880000000  0.4445610000000  0.4846460000000 1.0
C      1  0.4686460000000  0.5660540000000  0.4956850000000 1.0
C      1  0.5460530000000  0.4356870000000  0.4750900000000 1.0
C      1  0.5534180000000  0.5442820000000  0.4722020000000 1.0
C      1  0.5103770000000  0.4719680000000  0.5257400000000 1.0
C      1  0.5417760000000  0.5412000000000  0.5682970000000 1.0
C      1  0.4820020000000  0.4296830000000  0.5334960000000 1.0
C      1  0.4500350000000  0.4221830000000  0.4868190000000 1.0
C      1  0.5069210000000  0.5534300000000  0.4524080000000 1.0
C      1  0.5846340000000  0.5071270000000  0.5153730000000 1.0
C      1  0.4642370000000  0.5297310000000  0.5315680000000 1.0
C      1  0.5121010000000  0.4440620000000  0.4342490000000 1.0
C      1  0.4179940000000  0.4863930000000  0.4998470000000 1.0
C      1  0.5481880000000  0.5621710000000  0.4961970000000 1.0
C      1  0.4669270000000  0.5575590000000  0.5437100000000 1.0
C      1  0.4745290000000  0.4205430000000  0.4746580000000 1.0
C      1  0.4340690000000  0.4669160000000  0.4877290000000 1.0
C      1  0.5252510000000  0.4994450000000  0.5616290000000 1.0
C      1  0.5122830000000  0.4214780000000  0.4513840000000 1.0
C      1  0.4897860000000  0.5153230000000  0.5306840000000 1.0
C      1  0.4843940000000  0.4390920000000  0.5595400000000 1.0
C      1  0.5475680000000  0.5631570000000  0.5494520000000 1.0
C      1  0.5443690000000  0.4551810000000  0.5538040000000 1.0
C      1  0.5235040000000  0.4547080000000  0.4821750000000 1.0
C      1  0.4745090000000  0.4505460000000  0.5122660000000 1.0
C      1  0.5206930000000  0.5769640000000  0.4957820000000 1.0
C      1  0.5690460000000  0.4815340000000  0.4348700000000 1.0
C      1  0.4385340000000  0.5567740000000  0.4983500000000 1.0
C      1  0.5409060000000  0.5000640000000  0.4974370000000 1.0
C      1  0.5641740000000  0.4403120000000  0.4547280000000 1.0
C      1  0.5388530000000  0.4206710000000  0.5210980000000 1.0
C      1  0.4432350000000  0.4968810000000  0.4481280000000 1.0
C      1  0.5328110000000  0.4674980000000  0.5087290000000 1.0
C      1  0.5299560000000  0.5372450000000  0.4577070000000 1.0
C      1  0.5045380000000  0.5333770000000  0.5131840000000 1.0
C      1  0.4495940000000  0.5225950000000  0.4638120000000 1.0
C      1  0.4499980000000  0.4721480000000  0.4633220000000 1.0
C      1  0.5208900000000  0.4075290000000  0.4745610000000 1.0
C      1  0.4792810000000  0.5071310000000  0.5803330000000 1.0
C      1  0.5357150000000  0.4504400000000  0.4205340000000 1.0
C      1  0.4271180000000  0.5525010000000  0.5243610000000 1.0
C      1  0.4875340000000  0.4870160000000  0.5147530000000 1.0
C      1  0.5105560000000  0.5111690000000  0.4248340000000 1.0
C      1  0.4162960000000  0.5139910000000  0.5041240000000 1.0
C      1  0.4978360000000  0.4602050000000  0.5712130000000 1.0
C      1  0.5598050000000  0.5511530000000  0.5249040000000 1.0
C      1  0.5511850000000  0.5144740000000  0.5577310000000 1.0
C      1  0.4910690000000  0.4924810000000  0.4828210000000 1.0
C      1  0.4200530000000  0.5253410000000  0.5319600000000 1.0
C      1  0.5010190000000  0.5169240000000  0.5607620000000 1.0
C      1  0.5326670000000  0.5284910000000  0.5076660000000 1.0
C      1  0.4506230000000  0.5166330000000  0.5748110000000 1.0
C      1  0.5721020000000  0.5199240000000  0.4683620000000 1.0
C      1  0.4303500000000  0.5318900000000  0.4850330000000 1.0
C      1  0.5304830000000  0.5098300000000  0.4479850000000 1.0
C      1  0.4442970000000  0.5120150000000  0.5451730000000 1.0
END
