TITL C-951347-9520-116 0.000113687696547743 125000 -529.296149001468 0 0 87 (C1) n - 1
REM
REM in /home/bkarasulu/work/CARBON/AIRSS/Generating-Clusters/EDIP-Nigel-Params/with-SteepDescent/Only-C1/SD-CG/HFTN-CG
REM
REM
REM
REM
REM
REM ./C.cell (11c1c37f851c82e70ff6c80c92926a4b)
REM
REM compiler GCC version 9.2.1 20190827 (Red Hat 9.2.1-1)
REM options -cpp -mtune=generic -march=x86-64 -g -O0 -fpre-include=/usr/include/finclude/math-vector-fortran.h
REM seed -1830507617 -478648481 1789667749 -1315047584 -1328918305 271386153 -1881588685 952726820 1651640767 -2103946334 1965413624 1833289784 -1704266459 573007584 -126797548 218225789 -271587317 1779615122 248453380 -2055961100 -1196243210 -1710996940 594519564 21702841 2041481688 1378145802 513971671 -977847945 -1562818912 -77731199 -1023505840 -2030521943 342178552
REM
CELL 1.54180   50.00000   50.00000   50.00000   90.00000   90.00000   90.00000
LATT -1
SFAC C  
C      1  0.4919340000000  0.4777720000000  0.4188600000000 1.0
C      1  0.4954510000000  0.5195040000000  0.5827150000000 1.0
C      1  0.5445840000000  0.5530020000000  0.5501220000000 1.0
C      1  0.5751260000000  0.4651410000000  0.5413200000000 1.0
C      1  0.4853230000000  0.4154860000000  0.4905060000000 1.0
C      1  0.5411400000000  0.4763200000000  0.4274050000000 1.0
C      1  0.4459220000000  0.5226430000000  0.4887830000000 1.0
C      1  0.5269860000000  0.4726360000000  0.5313680000000 1.0
C      1  0.4946550000000  0.4520030000000  0.4328690000000 1.0
C      1  0.5419890000000  0.4475490000000  0.4273720000000 1.0
C      1  0.4154760000000  0.4611340000000  0.4967780000000 1.0
C      1  0.4835330000000  0.5560690000000  0.4458170000000 1.0
C      1  0.5073520000000  0.4920060000000  0.4740390000000 1.0
C      1  0.4714260000000  0.4429330000000  0.4479020000000 1.0
C      1  0.5062930000000  0.4734380000000  0.5773690000000 1.0
C      1  0.5175570000000  0.4589780000000  0.5564750000000 1.0
C      1  0.5145970000000  0.5770600000000  0.5202560000000 1.0
C      1  0.5232000000000  0.5257720000000  0.5780910000000 1.0
C      1  0.4593700000000  0.4855230000000  0.5736340000000 1.0
C      1  0.5457570000000  0.5096720000000  0.5668500000000 1.0
C      1  0.4293160000000  0.4581370000000  0.4726130000000 1.0
C      1  0.5209740000000  0.4488310000000  0.4469700000000 1.0
C      1  0.4522540000000  0.4647350000000  0.4566710000000 1.0
C      1  0.5563630000000  0.4878270000000  0.4497880000000 1.0
C      1  0.5179220000000  0.5170910000000  0.4843750000000 1.0
C      1  0.5024590000000  0.5688520000000  0.5648280000000 1.0
C      1  0.4957160000000  0.5376520000000  0.4843240000000 1.0
C      1  0.5280880000000  0.5493300000000  0.5244700000000 1.0
C      1  0.5624300000000  0.5303750000000  0.5550170000000 1.0
C      1  0.5771200000000  0.5250970000000  0.5317560000000 1.0
C      1  0.4815760000000  0.4227990000000  0.4641070000000 1.0
C      1  0.5631960000000  0.4744620000000  0.4768880000000 1.0
C      1  0.4166940000000  0.4402240000000  0.5155410000000 1.0
C      1  0.4460220000000  0.4843960000000  0.4345340000000 1.0
C      1  0.4361040000000  0.5265090000000  0.5503390000000 1.0
C      1  0.5134670000000  0.4990120000000  0.5270750000000 1.0
C      1  0.5168640000000  0.4921550000000  0.4157060000000 1.0
C      1  0.4692970000000  0.5225780000000  0.4708600000000 1.0
C      1  0.5811760000000  0.5473870000000  0.4839530000000 1.0
C      1  0.4840810000000  0.5036080000000  0.5260330000000 1.0
C      1  0.4300490000000  0.5076880000000  0.4400450000000 1.0
C      1  0.5740910000000  0.4977430000000  0.4923730000000 1.0
C      1  0.4744230000000  0.5339920000000  0.4283960000000 1.0
C      1  0.4599390000000  0.4573810000000  0.5722140000000 1.0
C      1  0.5034200000000  0.5801660000000  0.4934290000000 1.0
C      1  0.4653530000000  0.4314740000000  0.5045980000000 1.0
C      1  0.4734110000000  0.5608210000000  0.5244390000000 1.0
C      1  0.5735860000000  0.4500980000000  0.5192200000000 1.0
C      1  0.5115790000000  0.5579190000000  0.4483610000000 1.0
C      1  0.4787680000000  0.4942190000000  0.4643420000000 1.0
C      1  0.4175960000000  0.4862530000000  0.5110220000000 1.0
C      1  0.5795890000000  0.5200780000000  0.4740330000000 1.0
C      1  0.5117020000000  0.4322180000000  0.5548750000000 1.0
C      1  0.4710870000000  0.4596160000000  0.5009330000000 1.0
C      1  0.5574890000000  0.4506740000000  0.4967200000000 1.0
C      1  0.4746080000000  0.5201250000000  0.5506890000000 1.0
C      1  0.5087730000000  0.4220590000000  0.5068580000000 1.0
C      1  0.4920810000000  0.5380410000000  0.5156760000000 1.0
C      1  0.4475090000000  0.5306480000000  0.4411690000000 1.0
C      1  0.5660610000000  0.5147900000000  0.4489780000000 1.0
C      1  0.4562340000000  0.4529620000000  0.5436230000000 1.0
C      1  0.5250140000000  0.4676930000000  0.4731610000000 1.0
C      1  0.4373040000000  0.4982350000000  0.5564710000000 1.0
C      1  0.4927980000000  0.5784950000000  0.5402520000000 1.0
C      1  0.4210580000000  0.5204730000000  0.4750760000000 1.0
C      1  0.4866550000000  0.4925530000000  0.5826080000000 1.0
C      1  0.6039010000000  0.5618180000000  0.4930950000000 1.0
C      1  0.5196670000000  0.5664840000000  0.4740530000000 1.0
C      1  0.5535410000000  0.5347180000000  0.4341820000000 1.0
C      1  0.4685600000000  0.5665250000000  0.4673270000000 1.0
C      1  0.4576600000000  0.5453690000000  0.5460490000000 1.0
C      1  0.5605260000000  0.5063690000000  0.5175110000000 1.0
C      1  0.4976690000000  0.4205930000000  0.5339450000000 1.0
C      1  0.5934260000000  0.5682590000000  0.4691050000000 1.0
C      1  0.4681890000000  0.4259780000000  0.5336960000000 1.0
C      1  0.5543780000000  0.4848740000000  0.5387970000000 1.0
C      1  0.4735870000000  0.4958150000000  0.4337780000000 1.0
C      1  0.4741600000000  0.5753270000000  0.4935260000000 1.0
C      1  0.5255230000000  0.5543520000000  0.5721630000000 1.0
C      1  0.4105310000000  0.5113450000000  0.4997300000000 1.0
C      1  0.4698830000000  0.4750300000000  0.5245660000000 1.0
C      1  0.5313360000000  0.5177310000000  0.5117360000000 1.0
C      1  0.5281810000000  0.4536590000000  0.5031840000000 1.0
C      1  0.5260770000000  0.5389870000000  0.4318760000000 1.0
C      1  0.4187970000000  0.4814920000000  0.5399690000000 1.0
C      1  0.5092690000000  0.5202330000000  0.4185410000000 1.0
C      1  0.4261700000000  0.4529270000000  0.5392320000000 1.0
END
