TITL C-951348-1603-605 3.89968922451157e-07 125000 -511.407405811374 0 0 82 (C1) n - 1
REM
REM in /home/bkarasulu/work/CARBON/AIRSS/Generating-Clusters/EDIP-Nigel-Params/with-SteepDescent/Only-C1/SD-CG/HFTN-CG
REM
REM
REM
REM
REM
REM ./C.cell (11c1c37f851c82e70ff6c80c92926a4b)
REM
REM compiler GCC version 9.2.1 20190827 (Red Hat 9.2.1-1)
REM options -cpp -mtune=generic -march=x86-64 -g -O0 -fpre-include=/usr/include/finclude/math-vector-fortran.h
REM seed -462386439 -931743804 -471149471 1557832727 -186266393 2020186419 1417037374 324810693 -1926075497 -1810004967 480865036 -1317864082 -607521111 1861585671 -1719371175 -1342982900 1227076696 -949787348 -833598825 146953449 -2012737232 1752664324 22768055 -1197283608 -77386302 1110371176 1458864033 1252992691 669732766 1086395748 1630125908 -1982200674 655704806
REM
CELL 1.54180   50.00000   50.00000   50.00000   90.00000   90.00000   90.00000
LATT -1
SFAC C  
C      1  0.5368850000000  0.4305150000000  0.4629050000000 1.0
C      1  0.4611430000000  0.4801200000000  0.4553020000000 1.0
C      1  0.4996490000000  0.5133750000000  0.4685470000000 1.0
C      1  0.4394730000000  0.4862980000000  0.5506930000000 1.0
C      1  0.4239280000000  0.4937780000000  0.5165830000000 1.0
C      1  0.5392230000000  0.4238240000000  0.4913250000000 1.0
C      1  0.5250100000000  0.4932850000000  0.5110400000000 1.0
C      1  0.5109760000000  0.4694460000000  0.4495650000000 1.0
C      1  0.4833690000000  0.4790760000000  0.4113370000000 1.0
C      1  0.5689910000000  0.5435240000000  0.5334250000000 1.0
C      1  0.4284230000000  0.5225670000000  0.5256100000000 1.0
C      1  0.4873890000000  0.4854470000000  0.4713070000000 1.0
C      1  0.4750500000000  0.5168370000000  0.5847650000000 1.0
C      1  0.5604470000000  0.4391370000000  0.5052670000000 1.0
C      1  0.5609750000000  0.5375110000000  0.5603150000000 1.0
C      1  0.5726060000000  0.5064710000000  0.4733240000000 1.0
C      1  0.4538990000000  0.5614690000000  0.4625530000000 1.0
C      1  0.4480500000000  0.4362870000000  0.5078290000000 1.0
C      1  0.5722890000000  0.4592620000000  0.4871670000000 1.0
C      1  0.5249550000000  0.4018370000000  0.5019350000000 1.0
C      1  0.4959840000000  0.4418880000000  0.4998890000000 1.0
C      1  0.4774700000000  0.4043610000000  0.4868000000000 1.0
C      1  0.4642780000000  0.5257470000000  0.5588820000000 1.0
C      1  0.5087190000000  0.4537300000000  0.5478850000000 1.0
C      1  0.5002410000000  0.5392190000000  0.5070960000000 1.0
C      1  0.5559310000000  0.4536980000000  0.4624720000000 1.0
C      1  0.5004780000000  0.5542080000000  0.4433870000000 1.0
C      1  0.4999450000000  0.5784430000000  0.4863220000000 1.0
C      1  0.4604310000000  0.5203020000000  0.4945480000000 1.0
C      1  0.5456540000000  0.5018960000000  0.4622220000000 1.0
C      1  0.5282670000000  0.5635050000000  0.4488720000000 1.0
C      1  0.5372960000000  0.5211570000000  0.5551200000000 1.0
C      1  0.5407450000000  0.5479510000000  0.4921070000000 1.0
C      1  0.4850010000000  0.5331200000000  0.4840200000000 1.0
C      1  0.4970600000000  0.5528470000000  0.5717230000000 1.0
C      1  0.5675930000000  0.5369400000000  0.4787730000000 1.0
C      1  0.5533660000000  0.4501060000000  0.5301100000000 1.0
C      1  0.4375010000000  0.5152850000000  0.5525590000000 1.0
C      1  0.5181650000000  0.4567600000000  0.5742770000000 1.0
C      1  0.5117220000000  0.4830070000000  0.5812560000000 1.0
C      1  0.4795920000000  0.4557810000000  0.5427570000000 1.0
C      1  0.4991650000000  0.4120670000000  0.5060320000000 1.0
C      1  0.4585130000000  0.4501050000000  0.4626070000000 1.0
C      1  0.5444750000000  0.5066660000000  0.5291120000000 1.0
C      1  0.4833300000000  0.4901150000000  0.5778520000000 1.0
C      1  0.4698780000000  0.5551080000000  0.5567700000000 1.0
C      1  0.5308540000000  0.5030030000000  0.5767390000000 1.0
C      1  0.4973080000000  0.5248320000000  0.4398520000000 1.0
C      1  0.4387050000000  0.4520000000000  0.4854680000000 1.0
C      1  0.5091020000000  0.4820580000000  0.4218760000000 1.0
C      1  0.4760190000000  0.4864510000000  0.5024120000000 1.0
C      1  0.5270490000000  0.4596940000000  0.5253690000000 1.0
C      1  0.5135880000000  0.5405530000000  0.5495630000000 1.0
C      1  0.4479730000000  0.5432020000000  0.5113330000000 1.0
C      1  0.5773650000000  0.4879730000000  0.4948330000000 1.0
C      1  0.5089060000000  0.4392330000000  0.4519550000000 1.0
C      1  0.4689840000000  0.5622960000000  0.5277970000000 1.0
C      1  0.5439630000000  0.5168240000000  0.4363870000000 1.0
C      1  0.4973060000000  0.4973550000000  0.5211690000000 1.0
C      1  0.4978490000000  0.5675150000000  0.5149440000000 1.0
C      1  0.5266730000000  0.5128470000000  0.4834340000000 1.0
C      1  0.4383530000000  0.5216760000000  0.4723370000000 1.0
C      1  0.5177050000000  0.5113150000000  0.4226410000000 1.0
C      1  0.4373200000000  0.5579910000000  0.4871100000000 1.0
C      1  0.4334840000000  0.4798820000000  0.4927470000000 1.0
C      1  0.5279740000000  0.5718060000000  0.4771010000000 1.0
C      1  0.4636110000000  0.4910760000000  0.4271090000000 1.0
C      1  0.5500810000000  0.5440520000000  0.4460430000000 1.0
C      1  0.5668140000000  0.5197900000000  0.5142810000000 1.0
C      1  0.5481550000000  0.5596480000000  0.5191460000000 1.0
C      1  0.4375070000000  0.4930650000000  0.4681730000000 1.0
C      1  0.4922880000000  0.5248010000000  0.5315870000000 1.0
C      1  0.4845420000000  0.4339600000000  0.4704630000000 1.0
C      1  0.4837050000000  0.5594200000000  0.4681350000000 1.0
C      1  0.4730900000000  0.4551190000000  0.5135370000000 1.0
C      1  0.4528810000000  0.4096250000000  0.4992730000000 1.0
C      1  0.4946010000000  0.5352600000000  0.5939730000000 1.0
C      1  0.5231370000000  0.5654690000000  0.5341760000000 1.0
C      1  0.5380150000000  0.4749090000000  0.4580480000000 1.0
C      1  0.4653300000000  0.4751850000000  0.5595110000000 1.0
C      1  0.4475130000000  0.5356570000000  0.4467450000000 1.0
C      1  0.4687180000000  0.5203830000000  0.4304880000000 1.0
END
