TITL C-950522-5749-685 -2.47643759193685e-06 125000 -891.692000743898 0 0 142 (C1) n - 1
REM
REM in /home/bkarasulu/work/CARBON/AIRSS/Generating-Clusters/EDIP-Nigel-Params/with-SteepDescent/Only-C1/SD-CG/HFTN-CG
REM
REM
REM
REM
REM
REM ./C.cell (11c1c37f851c82e70ff6c80c92926a4b)
REM
REM compiler GCC version 9.2.1 20190827 (Red Hat 9.2.1-1)
REM options -cpp -mtune=generic -march=x86-64 -g -O0 -fpre-include=/usr/include/finclude/math-vector-fortran.h
REM seed 433538712 21782596 -1182121489 -1351370160 -272305037 756707612 492295714 858979588 510996146 -914481433 -1951083180 -565604798 2096876269 -1107036250 -1391086277 -1409836770 -2026280305 -384243390 1841913931 -1938501591 1781695109 -1349922394 1033385056 2017320163 2026677460 1154748927 975596406 1254386489 -1720377802 1889263756 -1763533653 604956130 -546778295
REM
CELL 1.54180   50.00000   50.00000   50.00000   90.00000   90.00000   90.00000
LATT -1
SFAC C  
C      1  0.5539350000000  0.5274790000000  0.5544330000000 1.0
C      1  0.5629070000000  0.4439940000000  0.4531010000000 1.0
C      1  0.4910390000000  0.4718390000000  0.4527820000000 1.0
C      1  0.4666460000000  0.4308530000000  0.4349420000000 1.0
C      1  0.4365830000000  0.4462410000000  0.5645220000000 1.0
C      1  0.5195240000000  0.4193270000000  0.5649140000000 1.0
C      1  0.5639520000000  0.5983970000000  0.4839940000000 1.0
C      1  0.4236140000000  0.5304560000000  0.4727460000000 1.0
C      1  0.5162430000000  0.5342490000000  0.5254290000000 1.0
C      1  0.5038840000000  0.5112770000000  0.5651170000000 1.0
C      1  0.4027200000000  0.4738380000000  0.5471850000000 1.0
C      1  0.5152910000000  0.4119640000000  0.4695830000000 1.0
C      1  0.5819570000000  0.5868520000000  0.5025040000000 1.0
C      1  0.5541690000000  0.4745570000000  0.4955700000000 1.0
C      1  0.4534690000000  0.4727290000000  0.4293540000000 1.0
C      1  0.5614510000000  0.4349770000000  0.5556850000000 1.0
C      1  0.4653730000000  0.5914840000000  0.4737680000000 1.0
C      1  0.5253880000000  0.4393880000000  0.5862950000000 1.0
C      1  0.4620600000000  0.5536520000000  0.4443110000000 1.0
C      1  0.5329460000000  0.4837970000000  0.4428750000000 1.0
C      1  0.4782390000000  0.4583150000000  0.4976510000000 1.0
C      1  0.5064910000000  0.5601630000000  0.5187350000000 1.0
C      1  0.4344340000000  0.5123630000000  0.5317760000000 1.0
C      1  0.5840320000000  0.4623960000000  0.4458470000000 1.0
C      1  0.4098140000000  0.5270800000000  0.4987390000000 1.0
C      1  0.4856140000000  0.4052290000000  0.5037620000000 1.0
C      1  0.4967140000000  0.4891080000000  0.4087970000000 1.0
C      1  0.5369480000000  0.4087830000000  0.5126850000000 1.0
C      1  0.4681220000000  0.4748470000000  0.5201950000000 1.0
C      1  0.5405840000000  0.5030000000000  0.4638870000000 1.0
C      1  0.4721870000000  0.5153740000000  0.5626620000000 1.0
C      1  0.5129940000000  0.5999220000000  0.4781320000000 1.0
C      1  0.4612800000000  0.5084510000000  0.4792410000000 1.0
C      1  0.5253500000000  0.4442280000000  0.4066900000000 1.0
C      1  0.4488210000000  0.4810810000000  0.4606350000000 1.0
C      1  0.4676200000000  0.4153730000000  0.5456000000000 1.0
C      1  0.5436700000000  0.4122200000000  0.5491500000000 1.0
C      1  0.5682800000000  0.5476020000000  0.4408960000000 1.0
C      1  0.4904270000000  0.4812690000000  0.5954450000000 1.0
C      1  0.4698480000000  0.5422790000000  0.4162180000000 1.0
C      1  0.5342090000000  0.5200510000000  0.5088690000000 1.0
C      1  0.3970150000000  0.5005980000000  0.5032470000000 1.0
C      1  0.4285920000000  0.5177470000000  0.4273580000000 1.0
C      1  0.5723360000000  0.4579790000000  0.5132910000000 1.0
C      1  0.5583840000000  0.4976190000000  0.5464510000000 1.0
C      1  0.5326520000000  0.5856680000000  0.5540460000000 1.0
C      1  0.4861350000000  0.5657060000000  0.5389980000000 1.0
C      1  0.4629510000000  0.4151820000000  0.5178050000000 1.0
C      1  0.4192640000000  0.4848870000000  0.4616770000000 1.0
C      1  0.5505440000000  0.4524420000000  0.5784240000000 1.0
C      1  0.4172640000000  0.4364260000000  0.5168450000000 1.0
C      1  0.5124000000000  0.5141300000000  0.3990440000000 1.0
C      1  0.4219060000000  0.4534390000000  0.5401070000000 1.0
C      1  0.4158040000000  0.5123800000000  0.4518340000000 1.0
C      1  0.4405720000000  0.4915590000000  0.5067220000000 1.0
C      1  0.5380360000000  0.5527940000000  0.5893940000000 1.0
C      1  0.4578960000000  0.5357100000000  0.5796780000000 1.0
C      1  0.5014610000000  0.5233920000000  0.4442420000000 1.0
C      1  0.4949900000000  0.5621920000000  0.4916030000000 1.0
C      1  0.4938400000000  0.5013790000000  0.4888650000000 1.0
C      1  0.4641370000000  0.5198840000000  0.5336380000000 1.0
C      1  0.5023910000000  0.4602840000000  0.4006560000000 1.0
C      1  0.5244730000000  0.4498210000000  0.5227090000000 1.0
C      1  0.5960880000000  0.5349230000000  0.5246120000000 1.0
C      1  0.4770970000000  0.5801690000000  0.4493220000000 1.0
C      1  0.4647350000000  0.4391230000000  0.5610320000000 1.0
C      1  0.5882200000000  0.4923450000000  0.5440740000000 1.0
C      1  0.5003410000000  0.5363840000000  0.4165110000000 1.0
C      1  0.4989730000000  0.4717690000000  0.4815470000000 1.0
C      1  0.4351780000000  0.4165700000000  0.4759670000000 1.0
C      1  0.4662110000000  0.4921860000000  0.4104760000000 1.0
C      1  0.4367830000000  0.5603960000000  0.5297900000000 1.0
C      1  0.5193370000000  0.4373370000000  0.4339720000000 1.0
C      1  0.5806470000000  0.5317830000000  0.4630560000000 1.0
C      1  0.5506550000000  0.4872550000000  0.4185110000000 1.0
C      1  0.4364350000000  0.4162020000000  0.5059670000000 1.0
C      1  0.5391440000000  0.5026120000000  0.5930170000000 1.0
C      1  0.5767240000000  0.4887480000000  0.4335650000000 1.0
C      1  0.4786810000000  0.4645510000000  0.5499510000000 1.0
C      1  0.4123670000000  0.4331650000000  0.4712390000000 1.0
C      1  0.5050990000000  0.4576080000000  0.5929830000000 1.0
C      1  0.5940070000000  0.5242720000000  0.4970560000000 1.0
C      1  0.5274970000000  0.4563950000000  0.4852890000000 1.0
C      1  0.4623330000000  0.4266330000000  0.4645830000000 1.0
C      1  0.4638290000000  0.5489170000000  0.5246440000000 1.0
C      1  0.5722550000000  0.5482560000000  0.5350560000000 1.0
C      1  0.4910970000000  0.4487590000000  0.4335450000000 1.0
C      1  0.4681270000000  0.4836550000000  0.5734230000000 1.0
C      1  0.5425690000000  0.5127500000000  0.4053880000000 1.0
C      1  0.4581160000000  0.4545320000000  0.4769200000000 1.0
C      1  0.4530540000000  0.5183610000000  0.4133930000000 1.0
C      1  0.5412620000000  0.5859390000000  0.5273250000000 1.0
C      1  0.5520390000000  0.5704820000000  0.4511180000000 1.0
C      1  0.5089760000000  0.4085520000000  0.5216190000000 1.0
C      1  0.5034120000000  0.4300040000000  0.5421880000000 1.0
C      1  0.6039140000000  0.5154880000000  0.5434500000000 1.0
C      1  0.5680320000000  0.5755400000000  0.5245090000000 1.0
C      1  0.5353300000000  0.4543190000000  0.4534250000000 1.0
C      1  0.4392720000000  0.4710190000000  0.5803660000000 1.0
C      1  0.5047760000000  0.4925330000000  0.4379210000000 1.0
C      1  0.4142100000000  0.4798300000000  0.4907320000000 1.0
C      1  0.5991410000000  0.4952930000000  0.4954510000000 1.0
C      1  0.4477060000000  0.4459390000000  0.4212150000000 1.0
C      1  0.5215340000000  0.5171110000000  0.4833430000000 1.0
C      1  0.5421150000000  0.4821160000000  0.5697210000000 1.0
C      1  0.4145430000000  0.5435280000000  0.5222560000000 1.0
C      1  0.4675130000000  0.5489120000000  0.4937220000000 1.0
C      1  0.5695470000000  0.5044680000000  0.4590800000000 1.0
C      1  0.4761250000000  0.5305990000000  0.4600000000000 1.0
C      1  0.4150960000000  0.4862230000000  0.5707670000000 1.0
C      1  0.5526500000000  0.5289490000000  0.5847970000000 1.0
C      1  0.4352290000000  0.5551760000000  0.4621000000000 1.0
C      1  0.4821040000000  0.5013680000000  0.5172940000000 1.0
C      1  0.4329450000000  0.5258950000000  0.5855140000000 1.0
C      1  0.4874960000000  0.5985610000000  0.4918120000000 1.0
C      1  0.5947600000000  0.4768560000000  0.5197020000000 1.0
C      1  0.5059350000000  0.5840780000000  0.4541720000000 1.0
C      1  0.5789570000000  0.4834850000000  0.4775400000000 1.0
C      1  0.5406930000000  0.5611350000000  0.4773270000000 1.0
C      1  0.5221180000000  0.5330370000000  0.5530450000000 1.0
C      1  0.5394750000000  0.4138460000000  0.4839430000000 1.0
C      1  0.5217570000000  0.5707900000000  0.5749600000000 1.0
C      1  0.5533360000000  0.4527950000000  0.5342940000000 1.0
C      1  0.5685280000000  0.5939950000000  0.4566160000000 1.0
C      1  0.5152750000000  0.5455910000000  0.4735660000000 1.0
C      1  0.5171000000000  0.5597830000000  0.4158330000000 1.0
C      1  0.5555860000000  0.5339590000000  0.4195200000000 1.0
C      1  0.5178320000000  0.4784810000000  0.5280620000000 1.0
C      1  0.4971550000000  0.5591980000000  0.5655400000000 1.0
C      1  0.5089210000000  0.5063260000000  0.5947270000000 1.0
C      1  0.5125300000000  0.4818370000000  0.5570610000000 1.0
C      1  0.4060470000000  0.4499280000000  0.4935080000000 1.0
C      1  0.4240730000000  0.5122420000000  0.5626020000000 1.0
C      1  0.4546330000000  0.5620980000000  0.5702530000000 1.0
C      1  0.5268610000000  0.5771860000000  0.4351600000000 1.0
C      1  0.4360210000000  0.5740190000000  0.5541250000000 1.0
C      1  0.5632370000000  0.4226490000000  0.4713680000000 1.0
C      1  0.4478750000000  0.5698670000000  0.4841260000000 1.0
C      1  0.5372810000000  0.5874330000000  0.4923790000000 1.0
C      1  0.3915310000000  0.4925140000000  0.5293360000000 1.0
C      1  0.4877380000000  0.4117870000000  0.4759990000000 1.0
C      1  0.5423070000000  0.4938870000000  0.5192690000000 1.0
END
