TITL C-950530-3293-333 -3.84726311362916e-06 125000 -806.79338504294 0 0 131 (C1) n - 1
REM
REM in /home/bkarasulu/work/CARBON/AIRSS/Generating-Clusters/EDIP-Nigel-Params/with-SteepDescent/Only-C1/SD-CG/HFTN-CG
REM
REM
REM
REM
REM
REM ./C.cell (11c1c37f851c82e70ff6c80c92926a4b)
REM
REM compiler GCC version 9.2.1 20190827 (Red Hat 9.2.1-1)
REM options -cpp -mtune=generic -march=x86-64 -g -O0 -fpre-include=/usr/include/finclude/math-vector-fortran.h
REM seed 452133569 -699115938 2018173141 1093919528 1417149795 1851883527 -571956409 1526224041 -843511440 260078211 2001407757 -124959438 2045361073 1396716986 -1440342101 1911116818 -1340689713 -554306485 -2079144757 -579345652 1949175039 495544 -1267298928 2075245603 -1557039648 -1091575755 -754221289 1330680528 1445513668 493162488 609015210 -2144278650 809828641
REM
CELL 1.54180   50.00000   50.00000   50.00000   90.00000   90.00000   90.00000
LATT -1
SFAC C  
C      1  0.5836740000000  0.4470320000000  0.4890810000000 1.0
C      1  0.4533330000000  0.4852290000000  0.4185340000000 1.0
C      1  0.5463030000000  0.4237420000000  0.4467570000000 1.0
C      1  0.4510600000000  0.4395470000000  0.5122700000000 1.0
C      1  0.4840020000000  0.4189490000000  0.5451850000000 1.0
C      1  0.5049830000000  0.5613580000000  0.4781600000000 1.0
C      1  0.5822830000000  0.5163800000000  0.5693550000000 1.0
C      1  0.5065200000000  0.5328460000000  0.5900890000000 1.0
C      1  0.4035900000000  0.5030350000000  0.5305660000000 1.0
C      1  0.5803010000000  0.4712020000000  0.4438080000000 1.0
C      1  0.4714080000000  0.4884960000000  0.5839770000000 1.0
C      1  0.5610650000000  0.4631610000000  0.4218850000000 1.0
C      1  0.5785540000000  0.5003130000000  0.4520370000000 1.0
C      1  0.5237750000000  0.4101530000000  0.5149320000000 1.0
C      1  0.5529580000000  0.4170480000000  0.5201030000000 1.0
C      1  0.4774860000000  0.5131560000000  0.4718700000000 1.0
C      1  0.4685290000000  0.5850180000000  0.5031730000000 1.0
C      1  0.4434930000000  0.5566350000000  0.4446110000000 1.0
C      1  0.5926310000000  0.5145510000000  0.5321530000000 1.0
C      1  0.4442620000000  0.4924780000000  0.5685090000000 1.0
C      1  0.5165130000000  0.5753450000000  0.4325550000000 1.0
C      1  0.5409650000000  0.4261830000000  0.4749580000000 1.0
C      1  0.4802060000000  0.5378990000000  0.4161910000000 1.0
C      1  0.5458040000000  0.5330370000000  0.4236180000000 1.0
C      1  0.4844310000000  0.5745740000000  0.5511160000000 1.0
C      1  0.5654860000000  0.5115590000000  0.4201240000000 1.0
C      1  0.4950440000000  0.4705660000000  0.4459160000000 1.0
C      1  0.4759760000000  0.4228190000000  0.5081130000000 1.0
C      1  0.5162970000000  0.5916230000000  0.5126200000000 1.0
C      1  0.5184220000000  0.4085930000000  0.4836320000000 1.0
C      1  0.4784150000000  0.4879330000000  0.4039580000000 1.0
C      1  0.4897800000000  0.5846350000000  0.5233870000000 1.0
C      1  0.4175620000000  0.5240890000000  0.5470980000000 1.0
C      1  0.5041390000000  0.4697570000000  0.5907140000000 1.0
C      1  0.4120830000000  0.4573450000000  0.5029570000000 1.0
C      1  0.4307070000000  0.5204060000000  0.5742430000000 1.0
C      1  0.4812570000000  0.5202880000000  0.5770650000000 1.0
C      1  0.5626370000000  0.4919790000000  0.5399390000000 1.0
C      1  0.4910980000000  0.4227200000000  0.4298660000000 1.0
C      1  0.5110980000000  0.4393400000000  0.4156290000000 1.0
C      1  0.5268880000000  0.4971020000000  0.5057520000000 1.0
C      1  0.5210950000000  0.5186690000000  0.4340280000000 1.0
C      1  0.4857490000000  0.5157330000000  0.5447470000000 1.0
C      1  0.4274970000000  0.4677480000000  0.5576940000000 1.0
C      1  0.4035390000000  0.5467200000000  0.5082210000000 1.0
C      1  0.4450790000000  0.5669040000000  0.5098720000000 1.0
C      1  0.5522090000000  0.5795720000000  0.5482860000000 1.0
C      1  0.5421680000000  0.5842430000000  0.5222360000000 1.0
C      1  0.4222520000000  0.5621900000000  0.4899420000000 1.0
C      1  0.5047540000000  0.4717640000000  0.5455590000000 1.0
C      1  0.5309480000000  0.4385250000000  0.5576620000000 1.0
C      1  0.5337780000000  0.5258380000000  0.5762460000000 1.0
C      1  0.4923250000000  0.4175710000000  0.4676870000000 1.0
C      1  0.4118940000000  0.5510470000000  0.5374950000000 1.0
C      1  0.4764590000000  0.4525170000000  0.4605940000000 1.0
C      1  0.5959580000000  0.5075670000000  0.4784800000000 1.0
C      1  0.4645360000000  0.4655760000000  0.5217830000000 1.0
C      1  0.4642780000000  0.5387520000000  0.4791590000000 1.0
C      1  0.4937860000000  0.5623950000000  0.4229200000000 1.0
C      1  0.4489970000000  0.4971140000000  0.4739740000000 1.0
C      1  0.4843030000000  0.5403820000000  0.5248110000000 1.0
C      1  0.4581650000000  0.5394170000000  0.5084350000000 1.0
C      1  0.5521610000000  0.4874880000000  0.4079870000000 1.0
C      1  0.5407760000000  0.5096030000000  0.5285760000000 1.0
C      1  0.4264970000000  0.4974190000000  0.4518460000000 1.0
C      1  0.5075120000000  0.5164180000000  0.4836570000000 1.0
C      1  0.4289070000000  0.4519360000000  0.4758810000000 1.0
C      1  0.4702110000000  0.4381690000000  0.5621520000000 1.0
C      1  0.5910300000000  0.4961840000000  0.5060060000000 1.0
C      1  0.4393980000000  0.5089130000000  0.4273850000000 1.0
C      1  0.5710620000000  0.4590970000000  0.4670440000000 1.0
C      1  0.4457960000000  0.4890800000000  0.5208840000000 1.0
C      1  0.4996810000000  0.4685890000000  0.4146350000000 1.0
C      1  0.5526900000000  0.5032680000000  0.4697060000000 1.0
C      1  0.5556350000000  0.4384060000000  0.5411320000000 1.0
C      1  0.4383390000000  0.5100110000000  0.5004450000000 1.0
C      1  0.4760590000000  0.4656890000000  0.5529030000000 1.0
C      1  0.5365430000000  0.4472700000000  0.4330610000000 1.0
C      1  0.4550320000000  0.5339760000000  0.4297850000000 1.0
C      1  0.5194410000000  0.5548990000000  0.5339200000000 1.0
C      1  0.5468850000000  0.4765720000000  0.4918980000000 1.0
C      1  0.5049660000000  0.4849560000000  0.5202190000000 1.0
C      1  0.5100360000000  0.4290960000000  0.5352610000000 1.0
C      1  0.5053620000000  0.5730310000000  0.5712870000000 1.0
C      1  0.4114610000000  0.4344470000000  0.5195620000000 1.0
C      1  0.4405810000000  0.4599600000000  0.4264770000000 1.0
C      1  0.5453800000000  0.5336810000000  0.4704210000000 1.0
C      1  0.5319310000000  0.5752980000000  0.4809760000000 1.0
C      1  0.4343070000000  0.4255290000000  0.5335560000000 1.0
C      1  0.4192940000000  0.4772030000000  0.5289720000000 1.0
C      1  0.5853900000000  0.4669900000000  0.5109820000000 1.0
C      1  0.4567840000000  0.5037470000000  0.5431830000000 1.0
C      1  0.5384560000000  0.5753340000000  0.4503070000000 1.0
C      1  0.4650680000000  0.4351560000000  0.4380710000000 1.0
C      1  0.4625030000000  0.5753220000000  0.4547960000000 1.0
C      1  0.4361430000000  0.5683540000000  0.5382260000000 1.0
C      1  0.4078330000000  0.5166940000000  0.5041720000000 1.0
C      1  0.4944620000000  0.5139810000000  0.4058210000000 1.0
C      1  0.5641970000000  0.4640830000000  0.5297320000000 1.0
C      1  0.5275760000000  0.4536270000000  0.4811370000000 1.0
C      1  0.4399940000000  0.4396000000000  0.5590180000000 1.0
C      1  0.4348510000000  0.5439970000000  0.4696250000000 1.0
C      1  0.5650390000000  0.5534750000000  0.5490040000000 1.0
C      1  0.5021600000000  0.5597190000000  0.5955310000000 1.0
C      1  0.4662670000000  0.4115740000000  0.4818150000000 1.0
C      1  0.5111860000000  0.4888020000000  0.5680390000000 1.0
C      1  0.5232360000000  0.5256090000000  0.5466210000000 1.0
C      1  0.5226390000000  0.4871240000000  0.4055160000000 1.0
C      1  0.4541160000000  0.4671070000000  0.4775040000000 1.0
C      1  0.4211330000000  0.4670310000000  0.4481960000000 1.0
C      1  0.5056470000000  0.5396600000000  0.4523260000000 1.0
C      1  0.4588290000000  0.5598590000000  0.5555350000000 1.0
C      1  0.5949340000000  0.5349850000000  0.4835410000000 1.0
C      1  0.5012750000000  0.4452750000000  0.5004770000000 1.0
C      1  0.5652490000000  0.4231780000000  0.4933290000000 1.0
C      1  0.5844220000000  0.5436020000000  0.5288330000000 1.0
C      1  0.5665960000000  0.4916900000000  0.5693350000000 1.0
C      1  0.5527620000000  0.5496150000000  0.4468850000000 1.0
C      1  0.5306490000000  0.5823010000000  0.5654710000000 1.0
C      1  0.5299600000000  0.4557820000000  0.5831200000000 1.0
C      1  0.5792260000000  0.5511120000000  0.5006960000000 1.0
C      1  0.4555760000000  0.5388600000000  0.5772190000000 1.0
C      1  0.5498200000000  0.5513170000000  0.4937680000000 1.0
C      1  0.5307590000000  0.4958610000000  0.4524760000000 1.0
C      1  0.4879390000000  0.4703410000000  0.5045180000000 1.0
C      1  0.5630780000000  0.5381380000000  0.5735600000000 1.0
C      1  0.5228280000000  0.4668280000000  0.4537400000000 1.0
C      1  0.5406100000000  0.4934140000000  0.5835890000000 1.0
C      1  0.4804400000000  0.5798670000000  0.4765470000000 1.0
C      1  0.5071500000000  0.5417820000000  0.5018160000000 1.0
C      1  0.4414610000000  0.4246540000000  0.4739510000000 1.0
END
