TITL C-951334-9093-659 -3.84409160662067e-07 125000 -431.522679348386 0 0 70 (C1) n - 1
REM
REM in /home/bkarasulu/work/CARBON/AIRSS/Generating-Clusters/EDIP-Nigel-Params/with-SteepDescent/Only-C1/SD-CG/HFTN-CG
REM
REM
REM
REM
REM
REM ./C.cell (11c1c37f851c82e70ff6c80c92926a4b)
REM
REM compiler GCC version 9.2.1 20190827 (Red Hat 9.2.1-1)
REM options -cpp -mtune=generic -march=x86-64 -g -O0 -fpre-include=/usr/include/finclude/math-vector-fortran.h
REM seed 1265727787 -832713117 1589836105 1377255954 -1603720067 -1772804269 -1494112512 186707 -362228327 -1758282410 -1554726506 -74324799 1424216334 -2006233155 -324014104 -298870484 921016098 1561335101 -30255448 1535727529 790104507 -1271190114 -1002465357 1143252739 -1088279924 1606360381 -2096049432 -1832761750 89399323 1158908991 -992189427 1420220475 -665517516
REM
CELL 1.54180   50.00000   50.00000   50.00000   90.00000   90.00000   90.00000
LATT -1
SFAC C  
C      1  0.5229500000000  0.5188330000000  0.4801220000000 1.0
C      1  0.5192760000000  0.4218980000000  0.4669310000000 1.0
C      1  0.5405230000000  0.4984150000000  0.4960230000000 1.0
C      1  0.5639480000000  0.5007690000000  0.4574290000000 1.0
C      1  0.4271080000000  0.5363800000000  0.5017000000000 1.0
C      1  0.4137570000000  0.4918940000000  0.4958930000000 1.0
C      1  0.4501530000000  0.4806020000000  0.4577890000000 1.0
C      1  0.4442810000000  0.4568890000000  0.4713750000000 1.0
C      1  0.5111380000000  0.4680240000000  0.5729270000000 1.0
C      1  0.5374430000000  0.4652610000000  0.4309910000000 1.0
C      1  0.5281850000000  0.5793910000000  0.4875910000000 1.0
C      1  0.4790580000000  0.5096660000000  0.4320980000000 1.0
C      1  0.5429540000000  0.4520170000000  0.5306510000000 1.0
C      1  0.5506700000000  0.5250910000000  0.4454490000000 1.0
C      1  0.4958460000000  0.4372460000000  0.4640290000000 1.0
C      1  0.5034090000000  0.5104280000000  0.5831750000000 1.0
C      1  0.5117290000000  0.5544030000000  0.5272180000000 1.0
C      1  0.5323400000000  0.5700620000000  0.5140090000000 1.0
C      1  0.5029310000000  0.5259490000000  0.4240290000000 1.0
C      1  0.4465520000000  0.5543140000000  0.5099940000000 1.0
C      1  0.5132460000000  0.5010220000000  0.4583360000000 1.0
C      1  0.4580730000000  0.5708730000000  0.4909850000000 1.0
C      1  0.5273750000000  0.4224030000000  0.4943180000000 1.0
C      1  0.5385500000000  0.5409390000000  0.4679840000000 1.0
C      1  0.5341580000000  0.5090210000000  0.5226600000000 1.0
C      1  0.5724940000000  0.5297430000000  0.5037820000000 1.0
C      1  0.5674790000000  0.4999000000000  0.5497940000000 1.0
C      1  0.5137310000000  0.4435220000000  0.5336120000000 1.0
C      1  0.5108460000000  0.5270260000000  0.5162750000000 1.0
C      1  0.4240240000000  0.4795800000000  0.5188450000000 1.0
C      1  0.5595470000000  0.5234740000000  0.5312060000000 1.0
C      1  0.4741800000000  0.4801680000000  0.4402540000000 1.0
C      1  0.4781490000000  0.5714300000000  0.4719560000000 1.0
C      1  0.5004040000000  0.4704810000000  0.4968340000000 1.0
C      1  0.4789250000000  0.5511680000000  0.4513870000000 1.0
C      1  0.5693650000000  0.5031100000000  0.4881710000000 1.0
C      1  0.5560610000000  0.5523700000000  0.4897170000000 1.0
C      1  0.5031890000000  0.4269310000000  0.5117530000000 1.0
C      1  0.4706230000000  0.4498940000000  0.5578250000000 1.0
C      1  0.4855250000000  0.5113350000000  0.5196010000000 1.0
C      1  0.4954710000000  0.4581280000000  0.4433310000000 1.0
C      1  0.4625350000000  0.5498090000000  0.5338740000000 1.0
C      1  0.4960470000000  0.4839290000000  0.5908300000000 1.0
C      1  0.4246830000000  0.5149210000000  0.4843840000000 1.0
C      1  0.5388610000000  0.4819620000000  0.4542550000000 1.0
C      1  0.4870560000000  0.4439300000000  0.4918440000000 1.0
C      1  0.4897860000000  0.4884930000000  0.4752180000000 1.0
C      1  0.4243710000000  0.4955980000000  0.5419370000000 1.0
C      1  0.4736970000000  0.5085770000000  0.4909850000000 1.0
C      1  0.4839950000000  0.5237700000000  0.5681000000000 1.0
C      1  0.4681470000000  0.5213490000000  0.5440180000000 1.0
C      1  0.5545140000000  0.5055140000000  0.5749190000000 1.0
C      1  0.5299480000000  0.5156290000000  0.4265270000000 1.0
C      1  0.5301210000000  0.4697920000000  0.4894800000000 1.0
C      1  0.4938310000000  0.4829300000000  0.5266900000000 1.0
C      1  0.5273460000000  0.5089980000000  0.5660410000000 1.0
C      1  0.4667740000000  0.4719810000000  0.5391450000000 1.0
C      1  0.4988750000000  0.5531100000000  0.4313690000000 1.0
C      1  0.4487450000000  0.4641090000000  0.5172370000000 1.0
C      1  0.5193000000000  0.4845650000000  0.5489520000000 1.0
C      1  0.4571560000000  0.4483930000000  0.4944460000000 1.0
C      1  0.5139850000000  0.4550070000000  0.4226750000000 1.0
C      1  0.5596570000000  0.4741500000000  0.5391260000000 1.0
C      1  0.4505580000000  0.5088340000000  0.4705010000000 1.0
C      1  0.4984670000000  0.4462830000000  0.5586410000000 1.0
C      1  0.4863220000000  0.5649510000000  0.5335550000000 1.0
C      1  0.4513030000000  0.4961990000000  0.5496310000000 1.0
C      1  0.5446050000000  0.4462360000000  0.5016700000000 1.0
C      1  0.4611160000000  0.5275010000000  0.4479700000000 1.0
C      1  0.5025320000000  0.5834270000000  0.4779320000000 1.0
END
