TITL C-951343-2256-677 -1.95967501895563e-06 125000 -698.174506687346 0 0 113 (C1) n - 1
REM
REM in /home/bkarasulu/work/CARBON/AIRSS/Generating-Clusters/EDIP-Nigel-Params/with-SteepDescent/Only-C1/SD-CG/HFTN-CG
REM
REM
REM
REM
REM
REM ./C.cell (11c1c37f851c82e70ff6c80c92926a4b)
REM
REM compiler GCC version 9.2.1 20190827 (Red Hat 9.2.1-1)
REM options -cpp -mtune=generic -march=x86-64 -g -O0 -fpre-include=/usr/include/finclude/math-vector-fortran.h
REM seed -299449568 -139462811 950608444 2107796560 -1964594978 2101933449 -302331470 -587939175 -1237113720 1467509143 -1763269605 1397198150 -462857953 -1710976431 -1593439100 803930864 57720283 1925011467 -684545367 -732262262 -1678617246 -837133630 1571958719 1713409182 602453357 435312589 -1100331618 1000667926 -603578444 -1009240491 526479646 -1692446038 -1099453273
REM
CELL 1.54180   50.00000   50.00000   50.00000   90.00000   90.00000   90.00000
LATT -1
SFAC C  
C      1  0.5161390000000  0.5263530000000  0.5316360000000 1.0
C      1  0.4973070000000  0.4244000000000  0.5233240000000 1.0
C      1  0.4549630000000  0.4505200000000  0.4523470000000 1.0
C      1  0.4861620000000  0.5250030000000  0.4974520000000 1.0
C      1  0.4779320000000  0.4667500000000  0.4124370000000 1.0
C      1  0.5266330000000  0.4537170000000  0.4743790000000 1.0
C      1  0.5522090000000  0.4922710000000  0.4189030000000 1.0
C      1  0.4555830000000  0.4241480000000  0.4913200000000 1.0
C      1  0.5755200000000  0.5265310000000  0.5022290000000 1.0
C      1  0.5420330000000  0.5157620000000  0.4350800000000 1.0
C      1  0.5245140000000  0.5334730000000  0.4188620000000 1.0
C      1  0.4069320000000  0.5153060000000  0.5124770000000 1.0
C      1  0.5483110000000  0.5666310000000  0.5137200000000 1.0
C      1  0.5598680000000  0.4468740000000  0.4322600000000 1.0
C      1  0.4832720000000  0.4388130000000  0.4519120000000 1.0
C      1  0.5103740000000  0.5527200000000  0.4345240000000 1.0
C      1  0.4657540000000  0.4916990000000  0.4189340000000 1.0
C      1  0.4671130000000  0.5234200000000  0.4637390000000 1.0
C      1  0.4893540000000  0.5125570000000  0.5471590000000 1.0
C      1  0.4366900000000  0.4383810000000  0.4726720000000 1.0
C      1  0.5518120000000  0.5362460000000  0.5731830000000 1.0
C      1  0.5295080000000  0.5815740000000  0.5313240000000 1.0
C      1  0.4962600000000  0.4865620000000  0.5620540000000 1.0
C      1  0.4610880000000  0.5502260000000  0.4503640000000 1.0
C      1  0.5520460000000  0.5511480000000  0.4647500000000 1.0
C      1  0.4619330000000  0.5220590000000  0.5715620000000 1.0
C      1  0.5312470000000  0.4770120000000  0.4052870000000 1.0
C      1  0.4997080000000  0.5657010000000  0.5675300000000 1.0
C      1  0.4843650000000  0.4753030000000  0.4834160000000 1.0
C      1  0.5403160000000  0.4104090000000  0.4911980000000 1.0
C      1  0.4027190000000  0.5067510000000  0.4760060000000 1.0
C      1  0.5253880000000  0.5624450000000  0.4575620000000 1.0
C      1  0.5643690000000  0.5319350000000  0.4456070000000 1.0
C      1  0.4974430000000  0.4952120000000  0.5910730000000 1.0
C      1  0.4410600000000  0.5021580000000  0.5726040000000 1.0
C      1  0.5638000000000  0.4332370000000  0.4575660000000 1.0
C      1  0.4245190000000  0.4735900000000  0.5374480000000 1.0
C      1  0.5289550000000  0.5030420000000  0.4606490000000 1.0
C      1  0.4281600000000  0.5525540000000  0.4529270000000 1.0
C      1  0.4645380000000  0.5655040000000  0.4905130000000 1.0
C      1  0.4393220000000  0.5794680000000  0.4642500000000 1.0
C      1  0.5262080000000  0.5024430000000  0.5984740000000 1.0
C      1  0.4519230000000  0.4961260000000  0.5050870000000 1.0
C      1  0.5940590000000  0.4789130000000  0.4776730000000 1.0
C      1  0.5266530000000  0.4587650000000  0.5039480000000 1.0
C      1  0.4766530000000  0.5749680000000  0.5510430000000 1.0
C      1  0.4635970000000  0.4986480000000  0.4471000000000 1.0
C      1  0.4995160000000  0.4598250000000  0.4648670000000 1.0
C      1  0.4462730000000  0.5886030000000  0.4957450000000 1.0
C      1  0.5565150000000  0.4587990000000  0.5451070000000 1.0
C      1  0.4218040000000  0.5409190000000  0.5170230000000 1.0
C      1  0.5110090000000  0.5775720000000  0.4753250000000 1.0
C      1  0.5399950000000  0.5039210000000  0.4918170000000 1.0
C      1  0.4846830000000  0.4532000000000  0.5262560000000 1.0
C      1  0.4644240000000  0.4196020000000  0.5527040000000 1.0
C      1  0.4961730000000  0.5704340000000  0.4984440000000 1.0
C      1  0.5444170000000  0.5416010000000  0.5427440000000 1.0
C      1  0.5070000000000  0.5210360000000  0.3997840000000 1.0
C      1  0.4569890000000  0.4773700000000  0.4662960000000 1.0
C      1  0.4842400000000  0.5985880000000  0.5378480000000 1.0
C      1  0.4811020000000  0.4368300000000  0.5681340000000 1.0
C      1  0.4198240000000  0.4839300000000  0.4702490000000 1.0
C      1  0.5205570000000  0.4236370000000  0.5400510000000 1.0
C      1  0.4219200000000  0.4607530000000  0.4870450000000 1.0
C      1  0.5595060000000  0.4289260000000  0.5049070000000 1.0
C      1  0.4390970000000  0.5842550000000  0.5229810000000 1.0
C      1  0.4488640000000  0.4234140000000  0.5299470000000 1.0
C      1  0.4505800000000  0.5405190000000  0.5035210000000 1.0
C      1  0.5659270000000  0.5099360000000  0.5727850000000 1.0
C      1  0.5477050000000  0.4620770000000  0.5728160000000 1.0
C      1  0.4201150000000  0.5174820000000  0.5580900000000 1.0
C      1  0.4334440000000  0.5417960000000  0.5440170000000 1.0
C      1  0.5711250000000  0.4488430000000  0.4833770000000 1.0
C      1  0.5289230000000  0.4440860000000  0.5827630000000 1.0
C      1  0.5889120000000  0.4873100000000  0.4503530000000 1.0
C      1  0.5868160000000  0.5155260000000  0.4506370000000 1.0
C      1  0.5035720000000  0.5397270000000  0.5792520000000 1.0
C      1  0.5122940000000  0.4941130000000  0.3933630000000 1.0
C      1  0.4812500000000  0.5524910000000  0.4268270000000 1.0
C      1  0.4598530000000  0.5124440000000  0.4007190000000 1.0
C      1  0.4076910000000  0.4991530000000  0.5375530000000 1.0
C      1  0.5105730000000  0.4293090000000  0.5676240000000 1.0
C      1  0.5654170000000  0.4824480000000  0.5318470000000 1.0
C      1  0.5015220000000  0.4736960000000  0.5091880000000 1.0
C      1  0.4477970000000  0.5687190000000  0.5452750000000 1.0
C      1  0.4446850000000  0.5186290000000  0.4833050000000 1.0
C      1  0.4459950000000  0.4760490000000  0.5584470000000 1.0
C      1  0.5461840000000  0.4900390000000  0.5806970000000 1.0
C      1  0.4951840000000  0.4464890000000  0.4228760000000 1.0
C      1  0.5243850000000  0.4525570000000  0.4202030000000 1.0
C      1  0.5039370000000  0.5903060000000  0.5194130000000 1.0
C      1  0.4753510000000  0.5078190000000  0.5193410000000 1.0
C      1  0.5369830000000  0.4257360000000  0.4666680000000 1.0
C      1  0.5191250000000  0.5012620000000  0.5133460000000 1.0
C      1  0.5056110000000  0.5432690000000  0.5079150000000 1.0
C      1  0.4768790000000  0.4643410000000  0.5552560000000 1.0
C      1  0.5621690000000  0.5511740000000  0.4924060000000 1.0
C      1  0.4381520000000  0.4691360000000  0.5109990000000 1.0
C      1  0.5045400000000  0.4168890000000  0.4957430000000 1.0
C      1  0.4187510000000  0.5324150000000  0.4736360000000 1.0
C      1  0.5436160000000  0.4767880000000  0.4636490000000 1.0
C      1  0.5285440000000  0.5321180000000  0.5914380000000 1.0
C      1  0.4580210000000  0.4459640000000  0.5139260000000 1.0
C      1  0.4819470000000  0.4180790000000  0.4766170000000 1.0
C      1  0.5246190000000  0.5762500000000  0.5587960000000 1.0
C      1  0.4836020000000  0.5221510000000  0.5898070000000 1.0
C      1  0.5412170000000  0.4418170000000  0.5256100000000 1.0
C      1  0.5631540000000  0.4838290000000  0.5021600000000 1.0
C      1  0.5709810000000  0.5296950000000  0.5305960000000 1.0
C      1  0.5633250000000  0.4750220000000  0.4401610000000 1.0
C      1  0.5945250000000  0.5050930000000  0.4933340000000 1.0
C      1  0.5765720000000  0.5054930000000  0.5456900000000 1.0
C      1  0.4802140000000  0.5313650000000  0.4051150000000 1.0
END
