TITL C-950529-3362-559 1.33465280125541e-06 125000 -1075.00426004893 0 0 172 (C1) n - 1
REM
REM in /home/bkarasulu/work/CARBON/AIRSS/Generating-Clusters/EDIP-Nigel-Params/with-SteepDescent/Only-C1/SD-CG/HFTN-CG
REM
REM
REM
REM
REM
REM ./C.cell (11c1c37f851c82e70ff6c80c92926a4b)
REM
REM compiler GCC version 9.2.1 20190827 (Red Hat 9.2.1-1)
REM options -cpp -mtune=generic -march=x86-64 -g -O0 -fpre-include=/usr/include/finclude/math-vector-fortran.h
REM seed 1349186222 1602950553 -1933263509 1321138331 924213374 -2108401228 -269154028 -496017001 -1948798571 233118481 -388783096 1532195057 1654707539 263528560 984037134 258759176 929837887 -908510658 -1334649665 323777315 -788295385 -772311732 -849090246 -727286144 851420248 -2132737247 1166238136 847077723 -912603534 1404342193 1703940788 140582018 -2146694843
REM
CELL 1.54180   50.00000   50.00000   50.00000   90.00000   90.00000   90.00000
LATT -1
SFAC C  
C      1  0.5053410000000  0.5809070000000  0.5693760000000 1.0
C      1  0.5786160000000  0.4935710000000  0.5640420000000 1.0
C      1  0.5206520000000  0.5099810000000  0.6124610000000 1.0
C      1  0.5001940000000  0.4934910000000  0.3987980000000 1.0
C      1  0.4325240000000  0.4266840000000  0.4600640000000 1.0
C      1  0.4794340000000  0.4922020000000  0.4717500000000 1.0
C      1  0.4947370000000  0.4206320000000  0.4837270000000 1.0
C      1  0.4083820000000  0.4571640000000  0.4289660000000 1.0
C      1  0.4784200000000  0.4478870000000  0.5885080000000 1.0
C      1  0.5621630000000  0.5136500000000  0.4530890000000 1.0
C      1  0.4556500000000  0.4571700000000  0.4138630000000 1.0
C      1  0.5182690000000  0.4339130000000  0.4681390000000 1.0
C      1  0.4569680000000  0.5337400000000  0.4042740000000 1.0
C      1  0.6059720000000  0.5109650000000  0.4808260000000 1.0
C      1  0.4800120000000  0.5403500000000  0.4708270000000 1.0
C      1  0.4498880000000  0.5103550000000  0.4452330000000 1.0
C      1  0.4855520000000  0.4983490000000  0.4236520000000 1.0
C      1  0.4370620000000  0.4203780000000  0.4317950000000 1.0
C      1  0.4292780000000  0.4184280000000  0.5239790000000 1.0
C      1  0.5263310000000  0.5492320000000  0.4664400000000 1.0
C      1  0.4558890000000  0.5394000000000  0.4537670000000 1.0
C      1  0.4281580000000  0.4893630000000  0.5155710000000 1.0
C      1  0.4354410000000  0.5637800000000  0.5507660000000 1.0
C      1  0.5132830000000  0.5612860000000  0.4913950000000 1.0
C      1  0.5660010000000  0.4090350000000  0.5227940000000 1.0
C      1  0.4812780000000  0.4612880000000  0.5624760000000 1.0
C      1  0.4772440000000  0.5795780000000  0.5662920000000 1.0
C      1  0.4118510000000  0.5041750000000  0.4379170000000 1.0
C      1  0.5520040000000  0.5025350000000  0.4008160000000 1.0
C      1  0.4882170000000  0.4934780000000  0.5038060000000 1.0
C      1  0.5061990000000  0.3986800000000  0.4978390000000 1.0
C      1  0.5164540000000  0.3967400000000  0.5235070000000 1.0
C      1  0.5571910000000  0.5300130000000  0.5241460000000 1.0
C      1  0.5875290000000  0.4738220000000  0.4192200000000 1.0
C      1  0.4704110000000  0.5025600000000  0.5333430000000 1.0
C      1  0.5421700000000  0.4529900000000  0.5154420000000 1.0
C      1  0.4957110000000  0.4031190000000  0.5433450000000 1.0
C      1  0.4148140000000  0.5531170000000  0.4501480000000 1.0
C      1  0.4775620000000  0.4922850000000  0.6083910000000 1.0
C      1  0.5067500000000  0.4459260000000  0.4204200000000 1.0
C      1  0.4410930000000  0.4876660000000  0.4661750000000 1.0
C      1  0.4732280000000  0.5164190000000  0.5859500000000 1.0
C      1  0.4689880000000  0.5607700000000  0.5853460000000 1.0
C      1  0.5755770000000  0.5433870000000  0.5708960000000 1.0
C      1  0.5399170000000  0.4119860000000  0.5321470000000 1.0
C      1  0.3888590000000  0.5427290000000  0.4985670000000 1.0
C      1  0.4159100000000  0.4837760000000  0.5827810000000 1.0
C      1  0.4432960000000  0.5244080000000  0.5841800000000 1.0
C      1  0.5374290000000  0.4805070000000  0.4738300000000 1.0
C      1  0.5797670000000  0.4706270000000  0.4653460000000 1.0
C      1  0.4517770000000  0.6044710000000  0.5029210000000 1.0
C      1  0.5258850000000  0.4938810000000  0.5328310000000 1.0
C      1  0.5072090000000  0.4845900000000  0.6129690000000 1.0
C      1  0.4124020000000  0.5539990000000  0.5080460000000 1.0
C      1  0.5190870000000  0.4615480000000  0.6004510000000 1.0
C      1  0.4733970000000  0.4101830000000  0.4636080000000 1.0
C      1  0.5936720000000  0.4714880000000  0.5518690000000 1.0
C      1  0.4462850000000  0.4053530000000  0.4750160000000 1.0
C      1  0.5967630000000  0.5369100000000  0.4684320000000 1.0
C      1  0.5285680000000  0.5196500000000  0.4021600000000 1.0
C      1  0.4790690000000  0.4274960000000  0.5337800000000 1.0
C      1  0.4607120000000  0.4672890000000  0.6015140000000 1.0
C      1  0.5986190000000  0.4620380000000  0.4453990000000 1.0
C      1  0.6039030000000  0.4762120000000  0.5231570000000 1.0
C      1  0.4582460000000  0.4748010000000  0.5447320000000 1.0
C      1  0.4132630000000  0.4432550000000  0.5162960000000 1.0
C      1  0.5352350000000  0.5318700000000  0.5559600000000 1.0
C      1  0.4029950000000  0.4772920000000  0.4472310000000 1.0
C      1  0.5020650000000  0.4393580000000  0.6021810000000 1.0
C      1  0.4085610000000  0.5258140000000  0.4576200000000 1.0
C      1  0.5455700000000  0.4626690000000  0.5877980000000 1.0
C      1  0.4920140000000  0.5521970000000  0.6013520000000 1.0
C      1  0.5156460000000  0.4679580000000  0.4005400000000 1.0
C      1  0.4817650000000  0.4407030000000  0.5049600000000 1.0
C      1  0.4781210000000  0.4634890000000  0.4607520000000 1.0
C      1  0.4422030000000  0.5528380000000  0.5780760000000 1.0
C      1  0.4869530000000  0.5126030000000  0.5576970000000 1.0
C      1  0.5743480000000  0.4462280000000  0.4802460000000 1.0
C      1  0.4661530000000  0.6112280000000  0.4679980000000 1.0
C      1  0.4573910000000  0.4839650000000  0.4031090000000 1.0
C      1  0.5861410000000  0.4528230000000  0.5100560000000 1.0
C      1  0.4040370000000  0.4973890000000  0.5290120000000 1.0
C      1  0.5161380000000  0.5080870000000  0.5568170000000 1.0
C      1  0.4560740000000  0.4530440000000  0.4978780000000 1.0
C      1  0.5428950000000  0.4514220000000  0.4851640000000 1.0
C      1  0.5213380000000  0.5422070000000  0.5131990000000 1.0
C      1  0.5829730000000  0.5655320000000  0.5019960000000 1.0
C      1  0.5467670000000  0.5118310000000  0.5981290000000 1.0
C      1  0.4102240000000  0.5192520000000  0.5469700000000 1.0
C      1  0.4781550000000  0.4378860000000  0.4157070000000 1.0
C      1  0.5192340000000  0.5996430000000  0.5526680000000 1.0
C      1  0.4381110000000  0.4617700000000  0.5197840000000 1.0
C      1  0.4537600000000  0.5300400000000  0.5217560000000 1.0
C      1  0.4498410000000  0.4561720000000  0.4694840000000 1.0
C      1  0.5278950000000  0.4239820000000  0.4231430000000 1.0
C      1  0.4490900000000  0.4264690000000  0.5445240000000 1.0
C      1  0.4660360000000  0.6022780000000  0.5272720000000 1.0
C      1  0.4551610000000  0.5788220000000  0.4333970000000 1.0
C      1  0.5535940000000  0.4425900000000  0.5682710000000 1.0
C      1  0.5100110000000  0.4133860000000  0.5671770000000 1.0
C      1  0.5692670000000  0.5025220000000  0.5113340000000 1.0
C      1  0.5148660000000  0.5098650000000  0.5094620000000 1.0
C      1  0.4376980000000  0.4435140000000  0.5644610000000 1.0
C      1  0.5548580000000  0.4022540000000  0.4575400000000 1.0
C      1  0.4261340000000  0.5415660000000  0.5327730000000 1.0
C      1  0.5639470000000  0.5571490000000  0.4361520000000 1.0
C      1  0.5053330000000  0.5370390000000  0.4017340000000 1.0
C      1  0.4331700000000  0.5761260000000  0.4530170000000 1.0
C      1  0.5843290000000  0.4295150000000  0.5288700000000 1.0
C      1  0.5400130000000  0.5676370000000  0.4467960000000 1.0
C      1  0.5497680000000  0.5372310000000  0.5830500000000 1.0
C      1  0.4627060000000  0.5756680000000  0.5404800000000 1.0
C      1  0.4288290000000  0.5025140000000  0.4893170000000 1.0
C      1  0.5691520000000  0.5592450000000  0.5465260000000 1.0
C      1  0.5763300000000  0.5031000000000  0.4186540000000 1.0
C      1  0.4316050000000  0.5513920000000  0.4851680000000 1.0
C      1  0.5172180000000  0.4639480000000  0.5279190000000 1.0
C      1  0.3908670000000  0.5216590000000  0.4802130000000 1.0
C      1  0.5031310000000  0.5347060000000  0.4530170000000 1.0
C      1  0.4432520000000  0.5081890000000  0.4146800000000 1.0
C      1  0.6000590000000  0.5051970000000  0.5126730000000 1.0
C      1  0.5058240000000  0.4557980000000  0.4495390000000 1.0
C      1  0.4298440000000  0.4443070000000  0.4165190000000 1.0
C      1  0.5202660000000  0.6152660000000  0.5095440000000 1.0
C      1  0.3961550000000  0.4714470000000  0.4757020000000 1.0
C      1  0.5017470000000  0.6114460000000  0.5317890000000 1.0
C      1  0.5788050000000  0.4456740000000  0.5532570000000 1.0
C      1  0.5411630000000  0.5951270000000  0.5115020000000 1.0
C      1  0.5556150000000  0.4339360000000  0.4238540000000 1.0
C      1  0.5035360000000  0.5984900000000  0.4413560000000 1.0
C      1  0.5284750000000  0.4114470000000  0.4505910000000 1.0
C      1  0.5711420000000  0.4207930000000  0.4438870000000 1.0
C      1  0.4982040000000  0.5509010000000  0.4272100000000 1.0
C      1  0.4948500000000  0.5268130000000  0.6161040000000 1.0
C      1  0.5144880000000  0.5686630000000  0.5939630000000 1.0
C      1  0.5401940000000  0.5597810000000  0.5978840000000 1.0
C      1  0.4665680000000  0.5520920000000  0.4273690000000 1.0
C      1  0.4996520000000  0.5026930000000  0.4496880000000 1.0
C      1  0.5596390000000  0.4883100000000  0.5860160000000 1.0
C      1  0.4396890000000  0.4680930000000  0.5797970000000 1.0
C      1  0.5165700000000  0.5751490000000  0.4301020000000 1.0
C      1  0.4725760000000  0.5538400000000  0.5205900000000 1.0
C      1  0.5184890000000  0.6156650000000  0.4583280000000 1.0
C      1  0.5159180000000  0.6042040000000  0.4835480000000 1.0
C      1  0.5256710000000  0.5555040000000  0.5394100000000 1.0
C      1  0.4010990000000  0.4473900000000  0.4904310000000 1.0
C      1  0.6005590000000  0.5282760000000  0.5331270000000 1.0
C      1  0.4454650000000  0.5263020000000  0.4937030000000 1.0
C      1  0.4812140000000  0.5262010000000  0.3898140000000 1.0
C      1  0.5603400000000  0.4765990000000  0.5272600000000 1.0
C      1  0.5442350000000  0.4745490000000  0.3981380000000 1.0
C      1  0.5366010000000  0.4205600000000  0.5593760000000 1.0
C      1  0.5899560000000  0.5203550000000  0.5598320000000 1.0
C      1  0.5401740000000  0.5828280000000  0.5387310000000 1.0
C      1  0.4742450000000  0.5995750000000  0.4429530000000 1.0
C      1  0.5961260000000  0.4323010000000  0.4511220000000 1.0
C      1  0.3907490000000  0.4951900000000  0.4929460000000 1.0
C      1  0.5328610000000  0.5062310000000  0.4871110000000 1.0
C      1  0.4419240000000  0.4056980000000  0.5024910000000 1.0
C      1  0.5914350000000  0.5568320000000  0.5274280000000 1.0
C      1  0.4583390000000  0.5850650000000  0.4816420000000 1.0
C      1  0.5018490000000  0.4460810000000  0.5490690000000 1.0
C      1  0.4977910000000  0.4652970000000  0.5072650000000 1.0
C      1  0.5749930000000  0.5410160000000  0.4896540000000 1.0
C      1  0.5468040000000  0.5293460000000  0.4753370000000 1.0
C      1  0.5211020000000  0.4811550000000  0.4504250000000 1.0
C      1  0.5781250000000  0.4976210000000  0.4749950000000 1.0
C      1  0.4817300000000  0.5621360000000  0.4918500000000 1.0
C      1  0.5811700000000  0.5347100000000  0.4415980000000 1.0
C      1  0.4233660000000  0.5081590000000  0.5707440000000 1.0
C      1  0.5640940000000  0.4578480000000  0.4104900000000 1.0
C      1  0.4670230000000  0.4167110000000  0.4335500000000 1.0
END
