TITL C-950530-3293-549 1.63698446031083e-06 125000 -792.727519843655 0 0 128 (C1) n - 1
REM
REM in /home/bkarasulu/work/CARBON/AIRSS/Generating-Clusters/EDIP-Nigel-Params/with-SteepDescent/Only-C1/SD-CG/HFTN-CG
REM
REM
REM
REM
REM
REM ./C.cell (11c1c37f851c82e70ff6c80c92926a4b)
REM
REM compiler GCC version 9.2.1 20190827 (Red Hat 9.2.1-1)
REM options -cpp -mtune=generic -march=x86-64 -g -O0 -fpre-include=/usr/include/finclude/math-vector-fortran.h
REM seed 2035996753 1736669934 -43734191 -631654966 -1257768672 -1558625882 1211327821 754607746 1589982297 -784951119 -1496355924 -1792390293 -1465604332 -2001763989 -2086673951 76568413 1188896473 1982183938 -597338738 -697433167 -752142695 -1449252817 -1868367457 -270435780 1777728495 -515292659 -276815072 1390300724 330002472 920081015 54348926 831351487 1182986793
REM
CELL 1.54180   50.00000   50.00000   50.00000   90.00000   90.00000   90.00000
LATT -1
SFAC C  
C      1  0.4162710000000  0.4869600000000  0.5278710000000 1.0
C      1  0.4844640000000  0.5128200000000  0.4178800000000 1.0
C      1  0.5589950000000  0.4097940000000  0.5188280000000 1.0
C      1  0.4608110000000  0.5912200000000  0.5334000000000 1.0
C      1  0.5597840000000  0.5604020000000  0.4554150000000 1.0
C      1  0.4409480000000  0.4612980000000  0.5924870000000 1.0
C      1  0.4329780000000  0.4437440000000  0.5296190000000 1.0
C      1  0.4372560000000  0.5279930000000  0.5849770000000 1.0
C      1  0.5616220000000  0.5108190000000  0.5685890000000 1.0
C      1  0.4989980000000  0.4876910000000  0.4233150000000 1.0
C      1  0.4840580000000  0.4481330000000  0.4931630000000 1.0
C      1  0.4651790000000  0.4477480000000  0.5881810000000 1.0
C      1  0.4656650000000  0.4854090000000  0.4612310000000 1.0
C      1  0.5071440000000  0.4270620000000  0.4232940000000 1.0
C      1  0.5240450000000  0.5067220000000  0.5978400000000 1.0
C      1  0.4411230000000  0.5453560000000  0.4398320000000 1.0
C      1  0.4347240000000  0.5210690000000  0.4568300000000 1.0
C      1  0.4883650000000  0.6076620000000  0.5030270000000 1.0
C      1  0.5513630000000  0.5752020000000  0.5258210000000 1.0
C      1  0.4803110000000  0.4261080000000  0.5140970000000 1.0
C      1  0.4920620000000  0.4740710000000  0.4508780000000 1.0
C      1  0.5321610000000  0.4399580000000  0.4237030000000 1.0
C      1  0.4897520000000  0.5314330000000  0.4662640000000 1.0
C      1  0.4196600000000  0.4638690000000  0.5471980000000 1.0
C      1  0.5117010000000  0.5958690000000  0.4635420000000 1.0
C      1  0.4985080000000  0.5232660000000  0.5333980000000 1.0
C      1  0.4361020000000  0.5474700000000  0.5633120000000 1.0
C      1  0.5697350000000  0.5717620000000  0.5017180000000 1.0
C      1  0.5022750000000  0.5584780000000  0.4701240000000 1.0
C      1  0.5379720000000  0.4997810000000  0.4099060000000 1.0
C      1  0.5796390000000  0.4822230000000  0.5270830000000 1.0
C      1  0.5899370000000  0.4600800000000  0.4784860000000 1.0
C      1  0.4556610000000  0.5102980000000  0.4171470000000 1.0
C      1  0.3953060000000  0.4834130000000  0.5080320000000 1.0
C      1  0.5505830000000  0.5011960000000  0.4373080000000 1.0
C      1  0.4259000000000  0.5371610000000  0.5027090000000 1.0
C      1  0.4962240000000  0.4686050000000  0.3992760000000 1.0
C      1  0.5335970000000  0.4623070000000  0.5642670000000 1.0
C      1  0.4666200000000  0.4208120000000  0.4481130000000 1.0
C      1  0.5301110000000  0.4445900000000  0.4818520000000 1.0
C      1  0.5392760000000  0.4598670000000  0.5078530000000 1.0
C      1  0.5703380000000  0.4828420000000  0.4760980000000 1.0
C      1  0.4671160000000  0.5214190000000  0.5916840000000 1.0
C      1  0.4309510000000  0.4762340000000  0.5713860000000 1.0
C      1  0.4643730000000  0.5763190000000  0.4725330000000 1.0
C      1  0.5542750000000  0.4439350000000  0.5534640000000 1.0
C      1  0.4563620000000  0.5644020000000  0.5245770000000 1.0
C      1  0.5754050000000  0.5076310000000  0.5426650000000 1.0
C      1  0.5292330000000  0.5356590000000  0.4186200000000 1.0
C      1  0.4141220000000  0.4684010000000  0.4647430000000 1.0
C      1  0.5261020000000  0.5797600000000  0.5098090000000 1.0
C      1  0.4719180000000  0.4379020000000  0.5610170000000 1.0
C      1  0.4881900000000  0.5442520000000  0.5902740000000 1.0
C      1  0.5397610000000  0.5612600000000  0.4329830000000 1.0
C      1  0.4960710000000  0.4190490000000  0.4501660000000 1.0
C      1  0.4994490000000  0.5382010000000  0.4147350000000 1.0
C      1  0.4911480000000  0.4623350000000  0.5926600000000 1.0
C      1  0.4613990000000  0.4413860000000  0.4277900000000 1.0
C      1  0.4956870000000  0.5376170000000  0.5096480000000 1.0
C      1  0.5038380000000  0.5956560000000  0.5232920000000 1.0
C      1  0.5118200000000  0.5431310000000  0.5532760000000 1.0
C      1  0.5853200000000  0.5077050000000  0.4640690000000 1.0
C      1  0.4971830000000  0.4797260000000  0.5257300000000 1.0
C      1  0.4435190000000  0.5355110000000  0.4131820000000 1.0
C      1  0.5779870000000  0.4161470000000  0.5008230000000 1.0
C      1  0.5107960000000  0.4214670000000  0.5346260000000 1.0
C      1  0.5780000000000  0.4330680000000  0.4782660000000 1.0
C      1  0.4202640000000  0.5169140000000  0.4817960000000 1.0
C      1  0.4863920000000  0.5597540000000  0.5624960000000 1.0
C      1  0.5396780000000  0.5075360000000  0.5084980000000 1.0
C      1  0.4191180000000  0.5362080000000  0.5320340000000 1.0
C      1  0.5706610000000  0.5420510000000  0.4987190000000 1.0
C      1  0.5136430000000  0.4460260000000  0.5802020000000 1.0
C      1  0.4085490000000  0.4900010000000  0.4841820000000 1.0
C      1  0.4894690000000  0.5630290000000  0.4279990000000 1.0
C      1  0.5319210000000  0.5125980000000  0.5375380000000 1.0
C      1  0.6125340000000  0.4643790000000  0.4944350000000 1.0
C      1  0.5794360000000  0.5056950000000  0.4364470000000 1.0
C      1  0.4519900000000  0.5520930000000  0.4972100000000 1.0
C      1  0.5756700000000  0.4588980000000  0.5436410000000 1.0
C      1  0.4991840000000  0.4290170000000  0.5607020000000 1.0
C      1  0.5143670000000  0.5016760000000  0.5684510000000 1.0
C      1  0.5424670000000  0.5319570000000  0.4912860000000 1.0
C      1  0.4854120000000  0.4425300000000  0.4099950000000 1.0
C      1  0.4738700000000  0.5282790000000  0.4917140000000 1.0
C      1  0.5539800000000  0.5499200000000  0.5420300000000 1.0
C      1  0.4286370000000  0.4516210000000  0.5024010000000 1.0
C      1  0.5411410000000  0.4246760000000  0.5346990000000 1.0
C      1  0.5577820000000  0.4838840000000  0.5046760000000 1.0
C      1  0.4697850000000  0.4756310000000  0.5382300000000 1.0
C      1  0.5473910000000  0.4887000000000  0.5834120000000 1.0
C      1  0.6054000000000  0.4805650000000  0.5147060000000 1.0
C      1  0.5176140000000  0.5360100000000  0.5939860000000 1.0
C      1  0.4542540000000  0.4209680000000  0.4747440000000 1.0
C      1  0.4363260000000  0.4535420000000  0.4244940000000 1.0
C      1  0.5019890000000  0.4421510000000  0.4700190000000 1.0
C      1  0.4667500000000  0.4948950000000  0.4907960000000 1.0
C      1  0.5511910000000  0.4503820000000  0.4410050000000 1.0
C      1  0.5744490000000  0.5334890000000  0.5286510000000 1.0
C      1  0.5516260000000  0.4334810000000  0.4646510000000 1.0
C      1  0.5336000000000  0.5942290000000  0.4841910000000 1.0
C      1  0.4448150000000  0.4969360000000  0.4423980000000 1.0
C      1  0.5472190000000  0.5376340000000  0.5693350000000 1.0
C      1  0.5145700000000  0.5771270000000  0.4380470000000 1.0
C      1  0.4598200000000  0.4338270000000  0.5354400000000 1.0
C      1  0.5126060000000  0.5131470000000  0.4650070000000 1.0
C      1  0.4671440000000  0.4069490000000  0.4964730000000 1.0
C      1  0.5140210000000  0.4842750000000  0.4702850000000 1.0
C      1  0.5258380000000  0.4755640000000  0.3985170000000 1.0
C      1  0.4917780000000  0.4774160000000  0.4972520000000 1.0
C      1  0.5179520000000  0.5522540000000  0.4966720000000 1.0
C      1  0.4124840000000  0.5111570000000  0.5445550000000 1.0
C      1  0.5208200000000  0.4641980000000  0.5325400000000 1.0
C      1  0.5823310000000  0.5354890000000  0.4720700000000 1.0
C      1  0.4864320000000  0.5881010000000  0.5464940000000 1.0
C      1  0.4480480000000  0.4825700000000  0.5147320000000 1.0
C      1  0.4664320000000  0.5010820000000  0.5659210000000 1.0
C      1  0.4248790000000  0.4749770000000  0.4385400000000 1.0
C      1  0.4229640000000  0.5047710000000  0.5715550000000 1.0
C      1  0.4846440000000  0.5978790000000  0.4770600000000 1.0
C      1  0.5377760000000  0.5237960000000  0.4547240000000 1.0
C      1  0.4912730000000  0.4826630000000  0.5693160000000 1.0
C      1  0.4703790000000  0.5193020000000  0.5423920000000 1.0
C      1  0.4649710000000  0.5622460000000  0.4464160000000 1.0
C      1  0.4302690000000  0.4371320000000  0.4781510000000 1.0
C      1  0.5461560000000  0.4768280000000  0.4559690000000 1.0
C      1  0.4615510000000  0.5471750000000  0.5481570000000 1.0
C      1  0.5590370000000  0.5819870000000  0.4759680000000 1.0
END
