TITL C-950527-2551-302 -1.42153397135113e-06 125000 -1173.88834288528 0 0 187 (C1) n - 1
REM
REM in /home/bkarasulu/work/CARBON/AIRSS/Generating-Clusters/EDIP-Nigel-Params/with-SteepDescent/Only-C1/SD-CG/HFTN-CG
REM
REM
REM
REM
REM
REM ./C.cell (11c1c37f851c82e70ff6c80c92926a4b)
REM
REM compiler GCC version 9.2.1 20190827 (Red Hat 9.2.1-1)
REM options -cpp -mtune=generic -march=x86-64 -g -O0 -fpre-include=/usr/include/finclude/math-vector-fortran.h
REM seed 1323729345 -1504579470 -459898909 336552054 1026634083 -407549162 969580067 -313421873 2054279536 1666802844 874660282 1688141371 -1601585360 1514657553 -1845788921 904184877 -1248222578 1227101617 1942155664 -1320838506 365236122 -32430259 77547561 -574789265 665001918 -678335089 -1849519674 -491742845 2103286757 -649741826 -1349215896 1075208281 404681035
REM
CELL 1.54180   50.00000   50.00000   50.00000   90.00000   90.00000   90.00000
LATT -1
SFAC C  
C      1  0.4591900000000  0.4562530000000  0.5962450000000 1.0
C      1  0.5195180000000  0.4054080000000  0.5138330000000 1.0
C      1  0.5563140000000  0.5360060000000  0.5831900000000 1.0
C      1  0.4501120000000  0.4253150000000  0.4222840000000 1.0
C      1  0.4556960000000  0.4784360000000  0.5513380000000 1.0
C      1  0.3889980000000  0.4930190000000  0.5087930000000 1.0
C      1  0.5408030000000  0.5638840000000  0.4892730000000 1.0
C      1  0.5933310000000  0.4333760000000  0.5099510000000 1.0
C      1  0.4669520000000  0.4918620000000  0.3900070000000 1.0
C      1  0.4841540000000  0.5963310000000  0.4374030000000 1.0
C      1  0.4247230000000  0.5540200000000  0.5402110000000 1.0
C      1  0.5000510000000  0.4286940000000  0.5995610000000 1.0
C      1  0.5376530000000  0.4713260000000  0.4095810000000 1.0
C      1  0.5910220000000  0.5146700000000  0.5556480000000 1.0
C      1  0.5335330000000  0.4986570000000  0.4502940000000 1.0
C      1  0.5619220000000  0.4443860000000  0.5608270000000 1.0
C      1  0.5062690000000  0.4958800000000  0.4374160000000 1.0
C      1  0.5090400000000  0.5464470000000  0.4469010000000 1.0
C      1  0.4188430000000  0.5113460000000  0.5673800000000 1.0
C      1  0.4936830000000  0.5718500000000  0.5645450000000 1.0
C      1  0.5862270000000  0.4381930000000  0.4809160000000 1.0
C      1  0.4003560000000  0.5575370000000  0.4983230000000 1.0
C      1  0.4659170000000  0.5204460000000  0.3975920000000 1.0
C      1  0.5750630000000  0.5540750000000  0.4569940000000 1.0
C      1  0.5355580000000  0.5473850000000  0.5406640000000 1.0
C      1  0.4552000000000  0.6023570000000  0.4859750000000 1.0
C      1  0.4863190000000  0.4539530000000  0.4111570000000 1.0
C      1  0.3980710000000  0.4423000000000  0.5055330000000 1.0
C      1  0.4952350000000  0.4972410000000  0.5667520000000 1.0
C      1  0.5226240000000  0.4464440000000  0.4963860000000 1.0
C      1  0.5065720000000  0.5157340000000  0.4152280000000 1.0
C      1  0.5972630000000  0.5592940000000  0.4772180000000 1.0
C      1  0.4116620000000  0.5114360000000  0.4283810000000 1.0
C      1  0.3760060000000  0.4973500000000  0.4848880000000 1.0
C      1  0.6080000000000  0.5107370000000  0.4714910000000 1.0
C      1  0.4800320000000  0.4935980000000  0.5254800000000 1.0
C      1  0.6276330000000  0.4928210000000  0.5291170000000 1.0
C      1  0.4512760000000  0.4141490000000  0.5433550000000 1.0
C      1  0.4890270000000  0.5399230000000  0.6038740000000 1.0
C      1  0.5129470000000  0.5601070000000  0.4767190000000 1.0
C      1  0.5464660000000  0.4728270000000  0.5391060000000 1.0
C      1  0.4041530000000  0.5151720000000  0.4554790000000 1.0
C      1  0.5620530000000  0.4902700000000  0.5924830000000 1.0
C      1  0.5778710000000  0.5406760000000  0.5649630000000 1.0
C      1  0.6093360000000  0.4836620000000  0.4828490000000 1.0
C      1  0.5125310000000  0.5903120000000  0.4447190000000 1.0
C      1  0.3774030000000  0.5126160000000  0.4631550000000 1.0
C      1  0.4617410000000  0.5884820000000  0.5516950000000 1.0
C      1  0.5268630000000  0.5687580000000  0.5189760000000 1.0
C      1  0.5102620000000  0.5378800000000  0.5553870000000 1.0
C      1  0.4203740000000  0.4525710000000  0.5583130000000 1.0
C      1  0.5069660000000  0.5322200000000  0.5033080000000 1.0
C      1  0.5741780000000  0.5601580000000  0.5185020000000 1.0
C      1  0.5220670000000  0.4016400000000  0.4267410000000 1.0
C      1  0.3934460000000  0.5162900000000  0.5258180000000 1.0
C      1  0.5535640000000  0.4936000000000  0.4273720000000 1.0
C      1  0.4619530000000  0.5335110000000  0.5629740000000 1.0
C      1  0.4243000000000  0.4736330000000  0.4730740000000 1.0
C      1  0.6101630000000  0.4794560000000  0.5120270000000 1.0
C      1  0.4302820000000  0.5255100000000  0.4667130000000 1.0
C      1  0.3972000000000  0.4650880000000  0.5483060000000 1.0
C      1  0.5597870000000  0.5796590000000  0.4496210000000 1.0
C      1  0.4788790000000  0.4254200000000  0.4150560000000 1.0
C      1  0.4777070000000  0.5519950000000  0.5811500000000 1.0
C      1  0.4425280000000  0.4503960000000  0.5131820000000 1.0
C      1  0.4056000000000  0.4214010000000  0.5235580000000 1.0
C      1  0.5223530000000  0.6036250000000  0.4696310000000 1.0
C      1  0.4716770000000  0.4793020000000  0.6112150000000 1.0
C      1  0.4143630000000  0.5723500000000  0.4792900000000 1.0
C      1  0.4730950000000  0.6131540000000  0.5072890000000 1.0
C      1  0.5944660000000  0.5100240000000  0.4451180000000 1.0
C      1  0.4853280000000  0.5269090000000  0.4833940000000 1.0
C      1  0.5692650000000  0.5655290000000  0.5481120000000 1.0
C      1  0.4952050000000  0.5225410000000  0.5303760000000 1.0
C      1  0.4295580000000  0.4332950000000  0.5358240000000 1.0
C      1  0.5248580000000  0.4261970000000  0.5861410000000 1.0
C      1  0.4737390000000  0.4014720000000  0.4554760000000 1.0
C      1  0.4327270000000  0.5370730000000  0.5636080000000 1.0
C      1  0.5734600000000  0.4115510000000  0.5197240000000 1.0
C      1  0.5649750000000  0.4844300000000  0.4870030000000 1.0
C      1  0.5209090000000  0.4504260000000  0.4481010000000 1.0
C      1  0.5314270000000  0.5147410000000  0.5029660000000 1.0
C      1  0.4388650000000  0.4778110000000  0.5268620000000 1.0
C      1  0.4734200000000  0.4276250000000  0.5599430000000 1.0
C      1  0.4363410000000  0.4492120000000  0.4107730000000 1.0
C      1  0.4126520000000  0.5386730000000  0.5161960000000 1.0
C      1  0.4764880000000  0.4808500000000  0.4774050000000 1.0
C      1  0.4945550000000  0.3976040000000  0.5263170000000 1.0
C      1  0.5482010000000  0.5898240000000  0.4753760000000 1.0
C      1  0.4711700000000  0.5763520000000  0.4200500000000 1.0
C      1  0.5805850000000  0.4842600000000  0.4403790000000 1.0
C      1  0.4677870000000  0.4082730000000  0.5182850000000 1.0
C      1  0.4568470000000  0.5093170000000  0.4472090000000 1.0
C      1  0.5176520000000  0.4645080000000  0.5363820000000 1.0
C      1  0.4815310000000  0.6039790000000  0.5365990000000 1.0
C      1  0.4479710000000  0.4147320000000  0.4504670000000 1.0
C      1  0.5107600000000  0.4670700000000  0.4252890000000 1.0
C      1  0.4291510000000  0.5337270000000  0.4188350000000 1.0
C      1  0.5494810000000  0.5012120000000  0.5484380000000 1.0
C      1  0.4236930000000  0.4779640000000  0.4421180000000 1.0
C      1  0.6153300000000  0.5363840000000  0.5166090000000 1.0
C      1  0.5726350000000  0.4134730000000  0.4709770000000 1.0
C      1  0.4891910000000  0.5337450000000  0.3855640000000 1.0
C      1  0.4947600000000  0.5753250000000  0.5143060000000 1.0
C      1  0.4648780000000  0.6027240000000  0.4588390000000 1.0
C      1  0.4972660000000  0.4105190000000  0.5517900000000 1.0
C      1  0.5447990000000  0.5096980000000  0.5770420000000 1.0
C      1  0.5168160000000  0.6158360000000  0.5254120000000 1.0
C      1  0.5113680000000  0.4338410000000  0.4712010000000 1.0
C      1  0.4136630000000  0.4562460000000  0.4260110000000 1.0
C      1  0.3885670000000  0.4662810000000  0.5212580000000 1.0
C      1  0.5509320000000  0.4145170000000  0.4500300000000 1.0
C      1  0.4733480000000  0.4307240000000  0.5903880000000 1.0
C      1  0.5244140000000  0.4067960000000  0.4652120000000 1.0
C      1  0.4276130000000  0.4924460000000  0.5893700000000 1.0
C      1  0.5908990000000  0.4600730000000  0.5238310000000 1.0
C      1  0.5381400000000  0.4812560000000  0.4743910000000 1.0
C      1  0.4308250000000  0.5564000000000  0.4596640000000 1.0
C      1  0.4835900000000  0.5055470000000  0.4617200000000 1.0
C      1  0.5459850000000  0.4678530000000  0.6034390000000 1.0
C      1  0.4231610000000  0.4473230000000  0.4882710000000 1.0
C      1  0.4737140000000  0.4356770000000  0.5058960000000 1.0
C      1  0.4365340000000  0.5267200000000  0.4984900000000 1.0
C      1  0.3950060000000  0.5096340000000  0.5530770000000 1.0
C      1  0.5468400000000  0.4447650000000  0.5864290000000 1.0
C      1  0.5691750000000  0.5174320000000  0.4903490000000 1.0
C      1  0.4762530000000  0.4567010000000  0.5495820000000 1.0
C      1  0.4626930000000  0.5451170000000  0.4904800000000 1.0
C      1  0.4250670000000  0.5606620000000  0.4302810000000 1.0
C      1  0.5041310000000  0.4402380000000  0.5196050000000 1.0
C      1  0.5036210000000  0.5190340000000  0.6151270000000 1.0
C      1  0.5506350000000  0.4394730000000  0.5057910000000 1.0
C      1  0.4430010000000  0.5790610000000  0.4183540000000 1.0
C      1  0.5001740000000  0.4705450000000  0.5574560000000 1.0
C      1  0.5333070000000  0.3946540000000  0.4913830000000 1.0
C      1  0.4310070000000  0.4253280000000  0.4706980000000 1.0
C      1  0.5251020000000  0.4140140000000  0.5598510000000 1.0
C      1  0.4931200000000  0.4788200000000  0.5023510000000 1.0
C      1  0.4917540000000  0.4878340000000  0.3765810000000 1.0
C      1  0.4579550000000  0.5290740000000  0.4249090000000 1.0
C      1  0.5363450000000  0.5764340000000  0.4310910000000 1.0
C      1  0.5490790000000  0.4436390000000  0.4120790000000 1.0
C      1  0.5222750000000  0.4856980000000  0.4993280000000 1.0
C      1  0.6092610000000  0.5351060000000  0.4881220000000 1.0
C      1  0.5501480000000  0.4233220000000  0.5410300000000 1.0
C      1  0.5350200000000  0.5488150000000  0.4191110000000 1.0
C      1  0.4602510000000  0.5641900000000  0.4644910000000 1.0
C      1  0.4536500000000  0.4795830000000  0.4382850000000 1.0
C      1  0.4939870000000  0.5820530000000  0.4840620000000 1.0
C      1  0.4686140000000  0.5582950000000  0.5174410000000 1.0
C      1  0.5767430000000  0.5301660000000  0.5179010000000 1.0
C      1  0.5808980000000  0.5344020000000  0.4347000000000 1.0
C      1  0.5546070000000  0.5391790000000  0.4738930000000 1.0
C      1  0.4492400000000  0.4991700000000  0.5104610000000 1.0
C      1  0.5144580000000  0.5163730000000  0.5783170000000 1.0
C      1  0.5364980000000  0.5955240000000  0.5281530000000 1.0
C      1  0.4996320000000  0.4900520000000  0.6149730000000 1.0
C      1  0.5072740000000  0.5100630000000  0.3857060000000 1.0
C      1  0.4663890000000  0.5039320000000  0.5708510000000 1.0
C      1  0.5630680000000  0.4665750000000  0.5135460000000 1.0
C      1  0.5566560000000  0.5271490000000  0.4189370000000 1.0
C      1  0.5240820000000  0.5762630000000  0.5722690000000 1.0
C      1  0.4712760000000  0.5360400000000  0.5350730000000 1.0
C      1  0.5626020000000  0.3984610000000  0.4942490000000 1.0
C      1  0.4605960000000  0.4697240000000  0.4098430000000 1.0
C      1  0.5860580000000  0.4697720000000  0.4692960000000 1.0
C      1  0.4285580000000  0.5943640000000  0.4889310000000 1.0
C      1  0.5328140000000  0.4202820000000  0.4071850000000 1.0
C      1  0.4753930000000  0.5527270000000  0.4383940000000 1.0
C      1  0.5336790000000  0.5268600000000  0.4567180000000 1.0
C      1  0.4488850000000  0.4864850000000  0.4846000000000 1.0
C      1  0.4323460000000  0.4631680000000  0.5840970000000 1.0
C      1  0.5855290000000  0.4877560000000  0.5703710000000 1.0
C      1  0.6138490000000  0.5160160000000  0.5366870000000 1.0
C      1  0.5023580000000  0.6167660000000  0.4998360000000 1.0
C      1  0.5862370000000  0.4613750000000  0.5547350000000 1.0
C      1  0.5893320000000  0.5748050000000  0.4995290000000 1.0
C      1  0.4467220000000  0.5732590000000  0.5316950000000 1.0
C      1  0.4548380000000  0.5008380000000  0.5996850000000 1.0
C      1  0.5476830000000  0.5224470000000  0.5285040000000 1.0
C      1  0.5223710000000  0.4737990000000  0.6179390000000 1.0
C      1  0.5376960000000  0.5565250000000  0.5864690000000 1.0
C      1  0.4803780000000  0.4333230000000  0.4741460000000 1.0
C      1  0.5484810000000  0.4427890000000  0.4417230000000 1.0
C      1  0.4725410000000  0.4583880000000  0.4596010000000 1.0
C      1  0.4932280000000  0.4077700000000  0.4337860000000 1.0
C      1  0.5460810000000  0.5874300000000  0.5547070000000 1.0
END
