TITL C-951333-8791-624 3.24679322055695e-07 125000 -710.842326461212 0 0 113 (C1) n - 1
REM
REM in /home/bkarasulu/work/CARBON/AIRSS/Generating-Clusters/EDIP-Nigel-Params/with-SteepDescent/Only-C1/SD-CG/HFTN-CG
REM
REM
REM
REM
REM
REM ./C.cell (11c1c37f851c82e70ff6c80c92926a4b)
REM
REM compiler GCC version 9.2.1 20190827 (Red Hat 9.2.1-1)
REM options -cpp -mtune=generic -march=x86-64 -g -O0 -fpre-include=/usr/include/finclude/math-vector-fortran.h
REM seed -776475343 486461881 -1754810895 -1131402088 -83856414 -683148466 1592093387 1076160925 -1604218798 425416134 -341912428 2054163819 -1144183014 -923878988 210039737 1510481809 1993888508 1678337254 1407273652 150590065 -1909053919 1872414889 -2008426181 -1852174099 -195812996 767446123 -19807696 -26799734 -483186777 274453407 -839500977 813895351 895070233
REM
CELL 1.54180   50.00000   50.00000   50.00000   90.00000   90.00000   90.00000
LATT -1
SFAC C  
C      1  0.5290570000000  0.4127410000000  0.5006420000000 1.0
C      1  0.4741590000000  0.4223610000000  0.5438630000000 1.0
C      1  0.5509720000000  0.5792850000000  0.4700410000000 1.0
C      1  0.5142820000000  0.4972330000000  0.4767390000000 1.0
C      1  0.4159780000000  0.4642180000000  0.5303140000000 1.0
C      1  0.5067890000000  0.4581380000000  0.4268340000000 1.0
C      1  0.4842450000000  0.4958800000000  0.5523980000000 1.0
C      1  0.4981090000000  0.4505720000000  0.4896570000000 1.0
C      1  0.4668340000000  0.4869390000000  0.4212600000000 1.0
C      1  0.4989280000000  0.5720800000000  0.5443020000000 1.0
C      1  0.4846970000000  0.5077330000000  0.4128180000000 1.0
C      1  0.3995890000000  0.4905480000000  0.4918030000000 1.0
C      1  0.5991370000000  0.5002550000000  0.4941130000000 1.0
C      1  0.5051850000000  0.5766700000000  0.5175050000000 1.0
C      1  0.5449730000000  0.5344900000000  0.4889200000000 1.0
C      1  0.5874970000000  0.4526170000000  0.4724360000000 1.0
C      1  0.5490090000000  0.5665830000000  0.5527410000000 1.0
C      1  0.5246780000000  0.4333860000000  0.5499730000000 1.0
C      1  0.4786090000000  0.5492750000000  0.5786280000000 1.0
C      1  0.4570850000000  0.5782460000000  0.5132450000000 1.0
C      1  0.5539440000000  0.4289000000000  0.4981350000000 1.0
C      1  0.5477100000000  0.4510050000000  0.5419600000000 1.0
C      1  0.4792930000000  0.5503250000000  0.5490430000000 1.0
C      1  0.4963780000000  0.5793030000000  0.4718000000000 1.0
C      1  0.4153790000000  0.4901300000000  0.5444060000000 1.0
C      1  0.4651950000000  0.4497170000000  0.4512510000000 1.0
C      1  0.4833450000000  0.5800950000000  0.4996900000000 1.0
C      1  0.5469510000000  0.4852080000000  0.4213210000000 1.0
C      1  0.5796980000000  0.5301830000000  0.4617320000000 1.0
C      1  0.5091760000000  0.5001240000000  0.4011000000000 1.0
C      1  0.4774530000000  0.4597640000000  0.4265850000000 1.0
C      1  0.4496190000000  0.5561790000000  0.4505330000000 1.0
C      1  0.4492130000000  0.4281660000000  0.5293800000000 1.0
C      1  0.4073760000000  0.5165590000000  0.5041780000000 1.0
C      1  0.4330670000000  0.4853160000000  0.4562490000000 1.0
C      1  0.4600910000000  0.5431930000000  0.4983210000000 1.0
C      1  0.5878720000000  0.4747260000000  0.5342460000000 1.0
C      1  0.5262950000000  0.5295300000000  0.5721360000000 1.0
C      1  0.5216930000000  0.5101770000000  0.4363990000000 1.0
C      1  0.4829160000000  0.5026820000000  0.4757500000000 1.0
C      1  0.5621200000000  0.4928840000000  0.5693420000000 1.0
C      1  0.4401130000000  0.4947460000000  0.4301930000000 1.0
C      1  0.5652420000000  0.4343880000000  0.4708690000000 1.0
C      1  0.4285640000000  0.5188330000000  0.4218000000000 1.0
C      1  0.5540010000000  0.5410970000000  0.5685350000000 1.0
C      1  0.4434160000000  0.4557180000000  0.5379090000000 1.0
C      1  0.4329850000000  0.4897030000000  0.5689730000000 1.0
C      1  0.5026100000000  0.4946010000000  0.5975890000000 1.0
C      1  0.5816230000000  0.4760760000000  0.4574950000000 1.0
C      1  0.5881920000000  0.5025740000000  0.4687200000000 1.0
C      1  0.5179030000000  0.5227690000000  0.5429300000000 1.0
C      1  0.5469270000000  0.4454960000000  0.4506620000000 1.0
C      1  0.4151430000000  0.5310190000000  0.4798680000000 1.0
C      1  0.5274000000000  0.5921880000000  0.4808520000000 1.0
C      1  0.5208390000000  0.5730810000000  0.5637230000000 1.0
C      1  0.4140170000000  0.4427610000000  0.4865260000000 1.0
C      1  0.4571320000000  0.4280260000000  0.4997700000000 1.0
C      1  0.4909790000000  0.4465500000000  0.5546860000000 1.0
C      1  0.5846170000000  0.4964650000000  0.5174930000000 1.0
C      1  0.5326090000000  0.5064230000000  0.5235140000000 1.0
C      1  0.4352310000000  0.4261590000000  0.4792550000000 1.0
C      1  0.5210600000000  0.4368070000000  0.4410560000000 1.0
C      1  0.4692250000000  0.4562970000000  0.4950330000000 1.0
C      1  0.5267110000000  0.5068510000000  0.5920610000000 1.0
C      1  0.5493860000000  0.4543470000000  0.5122130000000 1.0
C      1  0.5694420000000  0.5188460000000  0.5566340000000 1.0
C      1  0.4279920000000  0.5104370000000  0.5259140000000 1.0
C      1  0.5742630000000  0.5770930000000  0.4873750000000 1.0
C      1  0.4411590000000  0.5427180000000  0.4759090000000 1.0
C      1  0.5639430000000  0.5419400000000  0.5098330000000 1.0
C      1  0.5591670000000  0.4692940000000  0.4408100000000 1.0
C      1  0.5101410000000  0.5501950000000  0.4644210000000 1.0
C      1  0.5875770000000  0.5516020000000  0.4807680000000 1.0
C      1  0.5411710000000  0.5515090000000  0.4657390000000 1.0
C      1  0.4758610000000  0.5719570000000  0.4477490000000 1.0
C      1  0.5044520000000  0.4217790000000  0.4846400000000 1.0
C      1  0.4599170000000  0.4746660000000  0.4688780000000 1.0
C      1  0.4910030000000  0.5581450000000  0.4257250000000 1.0
C      1  0.5370730000000  0.5339840000000  0.4264240000000 1.0
C      1  0.4804030000000  0.4892800000000  0.5812900000000 1.0
C      1  0.4746760000000  0.5172530000000  0.5045740000000 1.0
C      1  0.4077540000000  0.4962710000000  0.4648260000000 1.0
C      1  0.4128400000000  0.4663300000000  0.5016870000000 1.0
C      1  0.5087640000000  0.5525310000000  0.5833850000000 1.0
C      1  0.4899240000000  0.4049010000000  0.5261550000000 1.0
C      1  0.5076480000000  0.4173820000000  0.4561740000000 1.0
C      1  0.4619300000000  0.5288080000000  0.5888580000000 1.0
C      1  0.4968830000000  0.5228550000000  0.4522210000000 1.0
C      1  0.5503090000000  0.4922740000000  0.5948030000000 1.0
C      1  0.4752710000000  0.5351960000000  0.4161100000000 1.0
C      1  0.4746000000000  0.4601450000000  0.5781810000000 1.0
C      1  0.5644260000000  0.5157570000000  0.5272970000000 1.0
C      1  0.4535520000000  0.4988230000000  0.5136950000000 1.0
C      1  0.5224260000000  0.4761020000000  0.4095340000000 1.0
C      1  0.5201350000000  0.5574290000000  0.4276100000000 1.0
C      1  0.5308030000000  0.5856230000000  0.5092650000000 1.0
C      1  0.4481130000000  0.5385070000000  0.4265450000000 1.0
C      1  0.4452750000000  0.4296310000000  0.4532090000000 1.0
C      1  0.4478540000000  0.5162230000000  0.5673600000000 1.0
C      1  0.5187640000000  0.4118860000000  0.5291990000000 1.0
C      1  0.4640830000000  0.4716810000000  0.5206720000000 1.0
C      1  0.4531490000000  0.5557080000000  0.5345220000000 1.0
C      1  0.5196180000000  0.4700320000000  0.4927150000000 1.0
C      1  0.4892710000000  0.5227730000000  0.5374350000000 1.0
C      1  0.5638910000000  0.5370260000000  0.4378940000000 1.0
C      1  0.4804460000000  0.4082210000000  0.4974010000000 1.0
C      1  0.4464500000000  0.4618740000000  0.5678560000000 1.0
C      1  0.4906840000000  0.4720520000000  0.5362040000000 1.0
C      1  0.5560980000000  0.5716850000000  0.5207000000000 1.0
C      1  0.5692090000000  0.4683480000000  0.5544250000000 1.0
C      1  0.4359020000000  0.5326990000000  0.5450570000000 1.0
C      1  0.5253850000000  0.5161860000000  0.4966720000000 1.0
C      1  0.5197800000000  0.4779480000000  0.5221380000000 1.0
END
