TITL C-951341-1326-287 -2.00883102162685e-06 125000 -349.432964076982 0 0 58 (C1) n - 1
REM
REM in /home/bkarasulu/work/CARBON/AIRSS/Generating-Clusters/EDIP-Nigel-Params/with-SteepDescent/Only-C1/SD-CG/HFTN-CG
REM
REM
REM
REM
REM
REM ./C.cell (11c1c37f851c82e70ff6c80c92926a4b)
REM
REM compiler GCC version 9.2.1 20190827 (Red Hat 9.2.1-1)
REM options -cpp -mtune=generic -march=x86-64 -g -O0 -fpre-include=/usr/include/finclude/math-vector-fortran.h
REM seed 1720352257 410758748 -1820029280 49935293 1805593242 -412637330 426330539 1827414367 87138776 -624861563 -1985896151 2089268201 679324797 1260801302 1923532477 315509232 237538473 -771061236 425119245 82999000 1356474085 1399340352 -1724133659 1813437846 -1371201836 -1571369462 307136263 506596227 2026577625 444729909 -2056981218 -251606142 2047301016
REM
CELL 1.54180   50.00000   50.00000   50.00000   90.00000   90.00000   90.00000
LATT -1
SFAC C  
C      1  0.5010980000000  0.5100340000000  0.5053870000000 1.0
C      1  0.4306610000000  0.4935160000000  0.4929510000000 1.0
C      1  0.5214300000000  0.5248480000000  0.5762280000000 1.0
C      1  0.5115370000000  0.4834130000000  0.4305180000000 1.0
C      1  0.4322470000000  0.5250070000000  0.5311090000000 1.0
C      1  0.5417600000000  0.4529000000000  0.4593520000000 1.0
C      1  0.5209390000000  0.5432530000000  0.4526010000000 1.0
C      1  0.5306700000000  0.4787300000000  0.4530190000000 1.0
C      1  0.5433480000000  0.4437300000000  0.4863710000000 1.0
C      1  0.5249990000000  0.5277790000000  0.5206930000000 1.0
C      1  0.5298370000000  0.4980870000000  0.5794500000000 1.0
C      1  0.5127510000000  0.4809940000000  0.5643220000000 1.0
C      1  0.4758760000000  0.5132690000000  0.5575820000000 1.0
C      1  0.4888640000000  0.4412220000000  0.4370380000000 1.0
C      1  0.4433750000000  0.4862800000000  0.4677180000000 1.0
C      1  0.5373550000000  0.5112030000000  0.5437890000000 1.0
C      1  0.4831920000000  0.4334840000000  0.4849680000000 1.0
C      1  0.5574450000000  0.4885120000000  0.4569750000000 1.0
C      1  0.5435580000000  0.5510770000000  0.4958560000000 1.0
C      1  0.5258790000000  0.5574420000000  0.5294940000000 1.0
C      1  0.5315260000000  0.4412670000000  0.5349520000000 1.0
C      1  0.4256520000000  0.5210840000000  0.5032290000000 1.0
C      1  0.4536790000000  0.4821800000000  0.5289800000000 1.0
C      1  0.5031680000000  0.4826250000000  0.5162550000000 1.0
C      1  0.4583330000000  0.5114010000000  0.5323450000000 1.0
C      1  0.5704320000000  0.5119000000000  0.5109120000000 1.0
C      1  0.4975500000000  0.5242010000000  0.4559080000000 1.0
C      1  0.5040700000000  0.4184620000000  0.4957690000000 1.0
C      1  0.5283820000000  0.4279630000000  0.5061480000000 1.0
C      1  0.4888760000000  0.4518180000000  0.4630870000000 1.0
C      1  0.4312310000000  0.4745440000000  0.5137040000000 1.0
C      1  0.4358340000000  0.5417690000000  0.4857470000000 1.0
C      1  0.5625800000000  0.4993230000000  0.5344840000000 1.0
C      1  0.5007160000000  0.5735110000000  0.4859610000000 1.0
C      1  0.5532180000000  0.4727240000000  0.5299510000000 1.0
C      1  0.5452640000000  0.5320050000000  0.4448850000000 1.0
C      1  0.4709180000000  0.4471100000000  0.5051910000000 1.0
C      1  0.4733640000000  0.5403120000000  0.4623850000000 1.0
C      1  0.4815360000000  0.4815720000000  0.4668650000000 1.0
C      1  0.5308570000000  0.4712480000000  0.5103970000000 1.0
C      1  0.4842100000000  0.4864100000000  0.5659910000000 1.0
C      1  0.5599300000000  0.5164980000000  0.4628830000000 1.0
C      1  0.4918090000000  0.5051230000000  0.4334340000000 1.0
C      1  0.4554520000000  0.5028650000000  0.4465340000000 1.0
C      1  0.4772540000000  0.5692150000000  0.5007210000000 1.0
C      1  0.4781050000000  0.4658710000000  0.5249960000000 1.0
C      1  0.5012890000000  0.5570300000000  0.5439950000000 1.0
C      1  0.5240110000000  0.5611880000000  0.4757860000000 1.0
C      1  0.4836760000000  0.4512600000000  0.5501520000000 1.0
C      1  0.4744300000000  0.5212810000000  0.5092150000000 1.0
C      1  0.5021190000000  0.5029800000000  0.4765480000000 1.0
C      1  0.4482910000000  0.5305730000000  0.4519440000000 1.0
C      1  0.5565860000000  0.5248270000000  0.4906000000000 1.0
C      1  0.5000350000000  0.5306320000000  0.5572060000000 1.0
C      1  0.5004180000000  0.4595700000000  0.4210190000000 1.0
C      1  0.4655090000000  0.5437630000000  0.4910030000000 1.0
C      1  0.4804500000000  0.5675550000000  0.5284070000000 1.0
C      1  0.5124210000000  0.4515560000000  0.5569910000000 1.0
END
