TITL C-950534-5965-442 2.1895962648382e-05 125000 -200.834841672342 0 0 35 (C1) n - 1
REM
REM in /home/bkarasulu/work/CARBON/AIRSS/Generating-Clusters/EDIP-Nigel-Params/with-SteepDescent/Only-C1/SD-CG/HFTN-CG
REM
REM
REM
REM
REM
REM ./C.cell (11c1c37f851c82e70ff6c80c92926a4b)
REM
REM compiler GCC version 9.2.1 20190827 (Red Hat 9.2.1-1)
REM options -cpp -mtune=generic -march=x86-64 -g -O0 -fpre-include=/usr/include/finclude/math-vector-fortran.h
REM seed -1565244903 -472149879 -1872784970 149644222 1672594428 375061762 620285045 -1109694154 -888293387 -1190639813 -796574128 1680343019 701324865 267070729 1109298705 -1447841490 -1563979656 -1314882698 -1018366545 956292787 -1165055061 -1374626522 -159612649 1949446552 1059289120 -1514681403 -1666673242 1905308700 1064603392 328062021 -1534270130 -981718922 1035164128
REM
CELL 1.54180   50.00000   50.00000   50.00000   90.00000   90.00000   90.00000
LATT -1
SFAC C  
C      1  0.4682710000000  0.4853270000000  0.5437500000000 1.0
C      1  0.4535910000000  0.5091880000000  0.5332960000000 1.0
C      1  0.5125510000000  0.5387800000000  0.4628860000000 1.0
C      1  0.5582680000000  0.4956620000000  0.4693830000000 1.0
C      1  0.5137830000000  0.4749820000000  0.4225370000000 1.0
C      1  0.4585560000000  0.4459790000000  0.5100030000000 1.0
C      1  0.5296690000000  0.4349040000000  0.4969410000000 1.0
C      1  0.4498510000000  0.5106880000000  0.5035650000000 1.0
C      1  0.4844750000000  0.5661070000000  0.5149230000000 1.0
C      1  0.4938980000000  0.4951880000000  0.4674910000000 1.0
C      1  0.4867510000000  0.5239800000000  0.4664370000000 1.0
C      1  0.4837800000000  0.5525850000000  0.5406270000000 1.0
C      1  0.5093620000000  0.5434830000000  0.5465000000000 1.0
C      1  0.4426090000000  0.4870370000000  0.4906390000000 1.0
C      1  0.5043310000000  0.4238530000000  0.4982500000000 1.0
C      1  0.4631450000000  0.5337830000000  0.5433720000000 1.0
C      1  0.5177550000000  0.5207420000000  0.5306170000000 1.0
C      1  0.5251940000000  0.5567770000000  0.4830400000000 1.0
C      1  0.5422090000000  0.4461170000000  0.4716800000000 1.0
C      1  0.4654480000000  0.5562540000000  0.4974490000000 1.0
C      1  0.5428310000000  0.5272130000000  0.5176880000000 1.0
C      1  0.5456160000000  0.5199280000000  0.4691310000000 1.0
C      1  0.5098560000000  0.5683070000000  0.5036890000000 1.0
C      1  0.5187350000000  0.4979270000000  0.5485400000000 1.0
C      1  0.4936810000000  0.4895140000000  0.5548710000000 1.0
C      1  0.4785270000000  0.4284410000000  0.5028070000000 1.0
C      1  0.4619550000000  0.4602970000000  0.5333530000000 1.0
C      1  0.4738360000000  0.5280530000000  0.4945490000000 1.0
C      1  0.5064530000000  0.4858990000000  0.4445570000000 1.0
C      1  0.4984380000000  0.5133790000000  0.5079730000000 1.0
C      1  0.5463520000000  0.5379520000000  0.4917230000000 1.0
C      1  0.4458450000000  0.4604550000000  0.4902000000000 1.0
C      1  0.5575720000000  0.4691380000000  0.4708180000000 1.0
C      1  0.5052040000000  0.4903580000000  0.4929630000000 1.0
C      1  0.5516010000000  0.4217240000000  0.4837520000000 1.0
END
