TITL C-950527-2551-504 1.25720996352596e-06 125000 -730.339512778997 0 0 117 (C1) n - 1
REM
REM in /home/bkarasulu/work/CARBON/AIRSS/Generating-Clusters/EDIP-Nigel-Params/with-SteepDescent/Only-C1/SD-CG/HFTN-CG
REM
REM
REM
REM
REM
REM ./C.cell (11c1c37f851c82e70ff6c80c92926a4b)
REM
REM compiler GCC version 9.2.1 20190827 (Red Hat 9.2.1-1)
REM options -cpp -mtune=generic -march=x86-64 -g -O0 -fpre-include=/usr/include/finclude/math-vector-fortran.h
REM seed 1150438498 -1932016486 615187764 429362822 -1005315003 -1937412764 2078714992 1035022949 392995305 957400364 -453308746 -928459224 1478768448 -169052923 395104865 1037750690 -637513 1361317060 2007346120 -1413277162 153277737 1203507620 222771750 -1178834002 -726854198 2107334331 1329535452 299902835 -971714470 -1683401235 1332444918 -1439035886 -374227925
REM
CELL 1.54180   50.00000   50.00000   50.00000   90.00000   90.00000   90.00000
LATT -1
SFAC C  
C      1  0.5762900000000  0.4766950000000  0.5425330000000 1.0
C      1  0.5306810000000  0.4886130000000  0.4205560000000 1.0
C      1  0.5544450000000  0.4637310000000  0.5560650000000 1.0
C      1  0.5618750000000  0.4503220000000  0.4586120000000 1.0
C      1  0.4680370000000  0.5679630000000  0.5094380000000 1.0
C      1  0.5800360000000  0.5497920000000  0.4699100000000 1.0
C      1  0.5717040000000  0.5047520000000  0.5511960000000 1.0
C      1  0.4222070000000  0.5191450000000  0.5013540000000 1.0
C      1  0.5434710000000  0.4191400000000  0.5209060000000 1.0
C      1  0.4999780000000  0.5293850000000  0.4994090000000 1.0
C      1  0.5000000000000  0.4215870000000  0.4939360000000 1.0
C      1  0.5067010000000  0.4651160000000  0.5386840000000 1.0
C      1  0.5007140000000  0.5647520000000  0.5497780000000 1.0
C      1  0.4902330000000  0.4726360000000  0.4982650000000 1.0
C      1  0.4566350000000  0.4354920000000  0.4726180000000 1.0
C      1  0.5310910000000  0.5513620000000  0.5843660000000 1.0
C      1  0.5029380000000  0.4808030000000  0.4223250000000 1.0
C      1  0.4438520000000  0.4811620000000  0.4945790000000 1.0
C      1  0.5187460000000  0.4570490000000  0.4653780000000 1.0
C      1  0.5123400000000  0.5667130000000  0.4495890000000 1.0
C      1  0.4665120000000  0.4493590000000  0.5682800000000 1.0
C      1  0.4875410000000  0.4886300000000  0.4735160000000 1.0
C      1  0.5739860000000  0.4719330000000  0.5125700000000 1.0
C      1  0.5142410000000  0.4118970000000  0.5188280000000 1.0
C      1  0.5269330000000  0.5208890000000  0.4589920000000 1.0
C      1  0.5771280000000  0.5448660000000  0.5004380000000 1.0
C      1  0.5370230000000  0.5144130000000  0.4070490000000 1.0
C      1  0.5108580000000  0.4715040000000  0.5907650000000 1.0
C      1  0.4216790000000  0.4587140000000  0.5428620000000 1.0
C      1  0.4721370000000  0.4329130000000  0.4482220000000 1.0
C      1  0.5422620000000  0.4979400000000  0.4478820000000 1.0
C      1  0.5437320000000  0.4728940000000  0.4684520000000 1.0
C      1  0.5449490000000  0.4769030000000  0.5043430000000 1.0
C      1  0.4385880000000  0.4859840000000  0.5826810000000 1.0
C      1  0.5880270000000  0.4558270000000  0.4717400000000 1.0
C      1  0.5548950000000  0.5393600000000  0.5766150000000 1.0
C      1  0.5306750000000  0.4821830000000  0.5499300000000 1.0
C      1  0.5564350000000  0.5656890000000  0.5070950000000 1.0
C      1  0.4845390000000  0.5827520000000  0.4872820000000 1.0
C      1  0.5520140000000  0.4347460000000  0.5539940000000 1.0
C      1  0.4653110000000  0.4902550000000  0.5946810000000 1.0
C      1  0.4833580000000  0.5589560000000  0.4144900000000 1.0
C      1  0.5546300000000  0.5100620000000  0.5752080000000 1.0
C      1  0.4591410000000  0.4939640000000  0.4719420000000 1.0
C      1  0.4055960000000  0.4744030000000  0.4934110000000 1.0
C      1  0.4956860000000  0.4537970000000  0.4098460000000 1.0
C      1  0.5107200000000  0.4315340000000  0.4202860000000 1.0
C      1  0.4634170000000  0.5003480000000  0.4234810000000 1.0
C      1  0.5167600000000  0.5957230000000  0.5179280000000 1.0
C      1  0.4328040000000  0.5118310000000  0.5698090000000 1.0
C      1  0.4542110000000  0.5488610000000  0.5506090000000 1.0
C      1  0.4767850000000  0.4331650000000  0.5458430000000 1.0
C      1  0.4509360000000  0.5339950000000  0.5786380000000 1.0
C      1  0.4274740000000  0.5515100000000  0.4514840000000 1.0
C      1  0.4415320000000  0.4640870000000  0.5625580000000 1.0
C      1  0.4341880000000  0.4576400000000  0.4735920000000 1.0
C      1  0.4759650000000  0.4815580000000  0.5411310000000 1.0
C      1  0.4646950000000  0.5258850000000  0.5335270000000 1.0
C      1  0.5581320000000  0.4275920000000  0.4966660000000 1.0
C      1  0.4106190000000  0.4753570000000  0.5227220000000 1.0
C      1  0.5220550000000  0.4465590000000  0.5858410000000 1.0
C      1  0.4985960000000  0.4205380000000  0.4438060000000 1.0
C      1  0.5096860000000  0.5128260000000  0.5207270000000 1.0
C      1  0.5870760000000  0.4937710000000  0.4976860000000 1.0
C      1  0.5588400000000  0.5691230000000  0.4627560000000 1.0
C      1  0.5266450000000  0.4275590000000  0.5659920000000 1.0
C      1  0.4890830000000  0.5108170000000  0.5423940000000 1.0
C      1  0.4154790000000  0.5015990000000  0.4525910000000 1.0
C      1  0.5645620000000  0.5133310000000  0.4335640000000 1.0
C      1  0.5487480000000  0.5621390000000  0.4369660000000 1.0
C      1  0.5802280000000  0.5290830000000  0.4506140000000 1.0
C      1  0.5145710000000  0.5351350000000  0.4113000000000 1.0
C      1  0.4217090000000  0.5481420000000  0.5105490000000 1.0
C      1  0.5063820000000  0.5476550000000  0.5726120000000 1.0
C      1  0.5262170000000  0.5436330000000  0.4388540000000 1.0
C      1  0.4694360000000  0.4227050000000  0.4959940000000 1.0
C      1  0.4283490000000  0.4741310000000  0.4469780000000 1.0
C      1  0.5942180000000  0.4837370000000  0.4724410000000 1.0
C      1  0.5672080000000  0.5154950000000  0.5038110000000 1.0
C      1  0.4848450000000  0.5598750000000  0.4440950000000 1.0
C      1  0.5143950000000  0.4133660000000  0.4678200000000 1.0
C      1  0.5005760000000  0.5177850000000  0.4722150000000 1.0
C      1  0.4694510000000  0.4522920000000  0.4262970000000 1.0
C      1  0.4582140000000  0.5141970000000  0.4498340000000 1.0
C      1  0.4985240000000  0.5188220000000  0.5711410000000 1.0
C      1  0.4827180000000  0.4700170000000  0.5830360000000 1.0
C      1  0.5082520000000  0.4506330000000  0.4926180000000 1.0
C      1  0.5652890000000  0.5500240000000  0.5511640000000 1.0
C      1  0.5373000000000  0.5014290000000  0.5238900000000 1.0
C      1  0.4415980000000  0.5692060000000  0.4681690000000 1.0
C      1  0.4311450000000  0.5259750000000  0.4392270000000 1.0
C      1  0.5463000000000  0.5632650000000  0.5335250000000 1.0
C      1  0.4526880000000  0.5217150000000  0.4065220000000 1.0
C      1  0.4731360000000  0.5380860000000  0.5069830000000 1.0
C      1  0.5389000000000  0.5717090000000  0.4847280000000 1.0
C      1  0.5230640000000  0.4971350000000  0.5771190000000 1.0
C      1  0.4208630000000  0.5021540000000  0.5247550000000 1.0
C      1  0.4073110000000  0.5025000000000  0.4817300000000 1.0
C      1  0.4393500000000  0.5685830000000  0.4979190000000 1.0
C      1  0.5813390000000  0.5296450000000  0.5365800000000 1.0
C      1  0.4731770000000  0.5711910000000  0.5410880000000 1.0
C      1  0.4489510000000  0.4744350000000  0.4248530000000 1.0
C      1  0.4600860000000  0.4329200000000  0.5216480000000 1.0
C      1  0.4279860000000  0.5524570000000  0.5380770000000 1.0
C      1  0.4807600000000  0.5324340000000  0.4553330000000 1.0
C      1  0.4741710000000  0.5179390000000  0.5893420000000 1.0
C      1  0.4659680000000  0.4690110000000  0.5138000000000 1.0
C      1  0.4773790000000  0.5354530000000  0.4005370000000 1.0
C      1  0.5233440000000  0.5801050000000  0.5400230000000 1.0
C      1  0.4691030000000  0.5788880000000  0.4612000000000 1.0
C      1  0.5146690000000  0.5892230000000  0.4907180000000 1.0
C      1  0.5060430000000  0.4266250000000  0.5437500000000 1.0
C      1  0.4439080000000  0.5034450000000  0.5426160000000 1.0
C      1  0.5270890000000  0.4538490000000  0.5146660000000 1.0
C      1  0.5483130000000  0.4244620000000  0.4691480000000 1.0
C      1  0.4954800000000  0.4692880000000  0.4503920000000 1.0
C      1  0.5811380000000  0.4457520000000  0.4990790000000 1.0
END
