TITL C-951344-124-348 -1.82999452975668e-06 125000 -46.0817173471078 0 0 9 (Cs) n - 1
REM
REM in /home/bkarasulu/work/CARBON/AIRSS/Generating-Clusters/EDIP-Nigel-Params/with-SteepDescent/Only-C1/SD-CG/HFTN-CG
REM
REM
REM
REM
REM
REM ./C.cell (11c1c37f851c82e70ff6c80c92926a4b)
REM
REM compiler GCC version 9.2.1 20190827 (Red Hat 9.2.1-1)
REM options -cpp -mtune=generic -march=x86-64 -g -O0 -fpre-include=/usr/include/finclude/math-vector-fortran.h
REM seed -113052306 -1468429021 -556615737 1636973132 886467686 1698241489 897601336 918838054 -1523999009 -2147258245 -417987271 -200847379 -57351387 -1834701653 -1483550734 -615720149 -329015501 698131295 1790713799 907189681 -1748649072 -1085306932 -1073490878 -80276042 826424697 2000827955 -494205608 -634609329 1270543882 37034057 791491047 -1676263633 -594983741
REM
CELL 1.54180   50.00000   50.00000   50.00000   90.00000   90.00000   90.00000
LATT -1
SFAC C  
C      1  0.4713180000000  0.5217500000000  0.5101210000000 1.0
C      1  0.4909200000000  0.5038000000000  0.5035590000000 1.0
C      1  0.5031840000000  0.4542460000000  0.5038550000000 1.0
C      1  0.4879310000000  0.4763560000000  0.5080270000000 1.0
C      1  0.5209610000000  0.5371740000000  0.4865070000000 1.0
C      1  0.4520620000000  0.5372470000000  0.5168120000000 1.0
C      1  0.5154320000000  0.5118980000000  0.4918440000000 1.0
C      1  0.5250550000000  0.4661350000000  0.4928670000000 1.0
C      1  0.5331380000000  0.4913940000000  0.4864090000000 1.0
END
