TITL C-951346-9544-536 -4.78850588290115e-06 125000 -384.231560976422 0 0 63 (C1) n - 1
REM
REM in /home/bkarasulu/work/CARBON/AIRSS/Generating-Clusters/EDIP-Nigel-Params/with-SteepDescent/Only-C1/SD-CG/HFTN-CG
REM
REM
REM
REM
REM
REM ./C.cell (11c1c37f851c82e70ff6c80c92926a4b)
REM
REM compiler GCC version 9.2.1 20190827 (Red Hat 9.2.1-1)
REM options -cpp -mtune=generic -march=x86-64 -g -O0 -fpre-include=/usr/include/finclude/math-vector-fortran.h
REM seed 43045769 -2047957113 1452946884 1165093681 368574307 670135521 453823873 553276056 -1630957893 1298165215 -800304655 -677577063 168938803 -867920077 169256502 -665462411 1603678422 -1382815609 1449898956 802702395 1585636983 652915871 1282006215 -1985788655 1544729248 -1731571272 1065057680 -1600936354 1737813010 -1756297906 -1598569032 359749593 1323873317
REM
CELL 1.54180   50.00000   50.00000   50.00000   90.00000   90.00000   90.00000
LATT -1
SFAC C  
C      1  0.5169200000000  0.5274960000000  0.5652170000000 1.0
C      1  0.5337370000000  0.5353110000000  0.5252170000000 1.0
C      1  0.4399460000000  0.4921020000000  0.4496450000000 1.0
C      1  0.4697300000000  0.4740720000000  0.5633590000000 1.0
C      1  0.5385500000000  0.4433410000000  0.5181850000000 1.0
C      1  0.4574300000000  0.4898500000000  0.5408650000000 1.0
C      1  0.5241340000000  0.4879110000000  0.5273670000000 1.0
C      1  0.4556370000000  0.5307800000000  0.5257460000000 1.0
C      1  0.4679730000000  0.5500440000000  0.4830520000000 1.0
C      1  0.5207830000000  0.5004870000000  0.5750340000000 1.0
C      1  0.5463390000000  0.4896560000000  0.5696240000000 1.0
C      1  0.5420150000000  0.4415200000000  0.4603180000000 1.0
C      1  0.5591550000000  0.5422880000000  0.4906580000000 1.0
C      1  0.4881900000000  0.5027040000000  0.4726950000000 1.0
C      1  0.4931390000000  0.5356630000000  0.5507600000000 1.0
C      1  0.4944790000000  0.5548190000000  0.5295610000000 1.0
C      1  0.4597820000000  0.5303210000000  0.4333840000000 1.0
C      1  0.5419470000000  0.4517990000000  0.5472180000000 1.0
C      1  0.4912780000000  0.4595600000000  0.5497550000000 1.0
C      1  0.4679490000000  0.5261140000000  0.5612550000000 1.0
C      1  0.4325750000000  0.5235510000000  0.5068590000000 1.0
C      1  0.4746260000000  0.4455220000000  0.4579930000000 1.0
C      1  0.4199920000000  0.4959860000000  0.5110570000000 1.0
C      1  0.4888340000000  0.4575130000000  0.5195770000000 1.0
C      1  0.4161630000000  0.4809170000000  0.4878150000000 1.0
C      1  0.4967470000000  0.4598510000000  0.4486300000000 1.0
C      1  0.4707720000000  0.5011130000000  0.5758670000000 1.0
C      1  0.4748100000000  0.5061290000000  0.5191920000000 1.0
C      1  0.4883650000000  0.4888680000000  0.4456480000000 1.0
C      1  0.5551620000000  0.4857120000000  0.4760390000000 1.0
C      1  0.5415600000000  0.5310430000000  0.4692420000000 1.0
C      1  0.4553140000000  0.4515640000000  0.4776180000000 1.0
C      1  0.4879510000000  0.5342470000000  0.4366760000000 1.0
C      1  0.5522320000000  0.5073520000000  0.4540780000000 1.0
C      1  0.5328320000000  0.5054950000000  0.4338130000000 1.0
C      1  0.5180330000000  0.4646700000000  0.5104250000000 1.0
C      1  0.5140110000000  0.5094370000000  0.4855310000000 1.0
C      1  0.5131430000000  0.5646240000000  0.4659100000000 1.0
C      1  0.4322760000000  0.4782380000000  0.5314160000000 1.0
C      1  0.5626740000000  0.4558390000000  0.4736850000000 1.0
C      1  0.4674220000000  0.4957230000000  0.4913380000000 1.0
C      1  0.5253770000000  0.4804810000000  0.4834710000000 1.0
C      1  0.5340790000000  0.5531150000000  0.4510840000000 1.0
C      1  0.5662480000000  0.5221600000000  0.5096140000000 1.0
C      1  0.5106510000000  0.5132190000000  0.5167900000000 1.0
C      1  0.4913140000000  0.5461560000000  0.4644330000000 1.0
C      1  0.4621760000000  0.4877110000000  0.4334750000000 1.0
C      1  0.5649670000000  0.4497530000000  0.5039960000000 1.0
C      1  0.5049790000000  0.5080400000000  0.4292160000000 1.0
C      1  0.5728910000000  0.4753720000000  0.5187460000000 1.0
C      1  0.4435580000000  0.4800540000000  0.4769640000000 1.0
C      1  0.4444880000000  0.5317230000000  0.4795860000000 1.0
C      1  0.4626610000000  0.4474010000000  0.5068060000000 1.0
C      1  0.5412820000000  0.5598620000000  0.5068220000000 1.0
C      1  0.5714580000000  0.4963810000000  0.4989080000000 1.0
C      1  0.5190560000000  0.4568200000000  0.4664400000000 1.0
C      1  0.4392430000000  0.4525360000000  0.5221430000000 1.0
C      1  0.5510130000000  0.4814050000000  0.5408370000000 1.0
C      1  0.5396650000000  0.5388460000000  0.5535410000000 1.0
C      1  0.4714660000000  0.5523080000000  0.5131550000000 1.0
C      1  0.4395860000000  0.5215560000000  0.4515390000000 1.0
C      1  0.5215430000000  0.5722300000000  0.4912870000000 1.0
C      1  0.5176900000000  0.4636390000000  0.5638210000000 1.0
END
