TITL C-951336-9012-316 -6.4985134366886e-06 125000 -833.809154902698 0 0 134 (C1) n - 1
REM
REM in /home/bkarasulu/work/CARBON/AIRSS/Generating-Clusters/EDIP-Nigel-Params/with-SteepDescent/Only-C1/SD-CG/HFTN-CG
REM
REM
REM
REM
REM
REM ./C.cell (11c1c37f851c82e70ff6c80c92926a4b)
REM
REM compiler GCC version 9.2.1 20190827 (Red Hat 9.2.1-1)
REM options -cpp -mtune=generic -march=x86-64 -g -O0 -fpre-include=/usr/include/finclude/math-vector-fortran.h
REM seed -2117440333 -234834988 -1348756458 -1160569761 457196609 -202000554 443232917 -1280664968 986341090 2028039816 -1229946951 -2050979720 723604573 343857891 -276357808 1548467515 480975396 308536988 1932257538 -1003227990 -1280824903 104530076 806211386 784643130 1280843655 -1976375906 472259393 -140820012 1228205873 -962207836 707125200 -1688583884 -1227583901
REM
CELL 1.54180   50.00000   50.00000   50.00000   90.00000   90.00000   90.00000
LATT -1
SFAC C  
C      1  0.5458950000000  0.5419900000000  0.4187280000000 1.0
C      1  0.4994030000000  0.4323700000000  0.5505270000000 1.0
C      1  0.5130310000000  0.5594780000000  0.4677460000000 1.0
C      1  0.5679050000000  0.5495220000000  0.5029520000000 1.0
C      1  0.4284990000000  0.4377530000000  0.5352700000000 1.0
C      1  0.4925760000000  0.5103840000000  0.4915370000000 1.0
C      1  0.5966600000000  0.5392040000000  0.4983130000000 1.0
C      1  0.4241270000000  0.5660080000000  0.5251300000000 1.0
C      1  0.4473280000000  0.5742400000000  0.5421970000000 1.0
C      1  0.4918270000000  0.4540770000000  0.5327520000000 1.0
C      1  0.4475980000000  0.5316320000000  0.5099900000000 1.0
C      1  0.5431100000000  0.5912130000000  0.4837450000000 1.0
C      1  0.4871320000000  0.4791630000000  0.6053810000000 1.0
C      1  0.4399900000000  0.5648160000000  0.4555280000000 1.0
C      1  0.5594320000000  0.4872830000000  0.4021000000000 1.0
C      1  0.4961940000000  0.4834020000000  0.4754900000000 1.0
C      1  0.4714880000000  0.4206350000000  0.5541320000000 1.0
C      1  0.5422100000000  0.5716690000000  0.4610590000000 1.0
C      1  0.5442760000000  0.5676580000000  0.5555770000000 1.0
C      1  0.4569540000000  0.5587910000000  0.4298800000000 1.0
C      1  0.4198930000000  0.4944320000000  0.4201780000000 1.0
C      1  0.5161890000000  0.4139510000000  0.5325410000000 1.0
C      1  0.5260200000000  0.4757150000000  0.5617720000000 1.0
C      1  0.5812120000000  0.4627310000000  0.5010440000000 1.0
C      1  0.4851610000000  0.4342030000000  0.4261540000000 1.0
C      1  0.4261460000000  0.5795350000000  0.5004270000000 1.0
C      1  0.4895700000000  0.4345790000000  0.4744010000000 1.0
C      1  0.5122910000000  0.4916760000000  0.6056630000000 1.0
C      1  0.4830900000000  0.5035900000000  0.5212400000000 1.0
C      1  0.5251830000000  0.4626770000000  0.4424360000000 1.0
C      1  0.5022600000000  0.4437650000000  0.4482050000000 1.0
C      1  0.4977890000000  0.5406050000000  0.4492310000000 1.0
C      1  0.4772520000000  0.4081020000000  0.4390240000000 1.0
C      1  0.5813920000000  0.4696810000000  0.4708900000000 1.0
C      1  0.4979430000000  0.5102150000000  0.5621420000000 1.0
C      1  0.4686430000000  0.4570280000000  0.5140100000000 1.0
C      1  0.4118910000000  0.4923710000000  0.5002740000000 1.0
C      1  0.4712770000000  0.4831430000000  0.5583430000000 1.0
C      1  0.5638650000000  0.5578590000000  0.5746420000000 1.0
C      1  0.5350310000000  0.5088780000000  0.4607790000000 1.0
C      1  0.5147460000000  0.5987270000000  0.4918590000000 1.0
C      1  0.5872850000000  0.4981620000000  0.4694910000000 1.0
C      1  0.4336950000000  0.4598220000000  0.5765250000000 1.0
C      1  0.5543200000000  0.4524690000000  0.5371380000000 1.0
C      1  0.4721380000000  0.5756350000000  0.4915010000000 1.0
C      1  0.4483000000000  0.4410180000000  0.5567000000000 1.0
C      1  0.5903430000000  0.4854870000000  0.5454120000000 1.0
C      1  0.5428520000000  0.5266380000000  0.4840190000000 1.0
C      1  0.5086920000000  0.4152320000000  0.4887580000000 1.0
C      1  0.5542260000000  0.5890980000000  0.5355690000000 1.0
C      1  0.4289690000000  0.4469270000000  0.4860900000000 1.0
C      1  0.5099480000000  0.4779370000000  0.5344680000000 1.0
C      1  0.4845760000000  0.4624130000000  0.5812650000000 1.0
C      1  0.5739610000000  0.4601030000000  0.4432630000000 1.0
C      1  0.5270900000000  0.5993370000000  0.5404650000000 1.0
C      1  0.4242460000000  0.5306410000000  0.4663930000000 1.0
C      1  0.5296510000000  0.4281850000000  0.5091870000000 1.0
C      1  0.4201490000000  0.5346040000000  0.5194220000000 1.0
C      1  0.5669250000000  0.4148450000000  0.4781910000000 1.0
C      1  0.4963330000000  0.5384050000000  0.4027010000000 1.0
C      1  0.5668860000000  0.5536180000000  0.4593200000000 1.0
C      1  0.4070090000000  0.4629310000000  0.5672050000000 1.0
C      1  0.4540600000000  0.5598560000000  0.5670900000000 1.0
C      1  0.5326330000000  0.4620290000000  0.5176300000000 1.0
C      1  0.5243120000000  0.5380830000000  0.5908670000000 1.0
C      1  0.4459950000000  0.4880520000000  0.5766320000000 1.0
C      1  0.5198180000000  0.5220350000000  0.4386350000000 1.0
C      1  0.4316460000000  0.5137450000000  0.5657520000000 1.0
C      1  0.4956790000000  0.5829290000000  0.4753970000000 1.0
C      1  0.4514860000000  0.5314470000000  0.4206830000000 1.0
C      1  0.5108790000000  0.4510180000000  0.5729720000000 1.0
C      1  0.4457650000000  0.5811610000000  0.4802690000000 1.0
C      1  0.4860730000000  0.5488640000000  0.5299970000000 1.0
C      1  0.5737930000000  0.4392730000000  0.5190050000000 1.0
C      1  0.5061760000000  0.5563950000000  0.5753740000000 1.0
C      1  0.4234790000000  0.4868640000000  0.5271790000000 1.0
C      1  0.4106160000000  0.4616460000000  0.5389840000000 1.0
C      1  0.5094560000000  0.5866590000000  0.5193680000000 1.0
C      1  0.5221540000000  0.4013670000000  0.4650110000000 1.0
C      1  0.5857050000000  0.5090830000000  0.4979300000000 1.0
C      1  0.5583740000000  0.4189010000000  0.5045200000000 1.0
C      1  0.4846370000000  0.4594340000000  0.4892470000000 1.0
C      1  0.4520810000000  0.5379750000000  0.4809510000000 1.0
C      1  0.4792150000000  0.5644700000000  0.5802750000000 1.0
C      1  0.4186340000000  0.4715020000000  0.4372570000000 1.0
C      1  0.4311980000000  0.4895820000000  0.4586600000000 1.0
C      1  0.4597970000000  0.4989110000000  0.4551320000000 1.0
C      1  0.4648650000000  0.4563510000000  0.4274000000000 1.0
C      1  0.4285390000000  0.4763820000000  0.4841270000000 1.0
C      1  0.5261400000000  0.5262740000000  0.4028630000000 1.0
C      1  0.5320660000000  0.5449030000000  0.5384700000000 1.0
C      1  0.4951500000000  0.3992280000000  0.5172650000000 1.0
C      1  0.5172530000000  0.5403640000000  0.4912100000000 1.0
C      1  0.5677920000000  0.5355120000000  0.4366690000000 1.0
C      1  0.5519420000000  0.5329970000000  0.5818610000000 1.0
C      1  0.4743230000000  0.5220580000000  0.4688420000000 1.0
C      1  0.5266890000000  0.4813350000000  0.4688790000000 1.0
C      1  0.5883120000000  0.5113310000000  0.5566970000000 1.0
C      1  0.5643450000000  0.4730480000000  0.5555290000000 1.0
C      1  0.4708770000000  0.4024130000000  0.5318460000000 1.0
C      1  0.4764570000000  0.5174850000000  0.4094230000000 1.0
C      1  0.4258380000000  0.5206530000000  0.4295570000000 1.0
C      1  0.4369070000000  0.4477040000000  0.4347820000000 1.0
C      1  0.4650330000000  0.4982380000000  0.5996200000000 1.0
C      1  0.5470550000000  0.5194560000000  0.5336600000000 1.0
C      1  0.4906670000000  0.4946820000000  0.4231850000000 1.0
C      1  0.5024050000000  0.3958650000000  0.4450350000000 1.0
C      1  0.4394330000000  0.4330640000000  0.4614400000000 1.0
C      1  0.4441160000000  0.4373830000000  0.5099640000000 1.0
C      1  0.5331560000000  0.4964640000000  0.4007300000000 1.0
C      1  0.5541920000000  0.5075430000000  0.5052680000000 1.0
C      1  0.4671440000000  0.5278070000000  0.5308790000000 1.0
C      1  0.4559730000000  0.5305350000000  0.5612980000000 1.0
C      1  0.4764610000000  0.5202260000000  0.5813210000000 1.0
C      1  0.5925310000000  0.5558460000000  0.4738120000000 1.0
C      1  0.4164320000000  0.5123630000000  0.5412110000000 1.0
C      1  0.4784240000000  0.5767390000000  0.5215810000000 1.0
C      1  0.5479530000000  0.4166900000000  0.4575300000000 1.0
C      1  0.5738290000000  0.4848280000000  0.4259680000000 1.0
C      1  0.4873410000000  0.5570410000000  0.4261470000000 1.0
C      1  0.5458250000000  0.4781920000000  0.4955710000000 1.0
C      1  0.5950540000000  0.4852960000000  0.5158550000000 1.0
C      1  0.5259070000000  0.5597450000000  0.5134970000000 1.0
C      1  0.4776230000000  0.4800070000000  0.4437350000000 1.0
C      1  0.5587030000000  0.5117460000000  0.5598470000000 1.0
C      1  0.4650500000000  0.4175940000000  0.4651770000000 1.0
C      1  0.5058000000000  0.5400500000000  0.5504640000000 1.0
C      1  0.5492310000000  0.4433480000000  0.4409900000000 1.0
C      1  0.4082320000000  0.5219050000000  0.4924460000000 1.0
C      1  0.5164510000000  0.4823610000000  0.4191580000000 1.0
C      1  0.5527130000000  0.5753810000000  0.5079930000000 1.0
C      1  0.5213780000000  0.5012740000000  0.5799980000000 1.0
C      1  0.4587620000000  0.4831160000000  0.5261350000000 1.0
C      1  0.5758980000000  0.5076380000000  0.4438770000000 1.0
END
