TITL C-951344-124-386 -9.55206394952418e-07 125000 -583.21355409411 0 0 95 (C1) n - 1
REM
REM in /home/bkarasulu/work/CARBON/AIRSS/Generating-Clusters/EDIP-Nigel-Params/with-SteepDescent/Only-C1/SD-CG/HFTN-CG
REM
REM
REM
REM
REM
REM ./C.cell (11c1c37f851c82e70ff6c80c92926a4b)
REM
REM compiler GCC version 9.2.1 20190827 (Red Hat 9.2.1-1)
REM options -cpp -mtune=generic -march=x86-64 -g -O0 -fpre-include=/usr/include/finclude/math-vector-fortran.h
REM seed 1908771018 -1948026520 2035749994 -824994265 1087433277 831668947 -654404051 1796114757 419245977 -256841732 -1758204459 -1469287335 -484457116 -1218512087 -396543525 1716473890 1327636849 100439771 -263057650 -563265793 -1460451228 1374374840 1478931407 -941524309 765104115 -1456923506 1850759594 104195213 -453105733 -437255589 -819682670 -830625483 -959466077
REM
CELL 1.54180   50.00000   50.00000   50.00000   90.00000   90.00000   90.00000
LATT -1
SFAC C  
C      1  0.5774860000000  0.4933420000000  0.5429850000000 1.0
C      1  0.4731370000000  0.5359630000000  0.5146290000000 1.0
C      1  0.4851520000000  0.5236400000000  0.5816420000000 1.0
C      1  0.5393770000000  0.3969000000000  0.4950110000000 1.0
C      1  0.4274440000000  0.4668760000000  0.5225650000000 1.0
C      1  0.5130130000000  0.5382000000000  0.5768990000000 1.0
C      1  0.4527840000000  0.5570520000000  0.5052350000000 1.0
C      1  0.5524320000000  0.4183190000000  0.4859550000000 1.0
C      1  0.5603770000000  0.4444920000000  0.4894050000000 1.0
C      1  0.5411850000000  0.5641220000000  0.5462100000000 1.0
C      1  0.4406110000000  0.5294780000000  0.5544780000000 1.0
C      1  0.4675110000000  0.4413560000000  0.5405240000000 1.0
C      1  0.5262320000000  0.4986230000000  0.5082220000000 1.0
C      1  0.5122820000000  0.4229270000000  0.5309830000000 1.0
C      1  0.5139810000000  0.4687320000000  0.4080610000000 1.0
C      1  0.5233040000000  0.4027650000000  0.5154730000000 1.0
C      1  0.5589380000000  0.4771290000000  0.5606110000000 1.0
C      1  0.4474310000000  0.4366180000000  0.4606760000000 1.0
C      1  0.4767240000000  0.4491710000000  0.5685770000000 1.0
C      1  0.4884470000000  0.4646730000000  0.4198030000000 1.0
C      1  0.4753970000000  0.4534480000000  0.4949600000000 1.0
C      1  0.4612110000000  0.4814780000000  0.4981140000000 1.0
C      1  0.4148280000000  0.4693130000000  0.4720140000000 1.0
C      1  0.5392480000000  0.5765610000000  0.5186900000000 1.0
C      1  0.5134850000000  0.4803220000000  0.5814490000000 1.0
C      1  0.5568730000000  0.4592050000000  0.5163650000000 1.0
C      1  0.5759150000000  0.5233110000000  0.5412370000000 1.0
C      1  0.5941080000000  0.5227670000000  0.4957650000000 1.0
C      1  0.4822080000000  0.5369980000000  0.4186560000000 1.0
C      1  0.4919540000000  0.5730910000000  0.5476860000000 1.0
C      1  0.4322900000000  0.5414250000000  0.4911300000000 1.0
C      1  0.5307830000000  0.5744290000000  0.4670390000000 1.0
C      1  0.4843310000000  0.5445510000000  0.5419940000000 1.0
C      1  0.5575310000000  0.5623890000000  0.4701310000000 1.0
C      1  0.4724400000000  0.5702550000000  0.4865260000000 1.0
C      1  0.4670830000000  0.5605980000000  0.4592140000000 1.0
C      1  0.4293770000000  0.5128720000000  0.5351980000000 1.0
C      1  0.4889350000000  0.4617600000000  0.4695190000000 1.0
C      1  0.4303170000000  0.5086820000000  0.4622030000000 1.0
C      1  0.5754430000000  0.5004760000000  0.4935990000000 1.0
C      1  0.4869250000000  0.4469310000000  0.4437200000000 1.0
C      1  0.5074600000000  0.4533760000000  0.5696260000000 1.0
C      1  0.5364210000000  0.5351810000000  0.4846040000000 1.0
C      1  0.4937770000000  0.4959180000000  0.5385580000000 1.0
C      1  0.4676330000000  0.4260240000000  0.4439290000000 1.0
C      1  0.4099270000000  0.4870870000000  0.4494670000000 1.0
C      1  0.5620100000000  0.5418590000000  0.4506170000000 1.0
C      1  0.4421380000000  0.4418410000000  0.5239720000000 1.0
C      1  0.4644200000000  0.4736850000000  0.5800240000000 1.0
C      1  0.4345880000000  0.5262180000000  0.4377070000000 1.0
C      1  0.4909600000000  0.4440910000000  0.5226180000000 1.0
C      1  0.5290960000000  0.4783770000000  0.4308500000000 1.0
C      1  0.4914870000000  0.5914680000000  0.5267610000000 1.0
C      1  0.4884750000000  0.5538190000000  0.4402890000000 1.0
C      1  0.5162090000000  0.5536750000000  0.4502060000000 1.0
C      1  0.4345280000000  0.4860710000000  0.5424600000000 1.0
C      1  0.5458640000000  0.4578050000000  0.4424720000000 1.0
C      1  0.4221770000000  0.4831660000000  0.4976580000000 1.0
C      1  0.5384000000000  0.5222070000000  0.5729870000000 1.0
C      1  0.4982930000000  0.5353000000000  0.4939130000000 1.0
C      1  0.5070690000000  0.4677360000000  0.5334230000000 1.0
C      1  0.5218560000000  0.5817870000000  0.4945490000000 1.0
C      1  0.4396250000000  0.4792650000000  0.5687770000000 1.0
C      1  0.5782090000000  0.4806580000000  0.5163540000000 1.0
C      1  0.4693250000000  0.5023280000000  0.5202260000000 1.0
C      1  0.4308840000000  0.4788510000000  0.4285410000000 1.0
C      1  0.5436140000000  0.5058700000000  0.4320880000000 1.0
C      1  0.5107390000000  0.5246490000000  0.5404180000000 1.0
C      1  0.5278100000000  0.4349350000000  0.5540190000000 1.0
C      1  0.5165440000000  0.5666280000000  0.5632440000000 1.0
C      1  0.4996740000000  0.4886410000000  0.4708210000000 1.0
C      1  0.4483540000000  0.4670160000000  0.4520630000000 1.0
C      1  0.4401270000000  0.5468890000000  0.4605700000000 1.0
C      1  0.4993560000000  0.5044740000000  0.4963520000000 1.0
C      1  0.4555680000000  0.4913100000000  0.4695330000000 1.0
C      1  0.5219500000000  0.5421980000000  0.5135140000000 1.0
C      1  0.4869540000000  0.4938010000000  0.5766120000000 1.0
C      1  0.4443790000000  0.5049900000000  0.4186090000000 1.0
C      1  0.4734410000000  0.5116600000000  0.4105310000000 1.0
C      1  0.5703850000000  0.5051510000000  0.4442040000000 1.0
C      1  0.5543440000000  0.4492290000000  0.5470260000000 1.0
C      1  0.4538580000000  0.4336890000000  0.4891380000000 1.0
C      1  0.5017500000000  0.5016040000000  0.4461830000000 1.0
C      1  0.5362730000000  0.5339950000000  0.4402960000000 1.0
C      1  0.5610360000000  0.4618670000000  0.4656280000000 1.0
C      1  0.4782330000000  0.4904700000000  0.4318410000000 1.0
C      1  0.5294310000000  0.4716860000000  0.5146400000000 1.0
C      1  0.5901680000000  0.5342130000000  0.5198960000000 1.0
C      1  0.4659110000000  0.5371910000000  0.5636070000000 1.0
C      1  0.5472150000000  0.5097070000000  0.4926520000000 1.0
C      1  0.5758130000000  0.4871790000000  0.4667520000000 1.0
C      1  0.5360640000000  0.4933080000000  0.5696240000000 1.0
C      1  0.5520100000000  0.5363060000000  0.5515130000000 1.0
C      1  0.4259470000000  0.5150230000000  0.5055410000000 1.0
C      1  0.4936990000000  0.5872910000000  0.4993430000000 1.0
END
