TITL C-951346-9544-774 -1.26821551777539e-06 125000 -570.398483315197 0 0 92 (C1) n - 1
REM
REM in /home/bkarasulu/work/CARBON/AIRSS/Generating-Clusters/EDIP-Nigel-Params/with-SteepDescent/Only-C1/SD-CG/HFTN-CG
REM
REM
REM
REM
REM
REM ./C.cell (11c1c37f851c82e70ff6c80c92926a4b)
REM
REM compiler GCC version 9.2.1 20190827 (Red Hat 9.2.1-1)
REM options -cpp -mtune=generic -march=x86-64 -g -O0 -fpre-include=/usr/include/finclude/math-vector-fortran.h
REM seed 1567790750 1190513817 -211737168 -1325159719 -355208470 -982021939 -1998819701 2061282215 -741821480 -781956028 1779087882 1475225256 -19051847 1832509932 1853386673 1054904638 -291574479 1007186955 1641176737 -1921238292 -1444262228 536798349 1998279694 -1471392637 -302098628 1088837718 -1280271048 281823507 528448621 -437928157 701035717 1821959178 794356381
REM
CELL 1.54180   50.00000   50.00000   50.00000   90.00000   90.00000   90.00000
LATT -1
SFAC C  
C      1  0.5328920000000  0.5743060000000  0.5318520000000 1.0
C      1  0.5299180000000  0.4986090000000  0.5118980000000 1.0
C      1  0.4562980000000  0.4408100000000  0.4813130000000 1.0
C      1  0.4738870000000  0.4345480000000  0.4413700000000 1.0
C      1  0.4630680000000  0.4919820000000  0.5705360000000 1.0
C      1  0.5275840000000  0.4402490000000  0.5144840000000 1.0
C      1  0.5143800000000  0.5471130000000  0.5760760000000 1.0
C      1  0.4273920000000  0.5153210000000  0.5407230000000 1.0
C      1  0.5155710000000  0.4680230000000  0.5054520000000 1.0
C      1  0.4826810000000  0.4786060000000  0.5326780000000 1.0
C      1  0.4569420000000  0.5166540000000  0.4320860000000 1.0
C      1  0.4426460000000  0.5578590000000  0.5111290000000 1.0
C      1  0.4660960000000  0.4824000000000  0.4922400000000 1.0
C      1  0.4900830000000  0.5668930000000  0.5160090000000 1.0
C      1  0.5030170000000  0.4323570000000  0.4406100000000 1.0
C      1  0.5827220000000  0.4903680000000  0.4908350000000 1.0
C      1  0.5512180000000  0.5359640000000  0.4950980000000 1.0
C      1  0.4563890000000  0.5538510000000  0.4664110000000 1.0
C      1  0.5354600000000  0.5256210000000  0.5770410000000 1.0
C      1  0.5136380000000  0.5688180000000  0.5542300000000 1.0
C      1  0.5096580000000  0.5101070000000  0.5527300000000 1.0
C      1  0.5074220000000  0.5679220000000  0.4474800000000 1.0
C      1  0.4998540000000  0.5240370000000  0.4206660000000 1.0
C      1  0.4687290000000  0.5788640000000  0.4757490000000 1.0
C      1  0.5584940000000  0.5629310000000  0.5351590000000 1.0
C      1  0.5286950000000  0.4759300000000  0.4753310000000 1.0
C      1  0.4823390000000  0.4769290000000  0.4180960000000 1.0
C      1  0.5783990000000  0.5103880000000  0.4719480000000 1.0
C      1  0.4511250000000  0.4436420000000  0.5324130000000 1.0
C      1  0.5629290000000  0.5119700000000  0.4484460000000 1.0
C      1  0.4391300000000  0.5013370000000  0.4486550000000 1.0
C      1  0.4862020000000  0.5285590000000  0.4872480000000 1.0
C      1  0.4679050000000  0.5068240000000  0.4735470000000 1.0
C      1  0.4277740000000  0.4813770000000  0.4950240000000 1.0
C      1  0.5467350000000  0.5369410000000  0.4376110000000 1.0
C      1  0.4405690000000  0.4897410000000  0.5501540000000 1.0
C      1  0.5100630000000  0.4255180000000  0.4941360000000 1.0
C      1  0.4668090000000  0.5576870000000  0.5843950000000 1.0
C      1  0.5264700000000  0.5480860000000  0.4580180000000 1.0
C      1  0.5452210000000  0.4443550000000  0.4588310000000 1.0
C      1  0.5195600000000  0.4287240000000  0.4653030000000 1.0
C      1  0.4902330000000  0.5355650000000  0.5157540000000 1.0
C      1  0.5519420000000  0.5057070000000  0.5628950000000 1.0
C      1  0.5194120000000  0.5767650000000  0.5019110000000 1.0
C      1  0.4544670000000  0.4734430000000  0.5279990000000 1.0
C      1  0.5417210000000  0.4932850000000  0.4368410000000 1.0
C      1  0.5674990000000  0.4888490000000  0.5168980000000 1.0
C      1  0.5131050000000  0.4550060000000  0.4242210000000 1.0
C      1  0.4655770000000  0.4618290000000  0.4357580000000 1.0
C      1  0.4870410000000  0.5755750000000  0.5442900000000 1.0
C      1  0.5572220000000  0.4425450000000  0.5091290000000 1.0
C      1  0.4895850000000  0.5521680000000  0.4288350000000 1.0
C      1  0.4884110000000  0.4625950000000  0.4836930000000 1.0
C      1  0.5638310000000  0.5120630000000  0.5365130000000 1.0
C      1  0.4623170000000  0.5646150000000  0.5574910000000 1.0
C      1  0.4581870000000  0.4276530000000  0.5080170000000 1.0
C      1  0.4767810000000  0.5048520000000  0.4127710000000 1.0
C      1  0.5071860000000  0.4685870000000  0.5722260000000 1.0
C      1  0.4969990000000  0.5821510000000  0.4710460000000 1.0
C      1  0.5028190000000  0.4737160000000  0.4566930000000 1.0
C      1  0.4695240000000  0.5267940000000  0.5350800000000 1.0
C      1  0.4270990000000  0.5141640000000  0.4894080000000 1.0
C      1  0.5114430000000  0.5231430000000  0.4701040000000 1.0
C      1  0.5227560000000  0.4457900000000  0.5671090000000 1.0
C      1  0.4640890000000  0.5777200000000  0.5045770000000 1.0
C      1  0.5633100000000  0.4585300000000  0.5552300000000 1.0
C      1  0.5876500000000  0.4655270000000  0.4789780000000 1.0
C      1  0.4429400000000  0.5394400000000  0.4883660000000 1.0
C      1  0.4138280000000  0.5111810000000  0.5154790000000 1.0
C      1  0.4413460000000  0.4727360000000  0.4481980000000 1.0
C      1  0.4863360000000  0.5374610000000  0.5829300000000 1.0
C      1  0.5147280000000  0.5211200000000  0.5262630000000 1.0
C      1  0.5294410000000  0.5169070000000  0.4202460000000 1.0
C      1  0.5381130000000  0.5594020000000  0.4834120000000 1.0
C      1  0.5505910000000  0.4778790000000  0.5696660000000 1.0
C      1  0.4338230000000  0.4601440000000  0.4738190000000 1.0
C      1  0.5193410000000  0.4308850000000  0.5428680000000 1.0
C      1  0.5640500000000  0.4508160000000  0.4819130000000 1.0
C      1  0.4936060000000  0.5026990000000  0.4526030000000 1.0
C      1  0.4809970000000  0.5164870000000  0.5612140000000 1.0
C      1  0.4919650000000  0.4201940000000  0.5405170000000 1.0
C      1  0.4598770000000  0.4205030000000  0.4610630000000 1.0
C      1  0.5696910000000  0.4612670000000  0.5282160000000 1.0
C      1  0.5074700000000  0.4821550000000  0.5465680000000 1.0
C      1  0.5558190000000  0.5373100000000  0.5238110000000 1.0
C      1  0.5360330000000  0.5099660000000  0.4837360000000 1.0
C      1  0.5396160000000  0.4638400000000  0.4345850000000 1.0
C      1  0.4700810000000  0.4359060000000  0.5537130000000 1.0
C      1  0.4468890000000  0.5452040000000  0.5383260000000 1.0
C      1  0.4778080000000  0.4653100000000  0.5746780000000 1.0
C      1  0.4635130000000  0.5440820000000  0.4398500000000 1.0
C      1  0.4859300000000  0.4162470000000  0.5114810000000 1.0
END
