TITL C-950521-2237-14 1.51388825708219e-06 125000 -825.844718760012 0 0 132 (C1) n - 1
REM
REM in /home/bkarasulu/work/CARBON/AIRSS/Generating-Clusters/EDIP-Nigel-Params/with-SteepDescent/Only-C1/SD-CG/HFTN-CG
REM
REM
REM
REM
REM
REM ./C.cell (11c1c37f851c82e70ff6c80c92926a4b)
REM
REM compiler GCC version 9.2.1 20190827 (Red Hat 9.2.1-1)
REM options -cpp -mtune=generic -march=x86-64 -g -O0 -fpre-include=/usr/include/finclude/math-vector-fortran.h
REM seed -195672860 -483950175 707621478 676691096 -1227937094 -2091835707 1309163693 546994517 -48233781 -744109184 160583335 746038854 1930855171 1127713108 1738873300 -1785210917 -1273782281 -1294585232 1932125568 -608495666 -174747428 -782259396 1912185535 1721360987 1546773382 -1707718640 441771721 -903259775 -1550749021 504620488 -327559706 545166300 509898980
REM
CELL 1.54180   50.00000   50.00000   50.00000   90.00000   90.00000   90.00000
LATT -1
SFAC C  
C      1  0.5945480000000  0.4882770000000  0.5199030000000 1.0
C      1  0.4710820000000  0.4901950000000  0.5253130000000 1.0
C      1  0.4528710000000  0.4520560000000  0.4975360000000 1.0
C      1  0.4358720000000  0.5015830000000  0.5705280000000 1.0
C      1  0.4871880000000  0.5470090000000  0.4897080000000 1.0
C      1  0.5100530000000  0.4918060000000  0.4113060000000 1.0
C      1  0.4556810000000  0.5320310000000  0.4183510000000 1.0
C      1  0.5706980000000  0.5769230000000  0.5172150000000 1.0
C      1  0.4958760000000  0.5122850000000  0.3929410000000 1.0
C      1  0.5606460000000  0.5388820000000  0.5813750000000 1.0
C      1  0.5419610000000  0.5017860000000  0.5475060000000 1.0
C      1  0.5826550000000  0.5150580000000  0.5152250000000 1.0
C      1  0.5678720000000  0.4417420000000  0.4829420000000 1.0
C      1  0.5006780000000  0.5451600000000  0.4281270000000 1.0
C      1  0.5541110000000  0.5345650000000  0.4306100000000 1.0
C      1  0.5017870000000  0.4580050000000  0.5224860000000 1.0
C      1  0.4144560000000  0.4598950000000  0.4782830000000 1.0
C      1  0.5494420000000  0.4207110000000  0.4898140000000 1.0
C      1  0.5806930000000  0.4716070000000  0.4478640000000 1.0
C      1  0.4509050000000  0.4432880000000  0.5268150000000 1.0
C      1  0.5005790000000  0.5193880000000  0.4515620000000 1.0
C      1  0.4638950000000  0.4061610000000  0.4854130000000 1.0
C      1  0.5837750000000  0.4766740000000  0.5458020000000 1.0
C      1  0.5744700000000  0.5605440000000  0.4913140000000 1.0
C      1  0.4227120000000  0.4990450000000  0.5112610000000 1.0
C      1  0.4615450000000  0.5676670000000  0.4489260000000 1.0
C      1  0.4712950000000  0.5904520000000  0.4934200000000 1.0
C      1  0.5194710000000  0.4458940000000  0.5764900000000 1.0
C      1  0.5511180000000  0.5073260000000  0.4780950000000 1.0
C      1  0.4458200000000  0.4767940000000  0.4357960000000 1.0
C      1  0.4659890000000  0.5620930000000  0.5597410000000 1.0
C      1  0.4840830000000  0.5475220000000  0.5788990000000 1.0
C      1  0.4083810000000  0.4861890000000  0.5324310000000 1.0
C      1  0.5514210000000  0.4090140000000  0.5149930000000 1.0
C      1  0.5163780000000  0.5023370000000  0.5114940000000 1.0
C      1  0.5388210000000  0.4441650000000  0.4365670000000 1.0
C      1  0.5792140000000  0.5256500000000  0.5618730000000 1.0
C      1  0.4046480000000  0.4497960000000  0.5077460000000 1.0
C      1  0.5490170000000  0.4859200000000  0.4070710000000 1.0
C      1  0.4836970000000  0.4186560000000  0.5556630000000 1.0
C      1  0.5630960000000  0.4503010000000  0.4552210000000 1.0
C      1  0.5227360000000  0.4629810000000  0.4674840000000 1.0
C      1  0.5127670000000  0.4808660000000  0.5917740000000 1.0
C      1  0.5225990000000  0.5918590000000  0.5041880000000 1.0
C      1  0.4216810000000  0.4387110000000  0.5308150000000 1.0
C      1  0.4946710000000  0.5978180000000  0.5100000000000 1.0
C      1  0.5120380000000  0.5157640000000  0.5384570000000 1.0
C      1  0.5309210000000  0.4202270000000  0.5302370000000 1.0
C      1  0.5804580000000  0.4960780000000  0.5691430000000 1.0
C      1  0.5112030000000  0.5097410000000  0.5974780000000 1.0
C      1  0.4950490000000  0.5598750000000  0.5168420000000 1.0
C      1  0.5296090000000  0.5837210000000  0.4779640000000 1.0
C      1  0.5425100000000  0.5439950000000  0.5172450000000 1.0
C      1  0.5569740000000  0.4672810000000  0.5097480000000 1.0
C      1  0.5923210000000  0.4696890000000  0.4958640000000 1.0
C      1  0.4363670000000  0.5228410000000  0.5234340000000 1.0
C      1  0.5075960000000  0.4157960000000  0.4646540000000 1.0
C      1  0.4255130000000  0.5652790000000  0.5374430000000 1.0
C      1  0.4689830000000  0.5599540000000  0.5297580000000 1.0
C      1  0.5123830000000  0.5351320000000  0.4022060000000 1.0
C      1  0.5422980000000  0.5825150000000  0.5228310000000 1.0
C      1  0.4838020000000  0.5184430000000  0.5874090000000 1.0
C      1  0.4082660000000  0.5402770000000  0.4941100000000 1.0
C      1  0.5695170000000  0.4918790000000  0.4296750000000 1.0
C      1  0.4479740000000  0.5225090000000  0.5520480000000 1.0
C      1  0.4426110000000  0.4826520000000  0.4934760000000 1.0
C      1  0.4606180000000  0.5299140000000  0.4945240000000 1.0
C      1  0.4604950000000  0.5034750000000  0.4798260000000 1.0
C      1  0.4948910000000  0.4818880000000  0.5074460000000 1.0
C      1  0.5090110000000  0.4308240000000  0.5118510000000 1.0
C      1  0.4309690000000  0.4390600000000  0.4621050000000 1.0
C      1  0.3889870000000  0.4682360000000  0.5224220000000 1.0
C      1  0.5466330000000  0.5591830000000  0.4430980000000 1.0
C      1  0.5227370000000  0.5047470000000  0.4371990000000 1.0
C      1  0.5187080000000  0.5675050000000  0.4370230000000 1.0
C      1  0.4792640000000  0.4236810000000  0.4680920000000 1.0
C      1  0.5367300000000  0.5350720000000  0.4856170000000 1.0
C      1  0.4816270000000  0.4099970000000  0.5105140000000 1.0
C      1  0.5123910000000  0.4299430000000  0.4396410000000 1.0
C      1  0.4942980000000  0.4729900000000  0.4758480000000 1.0
C      1  0.5089430000000  0.5598290000000  0.5805700000000 1.0
C      1  0.4692210000000  0.5086250000000  0.4061820000000 1.0
C      1  0.4499330000000  0.5729250000000  0.5088660000000 1.0
C      1  0.4376290000000  0.4198190000000  0.4837390000000 1.0
C      1  0.5172930000000  0.5458590000000  0.5336130000000 1.0
C      1  0.4612100000000  0.4962630000000  0.5853860000000 1.0
C      1  0.5040300000000  0.4612590000000  0.4097030000000 1.0
C      1  0.5889780000000  0.5331860000000  0.4918410000000 1.0
C      1  0.5588700000000  0.4621450000000  0.5389800000000 1.0
C      1  0.4385230000000  0.5523200000000  0.5607200000000 1.0
C      1  0.4373280000000  0.5494790000000  0.4868860000000 1.0
C      1  0.4798280000000  0.4953820000000  0.4576650000000 1.0
C      1  0.5625810000000  0.5239470000000  0.5351460000000 1.0
C      1  0.5386360000000  0.5167870000000  0.5834090000000 1.0
C      1  0.5406240000000  0.4878970000000  0.4557100000000 1.0
C      1  0.4782790000000  0.4487320000000  0.4829950000000 1.0
C      1  0.4816830000000  0.5725570000000  0.4712400000000 1.0
C      1  0.5747260000000  0.5657530000000  0.5433910000000 1.0
C      1  0.5803600000000  0.5129460000000  0.4700070000000 1.0
C      1  0.5161800000000  0.4683460000000  0.5452730000000 1.0
C      1  0.5408880000000  0.4390910000000  0.5520320000000 1.0
C      1  0.5254610000000  0.5620540000000  0.5582570000000 1.0
C      1  0.4929140000000  0.4325250000000  0.5775660000000 1.0
C      1  0.5229450000000  0.4325570000000  0.4840510000000 1.0
C      1  0.4360660000000  0.5273060000000  0.4400700000000 1.0
C      1  0.5935880000000  0.4853840000000  0.4706690000000 1.0
C      1  0.5547950000000  0.5626030000000  0.5645760000000 1.0
C      1  0.4878290000000  0.4461500000000  0.4308450000000 1.0
C      1  0.5487940000000  0.5611100000000  0.4728900000000 1.0
C      1  0.4137040000000  0.5428380000000  0.5239680000000 1.0
C      1  0.4986700000000  0.4828110000000  0.5652970000000 1.0
C      1  0.4666780000000  0.4183080000000  0.5337850000000 1.0
C      1  0.5400230000000  0.5237670000000  0.4072530000000 1.0
C      1  0.4299680000000  0.4985040000000  0.4483210000000 1.0
C      1  0.5541240000000  0.4913090000000  0.5810070000000 1.0
C      1  0.5767710000000  0.5195720000000  0.4399470000000 1.0
C      1  0.4085490000000  0.4900540000000  0.4670980000000 1.0
C      1  0.5076870000000  0.5829540000000  0.4593620000000 1.0
C      1  0.4803200000000  0.5107690000000  0.5446280000000 1.0
C      1  0.4714020000000  0.4712570000000  0.5708220000000 1.0
C      1  0.5082690000000  0.5302680000000  0.4782840000000 1.0
C      1  0.4382010000000  0.5521550000000  0.4570900000000 1.0
C      1  0.4724350000000  0.4479800000000  0.5882790000000 1.0
C      1  0.5449470000000  0.4944160000000  0.5041920000000 1.0
C      1  0.4688270000000  0.4849070000000  0.4226300000000 1.0
C      1  0.4531920000000  0.4498940000000  0.4442270000000 1.0
C      1  0.4564960000000  0.4693740000000  0.5428280000000 1.0
C      1  0.4726990000000  0.5551200000000  0.4245110000000 1.0
C      1  0.4031300000000  0.5096660000000  0.4907040000000 1.0
C      1  0.4157330000000  0.4496300000000  0.5571500000000 1.0
C      1  0.5359810000000  0.4578270000000  0.4101150000000 1.0
C      1  0.4273590000000  0.4769310000000  0.5531050000000 1.0
END
