TITL C-950526-5686-706 -2.38656688043877e-06 125000 -623.730051687401 0 0 102 (C1) n - 1
REM
REM in /home/bkarasulu/work/CARBON/AIRSS/Generating-Clusters/EDIP-Nigel-Params/with-SteepDescent/Only-C1/SD-CG/HFTN-CG
REM
REM
REM
REM
REM
REM ./C.cell (11c1c37f851c82e70ff6c80c92926a4b)
REM
REM compiler GCC version 9.2.1 20190827 (Red Hat 9.2.1-1)
REM options -cpp -mtune=generic -march=x86-64 -g -O0 -fpre-include=/usr/include/finclude/math-vector-fortran.h
REM seed -267486955 795969475 942756780 106595370 -1368641176 -880411136 -566721600 -994595564 -1376691339 1567082850 1401547452 560583207 1206753806 -1517567748 -1207945955 -1808137735 -1734536102 2088011189 797217274 1902873210 -135209530 -1625500459 456749795 685755647 -748173500 1469759201 -362836635 1571798755 -2040844694 204709780 333718739 759974589 1355603296
REM
CELL 1.54180   50.00000   50.00000   50.00000   90.00000   90.00000   90.00000
LATT -1
SFAC C  
C      1  0.4264220000000  0.5288120000000  0.5373640000000 1.0
C      1  0.5458140000000  0.5108920000000  0.5232530000000 1.0
C      1  0.4821910000000  0.5133250000000  0.5873720000000 1.0
C      1  0.4616070000000  0.5640390000000  0.5300490000000 1.0
C      1  0.5933260000000  0.4945480000000  0.5176080000000 1.0
C      1  0.4586680000000  0.5527540000000  0.4805360000000 1.0
C      1  0.5259960000000  0.4582220000000  0.4271460000000 1.0
C      1  0.5520410000000  0.4726120000000  0.5614460000000 1.0
C      1  0.4644380000000  0.5492660000000  0.4129050000000 1.0
C      1  0.4920860000000  0.5096300000000  0.4019880000000 1.0
C      1  0.5023990000000  0.5477080000000  0.5079590000000 1.0
C      1  0.4492520000000  0.4722410000000  0.5463770000000 1.0
C      1  0.5118120000000  0.5833430000000  0.5535330000000 1.0
C      1  0.5569570000000  0.5163620000000  0.4458570000000 1.0
C      1  0.4805200000000  0.4830130000000  0.4044830000000 1.0
C      1  0.5199340000000  0.4977800000000  0.5133970000000 1.0
C      1  0.4773670000000  0.4281580000000  0.5509750000000 1.0
C      1  0.5643410000000  0.5421430000000  0.4588860000000 1.0
C      1  0.5542520000000  0.5333380000000  0.4867000000000 1.0
C      1  0.4754000000000  0.5712740000000  0.4653350000000 1.0
C      1  0.4374320000000  0.5488840000000  0.5193550000000 1.0
C      1  0.5079580000000  0.5373780000000  0.5345310000000 1.0
C      1  0.4472220000000  0.4769840000000  0.5768590000000 1.0
C      1  0.4646460000000  0.5243580000000  0.4722980000000 1.0
C      1  0.5353000000000  0.4269120000000  0.4599290000000 1.0
C      1  0.5474320000000  0.5415930000000  0.5633590000000 1.0
C      1  0.4187010000000  0.5556480000000  0.4987270000000 1.0
C      1  0.5193890000000  0.5046670000000  0.4140160000000 1.0
C      1  0.5540750000000  0.4605160000000  0.4341070000000 1.0
C      1  0.5023770000000  0.4448450000000  0.5257730000000 1.0
C      1  0.4291370000000  0.5500060000000  0.4729760000000 1.0
C      1  0.5148920000000  0.4340950000000  0.4394930000000 1.0
C      1  0.4306550000000  0.5001630000000  0.5771370000000 1.0
C      1  0.5525060000000  0.5620950000000  0.5196360000000 1.0
C      1  0.4963140000000  0.4430010000000  0.5693070000000 1.0
C      1  0.4942140000000  0.4297790000000  0.4822260000000 1.0
C      1  0.5179830000000  0.5906380000000  0.4808290000000 1.0
C      1  0.4752580000000  0.5234830000000  0.4228830000000 1.0
C      1  0.4877300000000  0.5893850000000  0.4850680000000 1.0
C      1  0.5327040000000  0.4502440000000  0.5636660000000 1.0
C      1  0.4745360000000  0.4171540000000  0.5023070000000 1.0
C      1  0.4870080000000  0.5250120000000  0.4518710000000 1.0
C      1  0.4550360000000  0.4438490000000  0.5387340000000 1.0
C      1  0.5258500000000  0.5456840000000  0.4886640000000 1.0
C      1  0.5368320000000  0.4102710000000  0.5049200000000 1.0
C      1  0.4741420000000  0.4838190000000  0.5875480000000 1.0
C      1  0.4311780000000  0.4906340000000  0.5016600000000 1.0
C      1  0.4969220000000  0.5551140000000  0.4532310000000 1.0
C      1  0.5736710000000  0.5423120000000  0.5092170000000 1.0
C      1  0.4943710000000  0.4716090000000  0.5709660000000 1.0
C      1  0.5458110000000  0.4195610000000  0.5282400000000 1.0
C      1  0.5222540000000  0.5642280000000  0.4663370000000 1.0
C      1  0.5840110000000  0.4848960000000  0.4755160000000 1.0
C      1  0.4216520000000  0.4660430000000  0.4861530000000 1.0
C      1  0.5782140000000  0.4689680000000  0.5166650000000 1.0
C      1  0.4881660000000  0.4357790000000  0.4521500000000 1.0
C      1  0.5303350000000  0.5898470000000  0.5085750000000 1.0
C      1  0.4519210000000  0.4870090000000  0.4536780000000 1.0
C      1  0.4379540000000  0.4417490000000  0.4492730000000 1.0
C      1  0.5215380000000  0.5419840000000  0.5786560000000 1.0
C      1  0.5212480000000  0.4163340000000  0.4828510000000 1.0
C      1  0.5482010000000  0.4985010000000  0.5752520000000 1.0
C      1  0.4289880000000  0.4683130000000  0.4581230000000 1.0
C      1  0.4351460000000  0.4225150000000  0.4699300000000 1.0
C      1  0.4733050000000  0.5549210000000  0.5565090000000 1.0
C      1  0.5009210000000  0.5050490000000  0.5359070000000 1.0
C      1  0.4913060000000  0.4151780000000  0.5266920000000 1.0
C      1  0.5459830000000  0.5629140000000  0.4470700000000 1.0
C      1  0.5132900000000  0.4925340000000  0.5616280000000 1.0
C      1  0.4693010000000  0.4962660000000  0.5316050000000 1.0
C      1  0.5516280000000  0.4728370000000  0.5304890000000 1.0
C      1  0.4463680000000  0.5294340000000  0.4173520000000 1.0
C      1  0.5658990000000  0.5186070000000  0.5625780000000 1.0
C      1  0.4649340000000  0.4747340000000  0.4276690000000 1.0
C      1  0.5340120000000  0.5244570000000  0.4293620000000 1.0
C      1  0.4764040000000  0.4820000000000  0.4768430000000 1.0
C      1  0.4552910000000  0.4380190000000  0.5102320000000 1.0
C      1  0.4869430000000  0.5735620000000  0.5121260000000 1.0
C      1  0.5784600000000  0.4591770000000  0.4883740000000 1.0
C      1  0.5780640000000  0.5178860000000  0.5297700000000 1.0
C      1  0.5025680000000  0.5565980000000  0.5586610000000 1.0
C      1  0.4966460000000  0.4575910000000  0.4969140000000 1.0
C      1  0.6025630000000  0.4994150000000  0.4913590000000 1.0
C      1  0.4986060000000  0.4964780000000  0.4590270000000 1.0
C      1  0.4215020000000  0.4790550000000  0.5365340000000 1.0
C      1  0.5357040000000  0.4768950000000  0.4723970000000 1.0
C      1  0.4132490000000  0.5054020000000  0.5245080000000 1.0
C      1  0.4318800000000  0.4388210000000  0.4931140000000 1.0
C      1  0.5378680000000  0.5395500000000  0.5351480000000 1.0
C      1  0.5220610000000  0.4734150000000  0.4977670000000 1.0
C      1  0.5573400000000  0.4983660000000  0.4709060000000 1.0
C      1  0.4644390000000  0.4455210000000  0.4354620000000 1.0
C      1  0.5516420000000  0.4530540000000  0.4624990000000 1.0
C      1  0.4369120000000  0.5207410000000  0.4596480000000 1.0
C      1  0.5072530000000  0.5903650000000  0.5271390000000 1.0
C      1  0.5134560000000  0.5140900000000  0.5851850000000 1.0
C      1  0.4651400000000  0.5304620000000  0.5692610000000 1.0
C      1  0.5078060000000  0.4824240000000  0.4317420000000 1.0
C      1  0.5373170000000  0.5517070000000  0.4217280000000 1.0
C      1  0.4448290000000  0.5152850000000  0.5557860000000 1.0
C      1  0.5320360000000  0.4441740000000  0.5339550000000 1.0
C      1  0.4613430000000  0.4976990000000  0.5011930000000 1.0
END
