TITL C-951334-9093-97 4.92335289963765e-06 125000 -33.8168044055686 0 0 7 (C1) n - 1
REM
REM in /home/bkarasulu/work/CARBON/AIRSS/Generating-Clusters/EDIP-Nigel-Params/with-SteepDescent/Only-C1/SD-CG/HFTN-CG
REM
REM
REM
REM
REM
REM ./C.cell (11c1c37f851c82e70ff6c80c92926a4b)
REM
REM compiler GCC version 9.2.1 20190827 (Red Hat 9.2.1-1)
REM options -cpp -mtune=generic -march=x86-64 -g -O0 -fpre-include=/usr/include/finclude/math-vector-fortran.h
REM seed -1746472888 381428699 1345593920 1210505218 958892363 1233749877 -974658757 -1325995967 870055544 -56759691 801584672 -149761690 1179092356 -1546419308 -1299180735 -1682065536 300813345 -311362352 -800932344 518072677 -701947757 201149104 1329800762 -981803552 2067430916 447603887 -1861227704 1285916675 -307461185 458197448 153596871 -1673578574 -712881361
REM
CELL 1.54180   50.00000   50.00000   50.00000   90.00000   90.00000   90.00000
LATT -1
SFAC C  
C      1  0.5087350000000  0.5163050000000  0.5067590000000 1.0
C      1  0.5354790000000  0.5099930000000  0.5138680000000 1.0
C      1  0.4881890000000  0.4968370000000  0.5018240000000 1.0
C      1  0.4903020000000  0.4833390000000  0.4779890000000 1.0
C      1  0.4637810000000  0.5039610000000  0.5092240000000 1.0
C      1  0.5198180000000  0.5219680000000  0.5322690000000 1.0
C      1  0.4936970000000  0.4675990000000  0.4580660000000 1.0
END
