TITL C-951342-2639-78 1.27575210715381e-07 125000 -178.212287054438 0 0 30 (C1) n - 1
REM
REM in /home/bkarasulu/work/CARBON/AIRSS/Generating-Clusters/EDIP-Nigel-Params/with-SteepDescent/Only-C1/SD-CG/HFTN-CG
REM
REM
REM
REM
REM
REM ./C.cell (11c1c37f851c82e70ff6c80c92926a4b)
REM
REM compiler GCC version 9.2.1 20190827 (Red Hat 9.2.1-1)
REM options -cpp -mtune=generic -march=x86-64 -g -O0 -fpre-include=/usr/include/finclude/math-vector-fortran.h
REM seed -436100387 1279122782 1769199886 -1555905440 2001819657 799511370 -1880533000 953978272 1540011507 699142814 1358957567 290049609 -1407425802 1774243764 1365356891 -735635081 -478933095 -279784177 1532758734 -1740988520 -2133409411 398500055 182757748 -82054648 1556616504 1434864567 1554268830 -922415643 1078873036 1573238904 -1232331327 -1233380736 -248156625
REM
CELL 1.54180   50.00000   50.00000   50.00000   90.00000   90.00000   90.00000
LATT -1
SFAC C  
C      1  0.4454840000000  0.5169060000000  0.4868790000000 1.0
C      1  0.4957170000000  0.4780750000000  0.5541030000000 1.0
C      1  0.4804440000000  0.4864120000000  0.4544880000000 1.0
C      1  0.4465490000000  0.4701060000000  0.5100820000000 1.0
C      1  0.5561740000000  0.5373930000000  0.4742630000000 1.0
C      1  0.5348970000000  0.4636490000000  0.5024080000000 1.0
C      1  0.5156320000000  0.5519230000000  0.4496360000000 1.0
C      1  0.5150610000000  0.4957570000000  0.5621090000000 1.0
C      1  0.5552740000000  0.4954070000000  0.4977670000000 1.0
C      1  0.4841260000000  0.4498350000000  0.5310140000000 1.0
C      1  0.5294120000000  0.5164040000000  0.5534200000000 1.0
C      1  0.4719300000000  0.5258220000000  0.4811650000000 1.0
C      1  0.5308370000000  0.5299330000000  0.5304460000000 1.0
C      1  0.4604400000000  0.4552530000000  0.4900140000000 1.0
C      1  0.4618380000000  0.5094140000000  0.5329680000000 1.0
C      1  0.4908840000000  0.5272600000000  0.5045670000000 1.0
C      1  0.5579650000000  0.4696040000000  0.4881420000000 1.0
C      1  0.5388940000000  0.5163880000000  0.4846010000000 1.0
C      1  0.5410180000000  0.5530000000000  0.4583040000000 1.0
C      1  0.4808440000000  0.5154670000000  0.4541090000000 1.0
C      1  0.4680350000000  0.4862130000000  0.5507490000000 1.0
C      1  0.5200660000000  0.5283680000000  0.5049900000000 1.0
C      1  0.4577960000000  0.4618280000000  0.5369860000000 1.0
C      1  0.5086530000000  0.4666820000000  0.4914390000000 1.0
C      1  0.4860780000000  0.4515930000000  0.5020390000000 1.0
C      1  0.4790560000000  0.5317320000000  0.5299930000000 1.0
C      1  0.5083770000000  0.5247940000000  0.4464990000000 1.0
C      1  0.4493620000000  0.4995360000000  0.5088800000000 1.0
C      1  0.5233730000000  0.5042260000000  0.4615740000000 1.0
C      1  0.5057820000000  0.4810190000000  0.4663640000000 1.0
END
