TITL C-950524-1808-626 -1.64971655694779e-06 125000 -460.298440551407 0 0 76 (C1) n - 1
REM
REM in /home/bkarasulu/work/CARBON/AIRSS/Generating-Clusters/EDIP-Nigel-Params/with-SteepDescent/Only-C1/SD-CG/HFTN-CG
REM
REM
REM
REM
REM
REM ./C.cell (11c1c37f851c82e70ff6c80c92926a4b)
REM
REM compiler GCC version 9.2.1 20190827 (Red Hat 9.2.1-1)
REM options -cpp -mtune=generic -march=x86-64 -g -O0 -fpre-include=/usr/include/finclude/math-vector-fortran.h
REM seed -1636033800 1465805568 1504763422 -250243271 -2101974868 1033506470 -1776446965 -758176874 1694189769 -799691878 -2018860647 96490242 -1903059770 469882334 1049216588 1517463174 -10876856 -2002863514 984065445 2037923680 1223538845 1704214967 -1315602496 -745663789 159669782 75118878 1857014805 267586044 -1317474394 188250105 247927764 -1874222501 -1652873230
REM
CELL 1.54180   50.00000   50.00000   50.00000   90.00000   90.00000   90.00000
LATT -1
SFAC C  
C      1  0.4688370000000  0.4999900000000  0.5036210000000 1.0
C      1  0.4729540000000  0.4236620000000  0.5232830000000 1.0
C      1  0.5356180000000  0.4523380000000  0.5599860000000 1.0
C      1  0.5228990000000  0.5505720000000  0.5723700000000 1.0
C      1  0.5238790000000  0.5720790000000  0.4919150000000 1.0
C      1  0.4609980000000  0.4600870000000  0.4607560000000 1.0
C      1  0.5120370000000  0.5569510000000  0.4486080000000 1.0
C      1  0.4898820000000  0.4848040000000  0.4683810000000 1.0
C      1  0.5734210000000  0.4847480000000  0.4684160000000 1.0
C      1  0.4697630000000  0.5192370000000  0.5485650000000 1.0
C      1  0.5683900000000  0.5332390000000  0.4855160000000 1.0
C      1  0.4425280000000  0.4679500000000  0.5524790000000 1.0
C      1  0.5807490000000  0.4978710000000  0.4924540000000 1.0
C      1  0.4367040000000  0.4843290000000  0.5299700000000 1.0
C      1  0.4740280000000  0.5763870000000  0.5252700000000 1.0
C      1  0.5172140000000  0.5201800000000  0.4905560000000 1.0
C      1  0.5090800000000  0.4269870000000  0.4901500000000 1.0
C      1  0.5154460000000  0.5172400000000  0.5350060000000 1.0
C      1  0.5482220000000  0.5256370000000  0.5063110000000 1.0
C      1  0.5625730000000  0.4853740000000  0.5383800000000 1.0
C      1  0.4945570000000  0.5165820000000  0.4011800000000 1.0
C      1  0.5382670000000  0.4299460000000  0.4646510000000 1.0
C      1  0.4949210000000  0.5359530000000  0.4441160000000 1.0
C      1  0.5125580000000  0.4662130000000  0.4278940000000 1.0
C      1  0.4998870000000  0.5638220000000  0.5644370000000 1.0
C      1  0.5474840000000  0.5461690000000  0.5289290000000 1.0
C      1  0.4802970000000  0.4718300000000  0.5041210000000 1.0
C      1  0.4251240000000  0.4699750000000  0.5064430000000 1.0
C      1  0.5318420000000  0.5040250000000  0.5740100000000 1.0
C      1  0.4679480000000  0.4524770000000  0.5271500000000 1.0
C      1  0.4331610000000  0.5121650000000  0.5380620000000 1.0
C      1  0.4564430000000  0.5119010000000  0.4587830000000 1.0
C      1  0.4341570000000  0.4741230000000  0.4565350000000 1.0
C      1  0.4407020000000  0.5374680000000  0.4965000000000 1.0
C      1  0.4453000000000  0.5082840000000  0.4861490000000 1.0
C      1  0.4789740000000  0.5193830000000  0.5776290000000 1.0
C      1  0.5511120000000  0.5257200000000  0.4407010000000 1.0
C      1  0.4905050000000  0.4838020000000  0.4373870000000 1.0
C      1  0.4990630000000  0.5618360000000  0.5347270000000 1.0
C      1  0.4351430000000  0.4447160000000  0.4987620000000 1.0
C      1  0.5366130000000  0.4819890000000  0.5528890000000 1.0
C      1  0.4994510000000  0.5851230000000  0.4871460000000 1.0
C      1  0.5026140000000  0.5123420000000  0.4268780000000 1.0
C      1  0.4581060000000  0.4401790000000  0.4829560000000 1.0
C      1  0.5210020000000  0.4452950000000  0.5111900000000 1.0
C      1  0.5177800000000  0.4893460000000  0.4824080000000 1.0
C      1  0.4958340000000  0.4336380000000  0.4392080000000 1.0
C      1  0.5781520000000  0.4622490000000  0.5401440000000 1.0
C      1  0.5047420000000  0.5082080000000  0.5828130000000 1.0
C      1  0.5621480000000  0.4429680000000  0.5521340000000 1.0
C      1  0.5116260000000  0.4387630000000  0.4626020000000 1.0
C      1  0.5444180000000  0.4780660000000  0.4630720000000 1.0
C      1  0.5268280000000  0.5667300000000  0.5210800000000 1.0
C      1  0.4868740000000  0.5250590000000  0.5017640000000 1.0
C      1  0.4791760000000  0.4237520000000  0.4956840000000 1.0
C      1  0.5105360000000  0.4732330000000  0.5087900000000 1.0
C      1  0.5265060000000  0.5488940000000  0.4725570000000 1.0
C      1  0.4915010000000  0.5318950000000  0.5301220000000 1.0
C      1  0.5561220000000  0.4511580000000  0.4690510000000 1.0
C      1  0.5149080000000  0.4885100000000  0.5339620000000 1.0
C      1  0.4374110000000  0.5385130000000  0.5259430000000 1.0
C      1  0.4688520000000  0.5469140000000  0.4870710000000 1.0
C      1  0.4732160000000  0.5508350000000  0.5707400000000 1.0
C      1  0.5330660000000  0.5085010000000  0.4276240000000 1.0
C      1  0.5371860000000  0.4803510000000  0.4340190000000 1.0
C      1  0.5271480000000  0.4352640000000  0.5375660000000 1.0
C      1  0.4745540000000  0.5753870000000  0.4956810000000 1.0
C      1  0.4699160000000  0.5374390000000  0.4577010000000 1.0
C      1  0.4550240000000  0.5582650000000  0.5416630000000 1.0
C      1  0.5606240000000  0.4991920000000  0.5129390000000 1.0
C      1  0.4411270000000  0.4967580000000  0.4398840000000 1.0
C      1  0.4687080000000  0.4598660000000  0.5555260000000 1.0
C      1  0.5537910000000  0.5425770000000  0.4628700000000 1.0
C      1  0.4725670000000  0.4496110000000  0.4357070000000 1.0
C      1  0.5352320000000  0.5301260000000  0.5558240000000 1.0
C      1  0.4239780000000  0.4869530000000  0.4826310000000 1.0
END
