TITL C-951335-1172-453 -4.44257805729091e-06 125000 -814.172523359227 0 0 131 (C1) n - 1
REM
REM in /home/bkarasulu/work/CARBON/AIRSS/Generating-Clusters/EDIP-Nigel-Params/with-SteepDescent/Only-C1/SD-CG/HFTN-CG
REM
REM
REM
REM
REM
REM ./C.cell (11c1c37f851c82e70ff6c80c92926a4b)
REM
REM compiler GCC version 9.2.1 20190827 (Red Hat 9.2.1-1)
REM options -cpp -mtune=generic -march=x86-64 -g -O0 -fpre-include=/usr/include/finclude/math-vector-fortran.h
REM seed -341053545 -1909210742 -1793159974 421437559 -313019235 -1286968654 2084440874 -763000456 254695200 759904944 -247027759 415411605 1019555658 -1134736861 1226673164 -444773040 1110276199 -1748265273 -387453212 1204196213 962318439 -1028880130 -2025276990 747719446 143492942 -1110566201 1894251038 1990328324 -434136451 403732245 1587636529 -64151591 -927731195
REM
CELL 1.54180   50.00000   50.00000   50.00000   90.00000   90.00000   90.00000
LATT -1
SFAC C  
C      1  0.4239710000000  0.5168780000000  0.5360760000000 1.0
C      1  0.4555540000000  0.4503210000000  0.5614030000000 1.0
C      1  0.4612050000000  0.5724790000000  0.4586700000000 1.0
C      1  0.4465980000000  0.5636140000000  0.5496190000000 1.0
C      1  0.4459710000000  0.4439810000000  0.4593620000000 1.0
C      1  0.5580070000000  0.5207840000000  0.4345260000000 1.0
C      1  0.5460840000000  0.5399650000000  0.4770770000000 1.0
C      1  0.5202770000000  0.4910960000000  0.5750990000000 1.0
C      1  0.4988080000000  0.5578300000000  0.5197880000000 1.0
C      1  0.5875780000000  0.5014980000000  0.4720860000000 1.0
C      1  0.5191620000000  0.5810530000000  0.4752700000000 1.0
C      1  0.5466050000000  0.5807920000000  0.4914520000000 1.0
C      1  0.4718240000000  0.4636430000000  0.4188370000000 1.0
C      1  0.4460950000000  0.4773070000000  0.5517290000000 1.0
C      1  0.5821050000000  0.4784260000000  0.5340020000000 1.0
C      1  0.4867600000000  0.5130800000000  0.5417000000000 1.0
C      1  0.5828620000000  0.5190780000000  0.4976980000000 1.0
C      1  0.5216960000000  0.4767200000000  0.4395940000000 1.0
C      1  0.4855450000000  0.4640400000000  0.5250300000000 1.0
C      1  0.4421070000000  0.4956070000000  0.5743720000000 1.0
C      1  0.5042940000000  0.5399380000000  0.5817300000000 1.0
C      1  0.5207970000000  0.4559350000000  0.4017350000000 1.0
C      1  0.5116250000000  0.5754820000000  0.4450000000000 1.0
C      1  0.4981410000000  0.4714940000000  0.5883100000000 1.0
C      1  0.4812530000000  0.4955490000000  0.5950470000000 1.0
C      1  0.5434370000000  0.4722810000000  0.5118980000000 1.0
C      1  0.5265430000000  0.5538100000000  0.5316620000000 1.0
C      1  0.5842310000000  0.5548940000000  0.5271720000000 1.0
C      1  0.4539450000000  0.4188740000000  0.4707950000000 1.0
C      1  0.4192950000000  0.5048760000000  0.4938810000000 1.0
C      1  0.4571860000000  0.5320400000000  0.5117060000000 1.0
C      1  0.5642770000000  0.5420510000000  0.4529070000000 1.0
C      1  0.4916160000000  0.5039040000000  0.3981390000000 1.0
C      1  0.4374900000000  0.5537190000000  0.5044550000000 1.0
C      1  0.5671900000000  0.4471430000000  0.4625620000000 1.0
C      1  0.5344540000000  0.5266860000000  0.5229770000000 1.0
C      1  0.5454100000000  0.5756510000000  0.5209160000000 1.0
C      1  0.4673980000000  0.5866360000000  0.4845370000000 1.0
C      1  0.4364720000000  0.4374890000000  0.5153150000000 1.0
C      1  0.5055300000000  0.4099230000000  0.5210830000000 1.0
C      1  0.4319890000000  0.5501510000000  0.4743970000000 1.0
C      1  0.5643530000000  0.4661550000000  0.4390700000000 1.0
C      1  0.5364580000000  0.5298420000000  0.5996470000000 1.0
C      1  0.4232660000000  0.4635480000000  0.5094700000000 1.0
C      1  0.5832250000000  0.4558160000000  0.4860240000000 1.0
C      1  0.4475920000000  0.5088130000000  0.4150120000000 1.0
C      1  0.4174460000000  0.4769130000000  0.4830230000000 1.0
C      1  0.5645250000000  0.4959920000000  0.4507350000000 1.0
C      1  0.5488240000000  0.5456780000000  0.5784450000000 1.0
C      1  0.4868180000000  0.5812380000000  0.5645480000000 1.0
C      1  0.4527020000000  0.5452450000000  0.5707810000000 1.0
C      1  0.4829560000000  0.4211590000000  0.4791960000000 1.0
C      1  0.5888500000000  0.5498500000000  0.4984580000000 1.0
C      1  0.4969110000000  0.5471330000000  0.4919310000000 1.0
C      1  0.4854320000000  0.4029050000000  0.5021980000000 1.0
C      1  0.5099570000000  0.5031060000000  0.4229460000000 1.0
C      1  0.4995120000000  0.4670440000000  0.4994290000000 1.0
C      1  0.4540090000000  0.4924670000000  0.5991710000000 1.0
C      1  0.4552290000000  0.5354260000000  0.4038850000000 1.0
C      1  0.4854380000000  0.4557540000000  0.4760110000000 1.0
C      1  0.4591350000000  0.3959040000000  0.5135860000000 1.0
C      1  0.4823710000000  0.5791500000000  0.4374020000000 1.0
C      1  0.5533300000000  0.4466320000000  0.5583910000000 1.0
C      1  0.5366710000000  0.4909080000000  0.4637800000000 1.0
C      1  0.5582420000000  0.4326210000000  0.5296570000000 1.0
C      1  0.5101570000000  0.4286150000000  0.4415640000000 1.0
C      1  0.4605250000000  0.4759950000000  0.4734700000000 1.0
C      1  0.5843000000000  0.5297290000000  0.5429210000000 1.0
C      1  0.4164000000000  0.5440990000000  0.5242020000000 1.0
C      1  0.5704210000000  0.4579320000000  0.5146180000000 1.0
C      1  0.5541120000000  0.4224980000000  0.4648670000000 1.0
C      1  0.4742610000000  0.5297610000000  0.4888940000000 1.0
C      1  0.4370020000000  0.5209370000000  0.5628140000000 1.0
C      1  0.5170650000000  0.5406550000000  0.4702530000000 1.0
C      1  0.4523330000000  0.5805310000000  0.5094930000000 1.0
C      1  0.4753410000000  0.5416890000000  0.5337370000000 1.0
C      1  0.5641360000000  0.4984020000000  0.5767110000000 1.0
C      1  0.5654690000000  0.5251380000000  0.5647970000000 1.0
C      1  0.4955810000000  0.5915960000000  0.4912820000000 1.0
C      1  0.4183300000000  0.5643770000000  0.5437770000000 1.0
C      1  0.4670490000000  0.4887590000000  0.4047050000000 1.0
C      1  0.5242110000000  0.4375050000000  0.5493600000000 1.0
C      1  0.4590100000000  0.5343690000000  0.4646970000000 1.0
C      1  0.5901500000000  0.5065390000000  0.5251040000000 1.0
C      1  0.4728020000000  0.5887910000000  0.5359890000000 1.0
C      1  0.5035240000000  0.4245100000000  0.5684470000000 1.0
C      1  0.5065940000000  0.4623890000000  0.5458600000000 1.0
C      1  0.5649160000000  0.4751280000000  0.5576770000000 1.0
C      1  0.4935160000000  0.4469140000000  0.4051470000000 1.0
C      1  0.5332730000000  0.4114100000000  0.4801420000000 1.0
C      1  0.5409500000000  0.5012430000000  0.5944510000000 1.0
C      1  0.5023880000000  0.4970210000000  0.4969230000000 1.0
C      1  0.4958850000000  0.4214010000000  0.4178040000000 1.0
C      1  0.5304980000000  0.5260760000000  0.4247410000000 1.0
C      1  0.5122850000000  0.5068990000000  0.5242260000000 1.0
C      1  0.4218200000000  0.4804490000000  0.4528000000000 1.0
C      1  0.5462190000000  0.4929910000000  0.4915390000000 1.0
C      1  0.5250540000000  0.4529530000000  0.5013850000000 1.0
C      1  0.4467010000000  0.4508490000000  0.4308990000000 1.0
C      1  0.5072970000000  0.4107570000000  0.4642540000000 1.0
C      1  0.5109930000000  0.5095890000000  0.4699630000000 1.0
C      1  0.5700040000000  0.5778740000000  0.5344500000000 1.0
C      1  0.4809410000000  0.5354180000000  0.4453410000000 1.0
C      1  0.5150170000000  0.5846280000000  0.5678200000000 1.0
C      1  0.5523560000000  0.5203150000000  0.4990910000000 1.0
C      1  0.5995370000000  0.4774590000000  0.4792740000000 1.0
C      1  0.4791080000000  0.5569080000000  0.5793670000000 1.0
C      1  0.4271940000000  0.5088610000000  0.4479110000000 1.0
C      1  0.4822230000000  0.5310490000000  0.3921060000000 1.0
C      1  0.4233880000000  0.4830440000000  0.5319660000000 1.0
C      1  0.4752120000000  0.5526530000000  0.4227300000000 1.0
C      1  0.5244620000000  0.5571490000000  0.5633210000000 1.0
C      1  0.4223260000000  0.4650870000000  0.4287220000000 1.0
C      1  0.4912880000000  0.5085510000000  0.4462450000000 1.0
C      1  0.5272340000000  0.4840330000000  0.5374130000000 1.0
C      1  0.4402370000000  0.4138660000000  0.4974780000000 1.0
C      1  0.4168270000000  0.5241000000000  0.4712420000000 1.0
C      1  0.5020880000000  0.4561700000000  0.4501190000000 1.0
C      1  0.4929260000000  0.4058330000000  0.5478380000000 1.0
C      1  0.4620370000000  0.4044770000000  0.5426570000000 1.0
C      1  0.4973560000000  0.5953050000000  0.5198490000000 1.0
C      1  0.4962940000000  0.5126150000000  0.5718510000000 1.0
C      1  0.5302240000000  0.4238930000000  0.5083350000000 1.0
C      1  0.4475980000000  0.4304080000000  0.5418790000000 1.0
C      1  0.5724870000000  0.5682490000000  0.4800570000000 1.0
C      1  0.5459900000000  0.4593250000000  0.4157570000000 1.0
C      1  0.4676430000000  0.4874000000000  0.5309180000000 1.0
C      1  0.4841650000000  0.4481460000000  0.5744510000000 1.0
C      1  0.5223590000000  0.5530250000000  0.4303050000000 1.0
C      1  0.4632430000000  0.4947580000000  0.4478960000000 1.0
C      1  0.4530310000000  0.4948800000000  0.5016920000000 1.0
END
