TITL C-950529-3362-579 1.29344560487234e-06 125000 -1023.05628122885 0 0 166 (C1) n - 1
REM
REM in /home/bkarasulu/work/CARBON/AIRSS/Generating-Clusters/EDIP-Nigel-Params/with-SteepDescent/Only-C1/SD-CG/HFTN-CG
REM
REM
REM
REM
REM
REM ./C.cell (11c1c37f851c82e70ff6c80c92926a4b)
REM
REM compiler GCC version 9.2.1 20190827 (Red Hat 9.2.1-1)
REM options -cpp -mtune=generic -march=x86-64 -g -O0 -fpre-include=/usr/include/finclude/math-vector-fortran.h
REM seed -90787477 2003972789 1333160805 1311389894 -725305210 -213250393 -2118336640 876193824 -1549975476 -1621367330 1120328306 1442043007 -975629079 1904734888 1923031409 -1117408275 -1219771200 -569999023 1545768304 1612538955 1779641247 1406979969 -617576565 -1741703328 622981828 1792265902 535697377 368086912 -1074177284 -616240170 -951114766 -858529715 -62858095
REM
CELL 1.54180   50.00000   50.00000   50.00000   90.00000   90.00000   90.00000
LATT -1
SFAC C  
C      1  0.5353770000000  0.5656270000000  0.4218770000000 1.0
C      1  0.4048120000000  0.4927750000000  0.5198300000000 1.0
C      1  0.4808350000000  0.5448020000000  0.5382000000000 1.0
C      1  0.5192290000000  0.5429890000000  0.5684900000000 1.0
C      1  0.4532010000000  0.5348300000000  0.5352190000000 1.0
C      1  0.4225980000000  0.4409640000000  0.4866000000000 1.0
C      1  0.5299370000000  0.4006980000000  0.4565510000000 1.0
C      1  0.5643920000000  0.4585940000000  0.5622580000000 1.0
C      1  0.6324960000000  0.4718300000000  0.5146650000000 1.0
C      1  0.5727440000000  0.5420320000000  0.4612220000000 1.0
C      1  0.6036430000000  0.4626560000000  0.4463120000000 1.0
C      1  0.5823160000000  0.4769560000000  0.5752290000000 1.0
C      1  0.5306260000000  0.4534510000000  0.5297200000000 1.0
C      1  0.4352870000000  0.5479630000000  0.4407900000000 1.0
C      1  0.4439010000000  0.4460170000000  0.5358350000000 1.0
C      1  0.4993220000000  0.4955110000000  0.4569490000000 1.0
C      1  0.4707970000000  0.5017240000000  0.6067270000000 1.0
C      1  0.5186820000000  0.4743390000000  0.5765940000000 1.0
C      1  0.4864350000000  0.5043510000000  0.5611180000000 1.0
C      1  0.4810050000000  0.3979600000000  0.4537170000000 1.0
C      1  0.4972490000000  0.4800550000000  0.5189040000000 1.0
C      1  0.5111520000000  0.5781640000000  0.4200560000000 1.0
C      1  0.5416830000000  0.5390960000000  0.4250320000000 1.0
C      1  0.5225720000000  0.5325240000000  0.3830490000000 1.0
C      1  0.4219640000000  0.5238410000000  0.4330220000000 1.0
C      1  0.5976790000000  0.5076340000000  0.5234060000000 1.0
C      1  0.4678010000000  0.4957900000000  0.3954560000000 1.0
C      1  0.4918470000000  0.5889790000000  0.5185830000000 1.0
C      1  0.5501080000000  0.4967390000000  0.4508020000000 1.0
C      1  0.5447580000000  0.4448870000000  0.4407720000000 1.0
C      1  0.5173740000000  0.5707330000000  0.5556260000000 1.0
C      1  0.4369860000000  0.4011250000000  0.4618050000000 1.0
C      1  0.3924430000000  0.4685990000000  0.5064870000000 1.0
C      1  0.3972170000000  0.5026320000000  0.4735630000000 1.0
C      1  0.4121950000000  0.5558500000000  0.5366480000000 1.0
C      1  0.5509020000000  0.4365280000000  0.5773020000000 1.0
C      1  0.5623990000000  0.5159250000000  0.5123210000000 1.0
C      1  0.5656210000000  0.5011940000000  0.5747710000000 1.0
C      1  0.4788410000000  0.6136130000000  0.5577850000000 1.0
C      1  0.4548560000000  0.5035450000000  0.5381990000000 1.0
C      1  0.5921740000000  0.5287890000000  0.5679020000000 1.0
C      1  0.5612760000000  0.5678500000000  0.5324300000000 1.0
C      1  0.5707310000000  0.4247060000000  0.4696220000000 1.0
C      1  0.4673730000000  0.4710420000000  0.5928580000000 1.0
C      1  0.4882480000000  0.4742050000000  0.5679200000000 1.0
C      1  0.5686080000000  0.5438800000000  0.5688780000000 1.0
C      1  0.5196840000000  0.4978880000000  0.5958370000000 1.0
C      1  0.5308950000000  0.4525610000000  0.4697940000000 1.0
C      1  0.4782920000000  0.5192000000000  0.3846350000000 1.0
C      1  0.3875470000000  0.5640510000000  0.4951400000000 1.0
C      1  0.4471250000000  0.5506390000000  0.5101760000000 1.0
C      1  0.5077110000000  0.3967110000000  0.5322510000000 1.0
C      1  0.5051540000000  0.4088550000000  0.4415830000000 1.0
C      1  0.4241780000000  0.4942170000000  0.5436670000000 1.0
C      1  0.5993410000000  0.5039110000000  0.5539380000000 1.0
C      1  0.6072920000000  0.4829520000000  0.5101230000000 1.0
C      1  0.4757790000000  0.4898270000000  0.4386430000000 1.0
C      1  0.5188760000000  0.4766150000000  0.4151840000000 1.0
C      1  0.5506780000000  0.5393940000000  0.5288210000000 1.0
C      1  0.5580010000000  0.4882420000000  0.5263520000000 1.0
C      1  0.5294080000000  0.6029310000000  0.4868730000000 1.0
C      1  0.4167490000000  0.5149170000000  0.5633080000000 1.0
C      1  0.5769570000000  0.4535320000000  0.4597870000000 1.0
C      1  0.5011480000000  0.5223380000000  0.4678940000000 1.0
C      1  0.5070180000000  0.5966820000000  0.4404830000000 1.0
C      1  0.4233250000000  0.4686940000000  0.5591350000000 1.0
C      1  0.5277250000000  0.4073120000000  0.4876820000000 1.0
C      1  0.4903380000000  0.5719120000000  0.5437640000000 1.0
C      1  0.4516360000000  0.5024830000000  0.4205060000000 1.0
C      1  0.4154030000000  0.4383630000000  0.5370300000000 1.0
C      1  0.4931710000000  0.5137080000000  0.5913110000000 1.0
C      1  0.4799720000000  0.6067880000000  0.4796280000000 1.0
C      1  0.4823330000000  0.3920170000000  0.4827010000000 1.0
C      1  0.4904550000000  0.5625260000000  0.4066010000000 1.0
C      1  0.3888650000000  0.5734960000000  0.4691550000000 1.0
C      1  0.5999530000000  0.5672180000000  0.4989040000000 1.0
C      1  0.5536150000000  0.4113840000000  0.5303720000000 1.0
C      1  0.4677110000000  0.4877480000000  0.5157490000000 1.0
C      1  0.4523570000000  0.6074260000000  0.4802770000000 1.0
C      1  0.5210170000000  0.6042340000000  0.5181130000000 1.0
C      1  0.4470120000000  0.5194040000000  0.6009670000000 1.0
C      1  0.5885070000000  0.5257300000000  0.4787910000000 1.0
C      1  0.4974440000000  0.4483290000000  0.4700000000000 1.0
C      1  0.4532650000000  0.5417500000000  0.4626790000000 1.0
C      1  0.4223820000000  0.5048110000000  0.4560060000000 1.0
C      1  0.5017870000000  0.5290730000000  0.5240830000000 1.0
C      1  0.5416860000000  0.4738150000000  0.5493720000000 1.0
C      1  0.5118910000000  0.5161020000000  0.5493960000000 1.0
C      1  0.5278360000000  0.5303660000000  0.4744710000000 1.0
C      1  0.4423430000000  0.5666730000000  0.4218930000000 1.0
C      1  0.4920390000000  0.5714590000000  0.4901820000000 1.0
C      1  0.4962140000000  0.5402200000000  0.3880960000000 1.0
C      1  0.4554640000000  0.4256130000000  0.5797930000000 1.0
C      1  0.4047180000000  0.5941000000000  0.4787660000000 1.0
C      1  0.5018030000000  0.4299350000000  0.5768270000000 1.0
C      1  0.4075750000000  0.4466010000000  0.4602890000000 1.0
C      1  0.5030980000000  0.4299800000000  0.4198080000000 1.0
C      1  0.5393000000000  0.5086320000000  0.4922060000000 1.0
C      1  0.5920140000000  0.4959770000000  0.4715700000000 1.0
C      1  0.5501210000000  0.4958580000000  0.4030580000000 1.0
C      1  0.4685320000000  0.5504000000000  0.4886500000000 1.0
C      1  0.4669270000000  0.4427860000000  0.4634880000000 1.0
C      1  0.5243470000000  0.4468720000000  0.5873560000000 1.0
C      1  0.5489010000000  0.5281800000000  0.4514230000000 1.0
C      1  0.4860870000000  0.4751620000000  0.4129630000000 1.0
C      1  0.4738630000000  0.4395940000000  0.5959480000000 1.0
C      1  0.4727220000000  0.5859070000000  0.5625900000000 1.0
C      1  0.5234100000000  0.4871130000000  0.4429130000000 1.0
C      1  0.5265720000000  0.4809160000000  0.4955520000000 1.0
C      1  0.5154040000000  0.4058880000000  0.5606590000000 1.0
C      1  0.6299970000000  0.4609210000000  0.4892770000000 1.0
C      1  0.4031130000000  0.5446230000000  0.5100560000000 1.0
C      1  0.6192810000000  0.4768820000000  0.4679360000000 1.0
C      1  0.4968570000000  0.4769200000000  0.4800640000000 1.0
C      1  0.5447430000000  0.5393730000000  0.5834330000000 1.0
C      1  0.5443500000000  0.5769980000000  0.4840150000000 1.0
C      1  0.5264590000000  0.4476950000000  0.4170360000000 1.0
C      1  0.4850510000000  0.5252950000000  0.4927620000000 1.0
C      1  0.5402790000000  0.5226940000000  0.4019100000000 1.0
C      1  0.4721260000000  0.5624030000000  0.5852260000000 1.0
C      1  0.4390190000000  0.4646620000000  0.4903370000000 1.0
C      1  0.5324590000000  0.3952410000000  0.5152450000000 1.0
C      1  0.4440470000000  0.5160980000000  0.4733100000000 1.0
C      1  0.4029990000000  0.4407440000000  0.5111500000000 1.0
C      1  0.4370530000000  0.4742790000000  0.5850310000000 1.0
C      1  0.4259130000000  0.4503070000000  0.4359560000000 1.0
C      1  0.6171690000000  0.5278850000000  0.5169620000000 1.0
C      1  0.4347070000000  0.4778130000000  0.4453810000000 1.0
C      1  0.5061410000000  0.6059220000000  0.4671200000000 1.0
C      1  0.5227530000000  0.5570530000000  0.4898420000000 1.0
C      1  0.4308790000000  0.5411800000000  0.5567330000000 1.0
C      1  0.4900810000000  0.6169160000000  0.5318590000000 1.0
C      1  0.4926950000000  0.4149320000000  0.5127560000000 1.0
C      1  0.4468960000000  0.4207770000000  0.4816380000000 1.0
C      1  0.4645980000000  0.5717850000000  0.4082470000000 1.0
C      1  0.6068910000000  0.5406250000000  0.4948800000000 1.0
C      1  0.5664040000000  0.4674220000000  0.5074950000000 1.0
C      1  0.5787980000000  0.5773480000000  0.5123100000000 1.0
C      1  0.3907410000000  0.4735390000000  0.4770950000000 1.0
C      1  0.5238310000000  0.5482070000000  0.5182250000000 1.0
C      1  0.5457800000000  0.5120260000000  0.5943260000000 1.0
C      1  0.4777810000000  0.4452270000000  0.4153990000000 1.0
C      1  0.4651630000000  0.4061300000000  0.5014780000000 1.0
C      1  0.4314230000000  0.5909260000000  0.4883910000000 1.0
C      1  0.5527660000000  0.4402780000000  0.5145470000000 1.0
C      1  0.5668940000000  0.4772740000000  0.4776810000000 1.0
C      1  0.4625830000000  0.4332890000000  0.5537500000000 1.0
C      1  0.5371400000000  0.5853350000000  0.5384500000000 1.0
C      1  0.4266210000000  0.5021680000000  0.5887550000000 1.0
C      1  0.4544830000000  0.4621820000000  0.5132280000000 1.0
C      1  0.5650790000000  0.4885290000000  0.4272660000000 1.0
C      1  0.4339910000000  0.5760800000000  0.5130930000000 1.0
C      1  0.5930370000000  0.4870880000000  0.4339010000000 1.0
C      1  0.4966640000000  0.5440220000000  0.5893820000000 1.0
C      1  0.5537730000000  0.4153490000000  0.4456810000000 1.0
C      1  0.5665270000000  0.5688420000000  0.4676790000000 1.0
C      1  0.4551700000000  0.4702160000000  0.4666470000000 1.0
C      1  0.5011310000000  0.4497830000000  0.5263530000000 1.0
C      1  0.5447980000000  0.4116210000000  0.5598470000000 1.0
C      1  0.4884340000000  0.4466950000000  0.5537450000000 1.0
C      1  0.4554290000000  0.4060330000000  0.4409550000000 1.0
C      1  0.4560230000000  0.4358890000000  0.4352150000000 1.0
C      1  0.4473690000000  0.5455460000000  0.5849040000000 1.0
C      1  0.5455140000000  0.4310290000000  0.4865290000000 1.0
C      1  0.4646050000000  0.5046380000000  0.4915760000000 1.0
C      1  0.4008190000000  0.5152460000000  0.5016200000000 1.0
END
