TITL C-950526-5686-503 -1.25332704599882e-06 125000 -633.854663969755 0 0 101 (C1) n - 1
REM
REM in /home/bkarasulu/work/CARBON/AIRSS/Generating-Clusters/EDIP-Nigel-Params/with-SteepDescent/Only-C1/SD-CG/HFTN-CG
REM
REM
REM
REM
REM
REM ./C.cell (11c1c37f851c82e70ff6c80c92926a4b)
REM
REM compiler GCC version 9.2.1 20190827 (Red Hat 9.2.1-1)
REM options -cpp -mtune=generic -march=x86-64 -g -O0 -fpre-include=/usr/include/finclude/math-vector-fortran.h
REM seed 765789606 970739740 1842022397 -1598354874 -1102289538 -920887073 71825125 -1365838108 1937463212 -1669652304 -677918603 -1968213966 -122096140 2111379682 533411750 1249247120 1750417263 450929307 1705750128 1132654048 -1660175964 1544476445 -2050208477 573570478 126126065 -1295614170 968646837 -903067090 512761600 1388720005 1430475830 890320817 -1667185524
REM
CELL 1.54180   50.00000   50.00000   50.00000   90.00000   90.00000   90.00000
LATT -1
SFAC C  
C      1  0.4620570000000  0.4534320000000  0.5347520000000 1.0
C      1  0.5122540000000  0.4237580000000  0.5114830000000 1.0
C      1  0.4433570000000  0.4230520000000  0.5053420000000 1.0
C      1  0.4124460000000  0.4952810000000  0.4778300000000 1.0
C      1  0.4643430000000  0.5472640000000  0.5170940000000 1.0
C      1  0.4862840000000  0.5262430000000  0.4725810000000 1.0
C      1  0.4364350000000  0.4407700000000  0.5261790000000 1.0
C      1  0.5241990000000  0.4220860000000  0.4603040000000 1.0
C      1  0.4564100000000  0.4750350000000  0.4859870000000 1.0
C      1  0.5080460000000  0.5546700000000  0.5594680000000 1.0
C      1  0.4707850000000  0.5236210000000  0.5636630000000 1.0
C      1  0.4998400000000  0.5767770000000  0.4574780000000 1.0
C      1  0.5818740000000  0.5215020000000  0.5147010000000 1.0
C      1  0.5520990000000  0.4539410000000  0.4395110000000 1.0
C      1  0.4803950000000  0.4415910000000  0.5763090000000 1.0
C      1  0.5613490000000  0.5582420000000  0.4935340000000 1.0
C      1  0.4668080000000  0.5772500000000  0.5131450000000 1.0
C      1  0.5849030000000  0.4780600000000  0.4904140000000 1.0
C      1  0.5835010000000  0.4503890000000  0.4905740000000 1.0
C      1  0.4302960000000  0.4740760000000  0.4434910000000 1.0
C      1  0.5328770000000  0.5511100000000  0.4848820000000 1.0
C      1  0.5628110000000  0.5642910000000  0.5226180000000 1.0
C      1  0.5099820000000  0.5964860000000  0.4980640000000 1.0
C      1  0.4881480000000  0.5312450000000  0.5033340000000 1.0
C      1  0.4174480000000  0.5016160000000  0.4481090000000 1.0
C      1  0.4724240000000  0.4657970000000  0.5099760000000 1.0
C      1  0.4211410000000  0.4890830000000  0.5259450000000 1.0
C      1  0.5737050000000  0.4791710000000  0.5423730000000 1.0
C      1  0.4568580000000  0.5330120000000  0.4622900000000 1.0
C      1  0.5699800000000  0.5387600000000  0.5358190000000 1.0
C      1  0.4425690000000  0.5215540000000  0.4279320000000 1.0
C      1  0.5031530000000  0.4406450000000  0.4675010000000 1.0
C      1  0.5169320000000  0.5413110000000  0.5107190000000 1.0
C      1  0.5327330000000  0.5486660000000  0.4418440000000 1.0
C      1  0.4436330000000  0.5219300000000  0.5553010000000 1.0
C      1  0.4587330000000  0.5466510000000  0.4342910000000 1.0
C      1  0.5798690000000  0.5358630000000  0.4886570000000 1.0
C      1  0.4693600000000  0.4847980000000  0.4622050000000 1.0
C      1  0.5262120000000  0.5329090000000  0.5683440000000 1.0
C      1  0.5524930000000  0.4280550000000  0.5385340000000 1.0
C      1  0.5194520000000  0.5789520000000  0.4782520000000 1.0
C      1  0.5129120000000  0.5068670000000  0.5757830000000 1.0
C      1  0.5303190000000  0.4541980000000  0.4218960000000 1.0
C      1  0.4473250000000  0.5911790000000  0.5297810000000 1.0
C      1  0.5048670000000  0.5499460000000  0.4477420000000 1.0
C      1  0.4562270000000  0.5767420000000  0.4851540000000 1.0
C      1  0.4891440000000  0.5140020000000  0.4174900000000 1.0
C      1  0.4377440000000  0.5445600000000  0.5365860000000 1.0
C      1  0.5276390000000  0.4622770000000  0.5276270000000 1.0
C      1  0.4885190000000  0.5004800000000  0.5568250000000 1.0
C      1  0.4795210000000  0.4559810000000  0.4271340000000 1.0
C      1  0.4609870000000  0.5711760000000  0.5682000000000 1.0
C      1  0.5404260000000  0.5772440000000  0.5331120000000 1.0
C      1  0.4801250000000  0.5505920000000  0.5672390000000 1.0
C      1  0.4180700000000  0.4613670000000  0.5214190000000 1.0
C      1  0.5806880000000  0.4914480000000  0.4639630000000 1.0
C      1  0.5252750000000  0.4626850000000  0.5608930000000 1.0
C      1  0.4289020000000  0.4689100000000  0.4746930000000 1.0
C      1  0.5733840000000  0.4922830000000  0.5146870000000 1.0
C      1  0.5073470000000  0.4490300000000  0.5782410000000 1.0
C      1  0.4409350000000  0.5720780000000  0.5489680000000 1.0
C      1  0.5089540000000  0.4763270000000  0.4814740000000 1.0
C      1  0.4999090000000  0.4756740000000  0.5116590000000 1.0
C      1  0.4640520000000  0.4198570000000  0.4864000000000 1.0
C      1  0.4612190000000  0.4618940000000  0.5814010000000 1.0
C      1  0.5392140000000  0.5051060000000  0.4408180000000 1.0
C      1  0.5349070000000  0.4865660000000  0.5740710000000 1.0
C      1  0.4412440000000  0.5511750000000  0.4806940000000 1.0
C      1  0.5063830000000  0.4689830000000  0.4232310000000 1.0
C      1  0.4277910000000  0.5372440000000  0.5052890000000 1.0
C      1  0.4226650000000  0.5076530000000  0.5027770000000 1.0
C      1  0.4956530000000  0.5852770000000  0.5191140000000 1.0
C      1  0.4574620000000  0.4243210000000  0.4593430000000 1.0
C      1  0.4371990000000  0.4942150000000  0.5499740000000 1.0
C      1  0.5426090000000  0.4902630000000  0.5124730000000 1.0
C      1  0.4740090000000  0.5838530000000  0.4649540000000 1.0
C      1  0.5738780000000  0.5206140000000  0.4634690000000 1.0
C      1  0.5600890000000  0.4360650000000  0.4876250000000 1.0
C      1  0.4914480000000  0.4301590000000  0.4920570000000 1.0
C      1  0.5361640000000  0.5152790000000  0.4706840000000 1.0
C      1  0.4618890000000  0.5018830000000  0.4177500000000 1.0
C      1  0.4594470000000  0.4778020000000  0.4356290000000 1.0
C      1  0.4868430000000  0.5428500000000  0.4249330000000 1.0
C      1  0.5077570000000  0.4969410000000  0.4346750000000 1.0
C      1  0.5668080000000  0.4783700000000  0.4417860000000 1.0
C      1  0.5146350000000  0.5651090000000  0.5313990000000 1.0
C      1  0.4796800000000  0.4323600000000  0.5483780000000 1.0
C      1  0.5288780000000  0.5149680000000  0.5248360000000 1.0
C      1  0.5581960000000  0.4978430000000  0.5597830000000 1.0
C      1  0.5468920000000  0.5231680000000  0.5483240000000 1.0
C      1  0.4947040000000  0.4970620000000  0.4635900000000 1.0
C      1  0.5344450000000  0.4897570000000  0.4847210000000 1.0
C      1  0.5418770000000  0.4299690000000  0.5108420000000 1.0
C      1  0.4810900000000  0.4350980000000  0.4479440000000 1.0
C      1  0.5305520000000  0.4191320000000  0.5551510000000 1.0
C      1  0.4995080000000  0.5029040000000  0.5272050000000 1.0
C      1  0.5654670000000  0.4521660000000  0.5453080000000 1.0
C      1  0.4612690000000  0.4763490000000  0.5562480000000 1.0
C      1  0.5527740000000  0.5313080000000  0.4338800000000 1.0
C      1  0.5468360000000  0.4374230000000  0.4624500000000 1.0
C      1  0.5070530000000  0.4250200000000  0.5394030000000 1.0
END
