TITL C-951341-1326-724 2.77631732169266e-07 125000 -344.961496306204 0 0 56 (C1) n - 1
REM
REM in /home/bkarasulu/work/CARBON/AIRSS/Generating-Clusters/EDIP-Nigel-Params/with-SteepDescent/Only-C1/SD-CG/HFTN-CG
REM
REM
REM
REM
REM
REM ./C.cell (11c1c37f851c82e70ff6c80c92926a4b)
REM
REM compiler GCC version 9.2.1 20190827 (Red Hat 9.2.1-1)
REM options -cpp -mtune=generic -march=x86-64 -g -O0 -fpre-include=/usr/include/finclude/math-vector-fortran.h
REM seed -1380018237 520342987 1666385094 1652408225 574772742 -1729698172 476517042 -745780477 -211334102 189742782 1155459001 1773585615 -1006887528 -1548234667 -192517025 -525453312 1489384804 -1690921319 1926147759 2140413913 1304398437 -479698895 -455593978 625737854 2143925196 603051729 916305311 1047610144 -1667336810 -549031362 -1737965468 -732376506 -1912674154
REM
CELL 1.54180   50.00000   50.00000   50.00000   90.00000   90.00000   90.00000
LATT -1
SFAC C  
C      1  0.4940510000000  0.5089800000000  0.5682160000000 1.0
C      1  0.5784480000000  0.4977870000000  0.5138030000000 1.0
C      1  0.4818330000000  0.4609480000000  0.5212700000000 1.0
C      1  0.4828480000000  0.4558570000000  0.4514810000000 1.0
C      1  0.5617790000000  0.5125740000000  0.5301990000000 1.0
C      1  0.4755670000000  0.4845000000000  0.4523290000000 1.0
C      1  0.4860020000000  0.5661090000000  0.5019100000000 1.0
C      1  0.5539440000000  0.4514580000000  0.5116650000000 1.0
C      1  0.5190280000000  0.5685170000000  0.4606200000000 1.0
C      1  0.5383240000000  0.5514890000000  0.4709260000000 1.0
C      1  0.5315880000000  0.4720090000000  0.5681950000000 1.0
C      1  0.4741520000000  0.5026320000000  0.4289230000000 1.0
C      1  0.5741900000000  0.4702800000000  0.5141980000000 1.0
C      1  0.5124410000000  0.4531540000000  0.4496440000000 1.0
C      1  0.4503820000000  0.5183140000000  0.4320780000000 1.0
C      1  0.5548200000000  0.5055380000000  0.4770430000000 1.0
C      1  0.4666050000000  0.5617290000000  0.5231650000000 1.0
C      1  0.4978840000000  0.5201850000000  0.4296050000000 1.0
C      1  0.4924460000000  0.5658690000000  0.4529010000000 1.0
C      1  0.4957550000000  0.5338350000000  0.5526250000000 1.0
C      1  0.5406180000000  0.5246060000000  0.4603600000000 1.0
C      1  0.5450170000000  0.4409210000000  0.5356360000000 1.0
C      1  0.5098160000000  0.5487970000000  0.5046160000000 1.0
C      1  0.5453370000000  0.4787050000000  0.4716500000000 1.0
C      1  0.4567840000000  0.5332100000000  0.5000830000000 1.0
C      1  0.4776620000000  0.5134980000000  0.4904330000000 1.0
C      1  0.4423590000000  0.4890560000000  0.5176280000000 1.0
C      1  0.5803820000000  0.5091150000000  0.4882190000000 1.0
C      1  0.5036310000000  0.4370790000000  0.5571880000000 1.0
C      1  0.5176300000000  0.4945960000000  0.5709100000000 1.0
C      1  0.4693600000000  0.4950250000000  0.5587850000000 1.0
C      1  0.5208350000000  0.4380380000000  0.4745550000000 1.0
C      1  0.4686600000000  0.4672340000000  0.5679880000000 1.0
C      1  0.4684440000000  0.5448820000000  0.5473870000000 1.0
C      1  0.5325740000000  0.4602290000000  0.4924550000000 1.0
C      1  0.4735940000000  0.5648290000000  0.4751650000000 1.0
C      1  0.4987100000000  0.4233660000000  0.4842050000000 1.0
C      1  0.5259620000000  0.4806180000000  0.4502150000000 1.0
C      1  0.4434660000000  0.5419980000000  0.4746180000000 1.0
C      1  0.5099380000000  0.5267320000000  0.5271710000000 1.0
C      1  0.4902990000000  0.5471510000000  0.4323420000000 1.0
C      1  0.4949130000000  0.5024780000000  0.5122040000000 1.0
C      1  0.5296680000000  0.4463880000000  0.5579840000000 1.0
C      1  0.5417520000000  0.5317120000000  0.5299000000000 1.0
C      1  0.4588360000000  0.4965480000000  0.4733680000000 1.0
C      1  0.4802230000000  0.4494730000000  0.5493000000000 1.0
C      1  0.5400680000000  0.5533530000000  0.5085500000000 1.0
C      1  0.4485570000000  0.5225970000000  0.5476410000000 1.0
C      1  0.4621580000000  0.4526480000000  0.4984890000000 1.0
C      1  0.4765030000000  0.4392240000000  0.4759900000000 1.0
C      1  0.4445260000000  0.4761990000000  0.4909490000000 1.0
C      1  0.4382640000000  0.5182920000000  0.5197610000000 1.0
C      1  0.5191020000000  0.5095450000000  0.4471630000000 1.0
C      1  0.5095780000000  0.4738020000000  0.5086690000000 1.0
C      1  0.4708230000000  0.4889490000000  0.5285880000000 1.0
C      1  0.4418640000000  0.5173360000000  0.4590420000000 1.0
END
