TITL C-950533-5798-194 7.96569884033435e-07 125000 -899.346131884888 0 0 144 (C1) n - 1
REM
REM in /home/bkarasulu/work/CARBON/AIRSS/Generating-Clusters/EDIP-Nigel-Params/with-SteepDescent/Only-C1/SD-CG/HFTN-CG
REM
REM
REM
REM
REM
REM ./C.cell (11c1c37f851c82e70ff6c80c92926a4b)
REM
REM compiler GCC version 9.2.1 20190827 (Red Hat 9.2.1-1)
REM options -cpp -mtune=generic -march=x86-64 -g -O0 -fpre-include=/usr/include/finclude/math-vector-fortran.h
REM seed 1720605317 1241245100 755465272 -1983817412 -367976535 1577719682 -2123704512 -1522298428 -1874991363 -1953409637 1661533868 -502919290 -1559248024 1856415684 1218311573 1757370564 1147997657 -213332332 -1114338865 132075435 100733331 -1868325908 -817360445 -1592379603 585950644 -91250995 -142847939 -1030873615 1856529612 -1025602701 1802010038 -513219087 145176260
REM
CELL 1.54180   50.00000   50.00000   50.00000   90.00000   90.00000   90.00000
LATT -1
SFAC C  
C      1  0.5111430000000  0.5412260000000  0.5566330000000 1.0
C      1  0.5348970000000  0.4791380000000  0.4509510000000 1.0
C      1  0.4139250000000  0.4839280000000  0.5397620000000 1.0
C      1  0.5643910000000  0.4683810000000  0.5536370000000 1.0
C      1  0.5868710000000  0.4500180000000  0.4673490000000 1.0
C      1  0.5750470000000  0.4753830000000  0.4787030000000 1.0
C      1  0.5202980000000  0.5829400000000  0.5467520000000 1.0
C      1  0.4963490000000  0.4093980000000  0.4623980000000 1.0
C      1  0.5183990000000  0.5940680000000  0.4480070000000 1.0
C      1  0.5398510000000  0.4969350000000  0.5933540000000 1.0
C      1  0.5708670000000  0.4358110000000  0.4496560000000 1.0
C      1  0.4252480000000  0.4334840000000  0.5054150000000 1.0
C      1  0.4876100000000  0.5606170000000  0.4702450000000 1.0
C      1  0.4442400000000  0.4780070000000  0.5422660000000 1.0
C      1  0.5552460000000  0.5505650000000  0.5629350000000 1.0
C      1  0.4557540000000  0.5066590000000  0.5450680000000 1.0
C      1  0.5619490000000  0.5914010000000  0.4770030000000 1.0
C      1  0.4435140000000  0.4208020000000  0.4862850000000 1.0
C      1  0.4888440000000  0.5699300000000  0.5814260000000 1.0
C      1  0.5068190000000  0.5747750000000  0.4291860000000 1.0
C      1  0.4801520000000  0.4556840000000  0.4913900000000 1.0
C      1  0.4516500000000  0.5049270000000  0.4717310000000 1.0
C      1  0.5649610000000  0.5620470000000  0.4820000000000 1.0
C      1  0.5516870000000  0.5158050000000  0.4994570000000 1.0
C      1  0.4824200000000  0.4669710000000  0.4648150000000 1.0
C      1  0.4468060000000  0.5485200000000  0.4364000000000 1.0
C      1  0.5301260000000  0.4345970000000  0.4252310000000 1.0
C      1  0.5470970000000  0.4216250000000  0.4454260000000 1.0
C      1  0.4162250000000  0.5252920000000  0.5208740000000 1.0
C      1  0.5772710000000  0.5459050000000  0.4395710000000 1.0
C      1  0.4903870000000  0.5524690000000  0.4413050000000 1.0
C      1  0.5048920000000  0.4418830000000  0.5025540000000 1.0
C      1  0.4558780000000  0.4499730000000  0.5720570000000 1.0
C      1  0.4966300000000  0.4359510000000  0.5546140000000 1.0
C      1  0.4915620000000  0.4926520000000  0.6062850000000 1.0
C      1  0.5696260000000  0.4081320000000  0.5029220000000 1.0
C      1  0.5166460000000  0.5644810000000  0.5873260000000 1.0
C      1  0.4051840000000  0.4947170000000  0.4675210000000 1.0
C      1  0.5383490000000  0.5297280000000  0.5474040000000 1.0
C      1  0.4836160000000  0.4291990000000  0.4189420000000 1.0
C      1  0.4297850000000  0.5205480000000  0.5707320000000 1.0
C      1  0.5261300000000  0.4788490000000  0.5739320000000 1.0
C      1  0.5286990000000  0.4444080000000  0.4844630000000 1.0
C      1  0.5701820000000  0.4261980000000  0.5258260000000 1.0
C      1  0.4671930000000  0.5097020000000  0.6019380000000 1.0
C      1  0.5948920000000  0.4336250000000  0.4896700000000 1.0
C      1  0.5235790000000  0.4980370000000  0.5493370000000 1.0
C      1  0.4861370000000  0.4921750000000  0.4351790000000 1.0
C      1  0.5304410000000  0.5079110000000  0.4471980000000 1.0
C      1  0.4126210000000  0.5556640000000  0.4735500000000 1.0
C      1  0.4268130000000  0.5116270000000  0.4540680000000 1.0
C      1  0.4935320000000  0.5162660000000  0.4775660000000 1.0
C      1  0.4555850000000  0.4763620000000  0.4608540000000 1.0
C      1  0.4508720000000  0.4773500000000  0.4298420000000 1.0
C      1  0.4581930000000  0.5741700000000  0.4381340000000 1.0
C      1  0.4858880000000  0.5998440000000  0.4670470000000 1.0
C      1  0.5456420000000  0.4304680000000  0.5417290000000 1.0
C      1  0.4916460000000  0.5807760000000  0.5541640000000 1.0
C      1  0.5625750000000  0.5100050000000  0.5787810000000 1.0
C      1  0.4589450000000  0.3978660000000  0.4961760000000 1.0
C      1  0.5366370000000  0.5152970000000  0.4179310000000 1.0
C      1  0.4919950000000  0.4863770000000  0.5212370000000 1.0
C      1  0.4131910000000  0.4654420000000  0.4683640000000 1.0
C      1  0.5106940000000  0.4548860000000  0.5299250000000 1.0
C      1  0.4026230000000  0.4794280000000  0.5125950000000 1.0
C      1  0.5349800000000  0.4771690000000  0.5295570000000 1.0
C      1  0.4397310000000  0.5041820000000  0.4268850000000 1.0
C      1  0.4712050000000  0.5366750000000  0.4821770000000 1.0
C      1  0.5481700000000  0.5915800000000  0.4503920000000 1.0
C      1  0.5316490000000  0.5973630000000  0.5238730000000 1.0
C      1  0.5801310000000  0.5175800000000  0.5072420000000 1.0
C      1  0.5496330000000  0.4973900000000  0.3986350000000 1.0
C      1  0.5144690000000  0.5607930000000  0.4849450000000 1.0
C      1  0.5787420000000  0.4732080000000  0.5088680000000 1.0
C      1  0.4706040000000  0.5451730000000  0.5865500000000 1.0
C      1  0.4387140000000  0.4715290000000  0.5802160000000 1.0
C      1  0.4982670000000  0.4751170000000  0.5837670000000 1.0
C      1  0.4439130000000  0.4991710000000  0.5868320000000 1.0
C      1  0.5433890000000  0.3995570000000  0.4928200000000 1.0
C      1  0.5011590000000  0.5165470000000  0.4485980000000 1.0
C      1  0.5348740000000  0.4902500000000  0.5010290000000 1.0
C      1  0.5144310000000  0.5327330000000  0.4074100000000 1.0
C      1  0.5477340000000  0.5226680000000  0.4687850000000 1.0
C      1  0.5833740000000  0.5071350000000  0.4647610000000 1.0
C      1  0.5433450000000  0.4708710000000  0.4780570000000 1.0
C      1  0.4730040000000  0.4149200000000  0.5473230000000 1.0
C      1  0.4476530000000  0.5440450000000  0.5666850000000 1.0
C      1  0.4485500000000  0.4964830000000  0.4997340000000 1.0
C      1  0.5001400000000  0.4732130000000  0.4178840000000 1.0
C      1  0.5766740000000  0.5165720000000  0.4360760000000 1.0
C      1  0.5405610000000  0.5378520000000  0.5175320000000 1.0
C      1  0.4228810000000  0.5556270000000  0.5219040000000 1.0
C      1  0.5890330000000  0.4465440000000  0.5154830000000 1.0
C      1  0.5002560000000  0.4105100000000  0.5052180000000 1.0
C      1  0.4451020000000  0.5613870000000  0.5426290000000 1.0
C      1  0.4813080000000  0.3904890000000  0.4781620000000 1.0
C      1  0.5154780000000  0.5119500000000  0.6036380000000 1.0
C      1  0.4471600000000  0.4280240000000  0.4575550000000 1.0
C      1  0.4515060000000  0.5781230000000  0.4881640000000 1.0
C      1  0.5064770000000  0.4989140000000  0.4984120000000 1.0
C      1  0.4855510000000  0.5265790000000  0.4084290000000 1.0
C      1  0.4693600000000  0.5772440000000  0.5354530000000 1.0
C      1  0.5310290000000  0.4057280000000  0.5434000000000 1.0
C      1  0.5238440000000  0.3956100000000  0.5155560000000 1.0
C      1  0.4284330000000  0.4295290000000  0.5329960000000 1.0
C      1  0.5677500000000  0.4967210000000  0.5520130000000 1.0
C      1  0.4293990000000  0.4505040000000  0.4473590000000 1.0
C      1  0.5825050000000  0.4970410000000  0.5255170000000 1.0
C      1  0.5089230000000  0.4098550000000  0.5613190000000 1.0
C      1  0.4460960000000  0.5179820000000  0.5188840000000 1.0
C      1  0.4761500000000  0.4265780000000  0.4475240000000 1.0
C      1  0.5296280000000  0.4178060000000  0.4702770000000 1.0
C      1  0.4577850000000  0.5906100000000  0.4618580000000 1.0
C      1  0.4911320000000  0.5392110000000  0.5283080000000 1.0
C      1  0.5373640000000  0.5740630000000  0.5693270000000 1.0
C      1  0.4866590000000  0.5082960000000  0.5414700000000 1.0
C      1  0.5095200000000  0.4184790000000  0.4143710000000 1.0
C      1  0.4104840000000  0.5125860000000  0.5478680000000 1.0
C      1  0.5498170000000  0.5622610000000  0.4380760000000 1.0
C      1  0.3996070000000  0.5039430000000  0.4960710000000 1.0
C      1  0.4905670000000  0.6024760000000  0.4956230000000 1.0
C      1  0.4812390000000  0.4549480000000  0.4073490000000 1.0
C      1  0.4651550000000  0.4742170000000  0.5119030000000 1.0
C      1  0.4702170000000  0.5863290000000  0.5080980000000 1.0
C      1  0.5678320000000  0.5373930000000  0.5842830000000 1.0
C      1  0.5175860000000  0.5960880000000  0.4992640000000 1.0
C      1  0.4637090000000  0.5425340000000  0.5116560000000 1.0
C      1  0.5202550000000  0.4607370000000  0.4342220000000 1.0
C      1  0.4845690000000  0.4510870000000  0.5768310000000 1.0
C      1  0.5132980000000  0.5418170000000  0.5076880000000 1.0
C      1  0.5862700000000  0.5447860000000  0.4683560000000 1.0
C      1  0.4755540000000  0.4038870000000  0.5201670000000 1.0
C      1  0.5438020000000  0.4510470000000  0.5637970000000 1.0
C      1  0.5736130000000  0.5051420000000  0.4097980000000 1.0
C      1  0.4474090000000  0.4283260000000  0.5536860000000 1.0
C      1  0.4258060000000  0.5673830000000  0.4950010000000 1.0
C      1  0.4601510000000  0.5259890000000  0.4228340000000 1.0
C      1  0.4234380000000  0.5409950000000  0.4524750000000 1.0
C      1  0.4963570000000  0.5264050000000  0.5796310000000 1.0
C      1  0.5611490000000  0.5607130000000  0.5115370000000 1.0
C      1  0.5581710000000  0.5900480000000  0.5157250000000 1.0
C      1  0.4147260000000  0.4584530000000  0.4963050000000 1.0
C      1  0.5268620000000  0.5583460000000  0.4169620000000 1.0
C      1  0.5400180000000  0.5515830000000  0.4678450000000 1.0
END
