TITL C-951337-3020-15 -2.9222945898374e-07 125000 -740.296624255508 0 0 120 (C1) n - 1
REM
REM in /home/bkarasulu/work/CARBON/AIRSS/Generating-Clusters/EDIP-Nigel-Params/with-SteepDescent/Only-C1/SD-CG/HFTN-CG
REM
REM
REM
REM
REM
REM ./C.cell (11c1c37f851c82e70ff6c80c92926a4b)
REM
REM compiler GCC version 9.2.1 20190827 (Red Hat 9.2.1-1)
REM options -cpp -mtune=generic -march=x86-64 -g -O0 -fpre-include=/usr/include/finclude/math-vector-fortran.h
REM seed 1862483247 452410410 -1832482330 2111281059 1074639467 -267917537 2079882465 1945375364 1916425563 -237476508 2138421279 -1587439196 899758657 76539312 7143411 -745712515 383692207 -1580438903 -539209769 2070796335 1624783430 1130626575 792498530 -1969328572 797480198 800351992 -1227386848 -1670807087 -770845716 -190415819 -667967722 1680928744 1947435161
REM
CELL 1.54180   50.00000   50.00000   50.00000   90.00000   90.00000   90.00000
LATT -1
SFAC C  
C      1  0.4848310000000  0.4650880000000  0.5864570000000 1.0
C      1  0.4201410000000  0.4730740000000  0.4532490000000 1.0
C      1  0.5531950000000  0.5117300000000  0.4887250000000 1.0
C      1  0.5589980000000  0.4797420000000  0.5329890000000 1.0
C      1  0.5636430000000  0.5757930000000  0.5076210000000 1.0
C      1  0.5241480000000  0.4490620000000  0.5063240000000 1.0
C      1  0.4457080000000  0.5793130000000  0.5009050000000 1.0
C      1  0.5503820000000  0.5293600000000  0.5871510000000 1.0
C      1  0.5351630000000  0.5381900000000  0.4277200000000 1.0
C      1  0.5363480000000  0.6040220000000  0.4777390000000 1.0
C      1  0.4365200000000  0.4775250000000  0.5054610000000 1.0
C      1  0.5390350000000  0.5601530000000  0.5182400000000 1.0
C      1  0.5117030000000  0.4312310000000  0.4168270000000 1.0
C      1  0.4730540000000  0.4433300000000  0.4676990000000 1.0
C      1  0.4329730000000  0.5672950000000  0.5248440000000 1.0
C      1  0.5520410000000  0.5268240000000  0.5176660000000 1.0
C      1  0.5454600000000  0.4670670000000  0.4297940000000 1.0
C      1  0.5025490000000  0.3959010000000  0.5017750000000 1.0
C      1  0.4607860000000  0.4375700000000  0.4258620000000 1.0
C      1  0.4990630000000  0.4731080000000  0.4365010000000 1.0
C      1  0.5418930000000  0.4632870000000  0.4680570000000 1.0
C      1  0.5134260000000  0.4737470000000  0.5901820000000 1.0
C      1  0.5329940000000  0.4597950000000  0.5727040000000 1.0
C      1  0.5583850000000  0.5163410000000  0.5650930000000 1.0
C      1  0.5133550000000  0.5937860000000  0.5451550000000 1.0
C      1  0.5467410000000  0.5061460000000  0.5409670000000 1.0
C      1  0.5937850000000  0.4596640000000  0.5098470000000 1.0
C      1  0.5008820000000  0.5322020000000  0.4144250000000 1.0
C      1  0.5919530000000  0.5223400000000  0.4630650000000 1.0
C      1  0.4640550000000  0.4930740000000  0.4611570000000 1.0
C      1  0.4270960000000  0.4406480000000  0.5426410000000 1.0
C      1  0.5129400000000  0.5910300000000  0.4843310000000 1.0
C      1  0.4817800000000  0.4347080000000  0.5500600000000 1.0
C      1  0.4092060000000  0.4625620000000  0.5463460000000 1.0
C      1  0.5344100000000  0.4387750000000  0.5523820000000 1.0
C      1  0.4632740000000  0.5848810000000  0.5414400000000 1.0
C      1  0.4715020000000  0.5854210000000  0.5140200000000 1.0
C      1  0.4887640000000  0.3998620000000  0.4772950000000 1.0
C      1  0.5813070000000  0.5327300000000  0.5217220000000 1.0
C      1  0.5178950000000  0.5438990000000  0.4778210000000 1.0
C      1  0.5476940000000  0.4505550000000  0.5265250000000 1.0
C      1  0.4695770000000  0.5777800000000  0.4611730000000 1.0
C      1  0.5178590000000  0.5019290000000  0.5450340000000 1.0
C      1  0.4061040000000  0.4919000000000  0.4690670000000 1.0
C      1  0.4652860000000  0.4865640000000  0.5913360000000 1.0
C      1  0.4774200000000  0.5152640000000  0.5316830000000 1.0
C      1  0.5847990000000  0.5553550000000  0.5031380000000 1.0
C      1  0.5242260000000  0.5267210000000  0.5965430000000 1.0
C      1  0.5152920000000  0.5645540000000  0.4986020000000 1.0
C      1  0.4686710000000  0.4131150000000  0.5068640000000 1.0
C      1  0.5689810000000  0.4268370000000  0.4862020000000 1.0
C      1  0.4434550000000  0.4856390000000  0.4388940000000 1.0
C      1  0.5245840000000  0.4387560000000  0.4776840000000 1.0
C      1  0.4844500000000  0.4800840000000  0.4112550000000 1.0
C      1  0.4120270000000  0.4883550000000  0.5576260000000 1.0
C      1  0.5042710000000  0.4680810000000  0.5149060000000 1.0
C      1  0.4547350000000  0.5612290000000  0.4785310000000 1.0
C      1  0.5665590000000  0.5694270000000  0.4588120000000 1.0
C      1  0.5702270000000  0.4526340000000  0.4700870000000 1.0
C      1  0.4885730000000  0.5858150000000  0.5562870000000 1.0
C      1  0.5085470000000  0.4932740000000  0.4985920000000 1.0
C      1  0.4328320000000  0.5107720000000  0.4281940000000 1.0
C      1  0.5052910000000  0.5120740000000  0.5217310000000 1.0
C      1  0.5465260000000  0.5628310000000  0.4389550000000 1.0
C      1  0.4817850000000  0.5382970000000  0.4361770000000 1.0
C      1  0.4130680000000  0.4898340000000  0.5191470000000 1.0
C      1  0.5093160000000  0.5032470000000  0.5884430000000 1.0
C      1  0.4645500000000  0.4410640000000  0.4952920000000 1.0
C      1  0.4424030000000  0.4306780000000  0.4478540000000 1.0
C      1  0.4218710000000  0.5136360000000  0.4800480000000 1.0
C      1  0.5732970000000  0.4371110000000  0.5144200000000 1.0
C      1  0.4265120000000  0.4303900000000  0.5165070000000 1.0
C      1  0.4822600000000  0.4645760000000  0.5567780000000 1.0
C      1  0.4338450000000  0.5322950000000  0.5572360000000 1.0
C      1  0.5043270000000  0.5478870000000  0.5888130000000 1.0
C      1  0.4325800000000  0.5318750000000  0.4482750000000 1.0
C      1  0.5595810000000  0.5887210000000  0.4806610000000 1.0
C      1  0.4888890000000  0.4230120000000  0.4315970000000 1.0
C      1  0.4279070000000  0.5387940000000  0.5287000000000 1.0
C      1  0.4888060000000  0.5078490000000  0.4045070000000 1.0
C      1  0.5951420000000  0.5084570000000  0.5119880000000 1.0
C      1  0.4359690000000  0.4490540000000  0.4955380000000 1.0
C      1  0.4480300000000  0.4995740000000  0.4885290000000 1.0
C      1  0.4962510000000  0.5253940000000  0.4804280000000 1.0
C      1  0.5808740000000  0.5190310000000  0.4377570000000 1.0
C      1  0.4918460000000  0.5921930000000  0.4662850000000 1.0
C      1  0.5548890000000  0.5161680000000  0.4278840000000 1.0
C      1  0.5359400000000  0.4877650000000  0.4874680000000 1.0
C      1  0.4875060000000  0.5149860000000  0.4542400000000 1.0
C      1  0.5877380000000  0.4830030000000  0.5272870000000 1.0
C      1  0.5113330000000  0.4988280000000  0.4412360000000 1.0
C      1  0.4782510000000  0.4595720000000  0.5106050000000 1.0
C      1  0.4589460000000  0.5479650000000  0.5653080000000 1.0
C      1  0.4750000000000  0.5379210000000  0.5900150000000 1.0
C      1  0.4952090000000  0.4245650000000  0.4623920000000 1.0
C      1  0.4825960000000  0.4700170000000  0.4617320000000 1.0
C      1  0.5065670000000  0.5528570000000  0.5587990000000 1.0
C      1  0.5088920000000  0.4263970000000  0.5484400000000 1.0
C      1  0.4809490000000  0.5440280000000  0.5430370000000 1.0
C      1  0.5790780000000  0.5470970000000  0.4746550000000 1.0
C      1  0.5204800000000  0.4536430000000  0.4312420000000 1.0
C      1  0.4581390000000  0.4678110000000  0.4177480000000 1.0
C      1  0.5830810000000  0.5025640000000  0.4846480000000 1.0
C      1  0.5399490000000  0.4941240000000  0.4372030000000 1.0
C      1  0.4609970000000  0.5195790000000  0.5067940000000 1.0
C      1  0.5093310000000  0.4732590000000  0.5449630000000 1.0
C      1  0.5303970000000  0.3974920000000  0.5007390000000 1.0
C      1  0.5418270000000  0.4150220000000  0.4817930000000 1.0
C      1  0.4871160000000  0.5599970000000  0.5127380000000 1.0
C      1  0.4536200000000  0.5425860000000  0.4303730000000 1.0
C      1  0.4587870000000  0.4209270000000  0.5357150000000 1.0
C      1  0.4639290000000  0.4932210000000  0.5525630000000 1.0
C      1  0.5892650000000  0.4715020000000  0.4823760000000 1.0
C      1  0.4816790000000  0.5093800000000  0.5894900000000 1.0
C      1  0.4362890000000  0.5031280000000  0.5626330000000 1.0
C      1  0.4263880000000  0.4471800000000  0.4657840000000 1.0
C      1  0.4735810000000  0.5417600000000  0.4930000000000 1.0
C      1  0.5282710000000  0.5698090000000  0.5448510000000 1.0
C      1  0.4123060000000  0.5196820000000  0.5104850000000 1.0
C      1  0.5431910000000  0.5333720000000  0.4667990000000 1.0
END
