TITL C-951343-2256-41 -4.45907613255277e-05 125000 -935.122085330971 0 0 148 (C1) n - 1
REM
REM in /home/bkarasulu/work/CARBON/AIRSS/Generating-Clusters/EDIP-Nigel-Params/with-SteepDescent/Only-C1/SD-CG/HFTN-CG
REM
REM
REM
REM
REM
REM ./C.cell (11c1c37f851c82e70ff6c80c92926a4b)
REM
REM compiler GCC version 9.2.1 20190827 (Red Hat 9.2.1-1)
REM options -cpp -mtune=generic -march=x86-64 -g -O0 -fpre-include=/usr/include/finclude/math-vector-fortran.h
REM seed 697541663 -1476560216 280324789 -2138359693 -2103420623 743655833 1145381908 659033783 963991294 2123987900 2054731215 1804130238 -95076494 -1666901111 -1095513715 25494778 2137807973 -1973357404 -340669503 -695937310 819657763 -2060761840 1210405779 -1291882786 -1296496449 -666875118 -1387842792 -1521349736 -1050505872 1308886899 1212688133 -254948971 79387169
REM
CELL 1.54180   50.00000   50.00000   50.00000   90.00000   90.00000   90.00000
LATT -1
SFAC C  
C      1  0.4395410000000  0.4549290000000  0.5663080000000 1.0
C      1  0.6032430000000  0.5125890000000  0.5329010000000 1.0
C      1  0.4562150000000  0.5685280000000  0.4265100000000 1.0
C      1  0.4184170000000  0.4355640000000  0.4665690000000 1.0
C      1  0.5931390000000  0.4876970000000  0.5439190000000 1.0
C      1  0.4475180000000  0.5293070000000  0.5616590000000 1.0
C      1  0.4458070000000  0.5855090000000  0.4490210000000 1.0
C      1  0.4176470000000  0.4618170000000  0.4760090000000 1.0
C      1  0.5684550000000  0.4985350000000  0.4482690000000 1.0
C      1  0.4836530000000  0.4063050000000  0.5712320000000 1.0
C      1  0.5483830000000  0.5125370000000  0.5482110000000 1.0
C      1  0.4448890000000  0.4805090000000  0.5239800000000 1.0
C      1  0.5280020000000  0.4700210000000  0.4660950000000 1.0
C      1  0.5163590000000  0.4992800000000  0.4057170000000 1.0
C      1  0.5411440000000  0.4924320000000  0.6120610000000 1.0
C      1  0.5157860000000  0.5478230000000  0.4197490000000 1.0
C      1  0.4698740000000  0.4876990000000  0.4003390000000 1.0
C      1  0.5772140000000  0.5485380000000  0.5340860000000 1.0
C      1  0.5383000000000  0.4120370000000  0.5208320000000 1.0
C      1  0.4613380000000  0.5535530000000  0.5768610000000 1.0
C      1  0.5539300000000  0.5420940000000  0.5503030000000 1.0
C      1  0.4854730000000  0.5709550000000  0.4221350000000 1.0
C      1  0.5678100000000  0.4255660000000  0.4879230000000 1.0
C      1  0.5027000000000  0.5240880000000  0.4040610000000 1.0
C      1  0.5859070000000  0.4466240000000  0.4800070000000 1.0
C      1  0.4446110000000  0.4773790000000  0.4112030000000 1.0
C      1  0.6104180000000  0.5141850000000  0.5048420000000 1.0
C      1  0.4874630000000  0.5317110000000  0.4550630000000 1.0
C      1  0.4470560000000  0.5042660000000  0.4754080000000 1.0
C      1  0.5403040000000  0.4689550000000  0.5960880000000 1.0
C      1  0.4356240000000  0.4372580000000  0.5210440000000 1.0
C      1  0.4590660000000  0.5566110000000  0.4868900000000 1.0
C      1  0.5274290000000  0.4575820000000  0.3946280000000 1.0
C      1  0.4654250000000  0.5015950000000  0.5225550000000 1.0
C      1  0.4897020000000  0.4222400000000  0.5920930000000 1.0
C      1  0.4156550000000  0.5725060000000  0.4917900000000 1.0
C      1  0.4519920000000  0.5027960000000  0.5743770000000 1.0
C      1  0.5645040000000  0.4228850000000  0.5167320000000 1.0
C      1  0.4200660000000  0.5267120000000  0.5460470000000 1.0
C      1  0.5421570000000  0.5140520000000  0.5928410000000 1.0
C      1  0.5164660000000  0.5865290000000  0.4542240000000 1.0
C      1  0.4830360000000  0.4309160000000  0.4293670000000 1.0
C      1  0.4796290000000  0.4945520000000  0.5748270000000 1.0
C      1  0.4896690000000  0.4492320000000  0.5023180000000 1.0
C      1  0.4405810000000  0.4222710000000  0.4568830000000 1.0
C      1  0.6007520000000  0.5392470000000  0.4924460000000 1.0
C      1  0.4537530000000  0.4531450000000  0.5389270000000 1.0
C      1  0.4805410000000  0.4103590000000  0.5203920000000 1.0
C      1  0.4087810000000  0.4991810000000  0.4447710000000 1.0
C      1  0.4377910000000  0.5823220000000  0.5205350000000 1.0
C      1  0.4014020000000  0.4767870000000  0.4590310000000 1.0
C      1  0.3982390000000  0.5225230000000  0.4867670000000 1.0
C      1  0.4942520000000  0.5325530000000  0.5456910000000 1.0
C      1  0.4432750000000  0.4754430000000  0.4898470000000 1.0
C      1  0.5259880000000  0.4519630000000  0.4414090000000 1.0
C      1  0.5150050000000  0.5636910000000  0.5676750000000 1.0
C      1  0.4034370000000  0.5474000000000  0.5034530000000 1.0
C      1  0.4591080000000  0.4955190000000  0.4490560000000 1.0
C      1  0.4950700000000  0.4093000000000  0.5461110000000 1.0
C      1  0.5416680000000  0.4161970000000  0.4754360000000 1.0
C      1  0.5265860000000  0.4229530000000  0.4503990000000 1.0
C      1  0.5353550000000  0.4741420000000  0.5170990000000 1.0
C      1  0.4784840000000  0.5803030000000  0.4816210000000 1.0
C      1  0.4197310000000  0.5174660000000  0.4657290000000 1.0
C      1  0.4840420000000  0.5950060000000  0.5061140000000 1.0
C      1  0.4116330000000  0.4975390000000  0.5463640000000 1.0
C      1  0.4649710000000  0.5286550000000  0.5366570000000 1.0
C      1  0.4529660000000  0.4156050000000  0.5081890000000 1.0
C      1  0.5914360000000  0.4641020000000  0.5268470000000 1.0
C      1  0.4330180000000  0.4840660000000  0.5623730000000 1.0
C      1  0.4259870000000  0.5429030000000  0.4530230000000 1.0
C      1  0.5303390000000  0.5716460000000  0.5142270000000 1.0
C      1  0.4704300000000  0.5983820000000  0.4584300000000 1.0
C      1  0.5605590000000  0.4430890000000  0.5608510000000 1.0
C      1  0.5551460000000  0.4660620000000  0.4932840000000 1.0
C      1  0.5263550000000  0.5034730000000  0.5688110000000 1.0
C      1  0.5372400000000  0.5709120000000  0.4431700000000 1.0
C      1  0.5601010000000  0.4849800000000  0.4207530000000 1.0
C      1  0.5433190000000  0.5323370000000  0.4202940000000 1.0
C      1  0.5107320000000  0.5957960000000  0.5182480000000 1.0
C      1  0.4014360000000  0.4823680000000  0.5226370000000 1.0
C      1  0.5240640000000  0.4123900000000  0.5455340000000 1.0
C      1  0.4924830000000  0.4927420000000  0.5218750000000 1.0
C      1  0.4621270000000  0.5990880000000  0.5254390000000 1.0
C      1  0.5305270000000  0.5574750000000  0.5426300000000 1.0
C      1  0.5778870000000  0.5475620000000  0.4496020000000 1.0
C      1  0.5440170000000  0.4590510000000  0.4180360000000 1.0
C      1  0.5221680000000  0.4560490000000  0.5436050000000 1.0
C      1  0.5363070000000  0.5307370000000  0.4727520000000 1.0
C      1  0.4114860000000  0.4548350000000  0.5189550000000 1.0
C      1  0.5565910000000  0.5273390000000  0.4465240000000 1.0
C      1  0.4969260000000  0.4578380000000  0.4314060000000 1.0
C      1  0.4350920000000  0.5651930000000  0.4698090000000 1.0
C      1  0.5076560000000  0.5172460000000  0.5223310000000 1.0
C      1  0.4530560000000  0.4492270000000  0.5898840000000 1.0
C      1  0.5438180000000  0.5057650000000  0.4072510000000 1.0
C      1  0.5980940000000  0.4656550000000  0.4981080000000 1.0
C      1  0.5370300000000  0.4276700000000  0.5654740000000 1.0
C      1  0.4670140000000  0.5210500000000  0.4350360000000 1.0
C      1  0.4879030000000  0.4508930000000  0.5363390000000 1.0
C      1  0.4804920000000  0.4483840000000  0.5922880000000 1.0
C      1  0.4798110000000  0.5954580000000  0.5502020000000 1.0
C      1  0.5373790000000  0.5066480000000  0.5205450000000 1.0
C      1  0.5782940000000  0.4887720000000  0.5692670000000 1.0
C      1  0.5220080000000  0.4730320000000  0.5712190000000 1.0
C      1  0.6007440000000  0.5375140000000  0.5455390000000 1.0
C      1  0.4491760000000  0.5551480000000  0.5162240000000 1.0
C      1  0.5648770000000  0.4646340000000  0.5795990000000 1.0
C      1  0.4536710000000  0.4315700000000  0.4320010000000 1.0
C      1  0.4994720000000  0.5328430000000  0.5956740000000 1.0
C      1  0.5030580000000  0.4721950000000  0.4033070000000 1.0
C      1  0.4751840000000  0.5156330000000  0.4072730000000 1.0
C      1  0.4735090000000  0.5298510000000  0.4817900000000 1.0
C      1  0.5070610000000  0.4742680000000  0.5047920000000 1.0
C      1  0.5259650000000  0.4040820000000  0.4966400000000 1.0
C      1  0.5740340000000  0.4426940000000  0.5353880000000 1.0
C      1  0.5723880000000  0.5440330000000  0.5043730000000 1.0
C      1  0.4690370000000  0.4604240000000  0.4811790000000 1.0
C      1  0.4252410000000  0.5366410000000  0.5189440000000 1.0
C      1  0.5973080000000  0.5029610000000  0.4594870000000 1.0
C      1  0.5696830000000  0.5139610000000  0.5809650000000 1.0
C      1  0.5234670000000  0.5480110000000  0.5917260000000 1.0
C      1  0.4982200000000  0.4128860000000  0.4472820000000 1.0
C      1  0.6025870000000  0.4925760000000  0.4871210000000 1.0
C      1  0.4413890000000  0.4500010000000  0.4150130000000 1.0
C      1  0.4840880000000  0.5670970000000  0.5607020000000 1.0
C      1  0.4755120000000  0.5468510000000  0.5999070000000 1.0
C      1  0.5179770000000  0.5523580000000  0.4903280000000 1.0
C      1  0.3922180000000  0.4993440000000  0.5020210000000 1.0
C      1  0.5523840000000  0.5209140000000  0.4978130000000 1.0
C      1  0.4929490000000  0.5946710000000  0.4375350000000 1.0
C      1  0.5048430000000  0.4886930000000  0.4686740000000 1.0
C      1  0.5603650000000  0.5687080000000  0.4623700000000 1.0
C      1  0.5031760000000  0.5692050000000  0.4723990000000 1.0
C      1  0.4990840000000  0.5161890000000  0.5710010000000 1.0
C      1  0.4566380000000  0.4112590000000  0.4781960000000 1.0
C      1  0.4909330000000  0.4671670000000  0.5717940000000 1.0
C      1  0.6005440000000  0.5333870000000  0.4632550000000 1.0
C      1  0.4841090000000  0.4037160000000  0.4718610000000 1.0
C      1  0.4247020000000  0.4941740000000  0.4220910000000 1.0
C      1  0.4451210000000  0.5413530000000  0.4312920000000 1.0
C      1  0.4979170000000  0.4113840000000  0.4961080000000 1.0
C      1  0.4809080000000  0.4752650000000  0.4563960000000 1.0
C      1  0.5590660000000  0.5685800000000  0.4929970000000 1.0
C      1  0.5121390000000  0.5156500000000  0.4594320000000 1.0
C      1  0.5059290000000  0.6059200000000  0.5443170000000 1.0
C      1  0.4980380000000  0.5336300000000  0.5002010000000 1.0
C      1  0.5525330000000  0.4862730000000  0.4702360000000 1.0
END
