TITL C-951342-2639-198 2.69070461704516e-08 125000 -675.135211831743 0 0 108 (C1) n - 1
REM
REM in /home/bkarasulu/work/CARBON/AIRSS/Generating-Clusters/EDIP-Nigel-Params/with-SteepDescent/Only-C1/SD-CG/HFTN-CG
REM
REM
REM
REM
REM
REM ./C.cell (11c1c37f851c82e70ff6c80c92926a4b)
REM
REM compiler GCC version 9.2.1 20190827 (Red Hat 9.2.1-1)
REM options -cpp -mtune=generic -march=x86-64 -g -O0 -fpre-include=/usr/include/finclude/math-vector-fortran.h
REM seed -597172851 1867870923 2014486132 -90704300 -1338940640 64602431 -1267257603 969067642 -658021464 -349986665 1016175439 -797737311 -1857467963 970922263 1786457499 778087455 -555008138 1275787670 -1683581288 -1540308148 -2117709653 -580821438 -1695864253 820528050 -1189222947 -29520807 -992038917 1760488621 -1507540150 1752643080 857447827 2011888550 568249024
REM
CELL 1.54180   50.00000   50.00000   50.00000   90.00000   90.00000   90.00000
LATT -1
SFAC C  
C      1  0.5510310000000  0.4222960000000  0.4816810000000 1.0
C      1  0.5151690000000  0.4585740000000  0.4145880000000 1.0
C      1  0.5198710000000  0.5676760000000  0.5685130000000 1.0
C      1  0.4588600000000  0.5389280000000  0.4422920000000 1.0
C      1  0.5840620000000  0.4874230000000  0.5162160000000 1.0
C      1  0.4359820000000  0.5199980000000  0.4366120000000 1.0
C      1  0.5526560000000  0.5152630000000  0.4504610000000 1.0
C      1  0.5729610000000  0.4432980000000  0.4887270000000 1.0
C      1  0.5260280000000  0.4807740000000  0.5772330000000 1.0
C      1  0.4701620000000  0.5226480000000  0.4649750000000 1.0
C      1  0.5337730000000  0.5108290000000  0.5241480000000 1.0
C      1  0.4417800000000  0.4514520000000  0.5326260000000 1.0
C      1  0.5018980000000  0.4485640000000  0.5559990000000 1.0
C      1  0.4712370000000  0.4743610000000  0.4754450000000 1.0
C      1  0.4685110000000  0.5640780000000  0.5604900000000 1.0
C      1  0.4966540000000  0.4849600000000  0.5842350000000 1.0
C      1  0.4807830000000  0.4628440000000  0.5716270000000 1.0
C      1  0.5259810000000  0.4247320000000  0.4980040000000 1.0
C      1  0.4769380000000  0.4955190000000  0.4542930000000 1.0
C      1  0.4406400000000  0.4923610000000  0.5676190000000 1.0
C      1  0.4682740000000  0.4564220000000  0.4330160000000 1.0
C      1  0.4503530000000  0.5572700000000  0.5131720000000 1.0
C      1  0.5755660000000  0.4581570000000  0.5160720000000 1.0
C      1  0.4515090000000  0.5403590000000  0.5606090000000 1.0
C      1  0.5443150000000  0.5875070000000  0.4699140000000 1.0
C      1  0.4555280000000  0.4876620000000  0.4995530000000 1.0
C      1  0.5062050000000  0.5021320000000  0.4494960000000 1.0
C      1  0.4557450000000  0.5184230000000  0.4912610000000 1.0
C      1  0.4971630000000  0.5810910000000  0.4726440000000 1.0
C      1  0.4502690000000  0.5640620000000  0.4614800000000 1.0
C      1  0.4192060000000  0.5314390000000  0.4850800000000 1.0
C      1  0.4280160000000  0.4629780000000  0.4595850000000 1.0
C      1  0.5456500000000  0.4187260000000  0.5418300000000 1.0
C      1  0.5559910000000  0.4500410000000  0.4424300000000 1.0
C      1  0.4474770000000  0.4175620000000  0.4957330000000 1.0
C      1  0.5269260000000  0.5815150000000  0.5141100000000 1.0
C      1  0.5094580000000  0.4992350000000  0.5148450000000 1.0
C      1  0.4986930000000  0.4210980000000  0.4787550000000 1.0
C      1  0.5838650000000  0.5425940000000  0.5064260000000 1.0
C      1  0.5019930000000  0.5685570000000  0.5239820000000 1.0
C      1  0.5204400000000  0.4753000000000  0.4618800000000 1.0
C      1  0.5572930000000  0.5058030000000  0.4798210000000 1.0
C      1  0.5445830000000  0.4979190000000  0.4273100000000 1.0
C      1  0.4266540000000  0.4644120000000  0.5113070000000 1.0
C      1  0.4691150000000  0.4863050000000  0.5276200000000 1.0
C      1  0.4575110000000  0.5157520000000  0.5748370000000 1.0
C      1  0.4727170000000  0.5339560000000  0.5121080000000 1.0
C      1  0.5026650000000  0.5099850000000  0.4196530000000 1.0
C      1  0.5802360000000  0.5351230000000  0.5339590000000 1.0
C      1  0.4835610000000  0.4271070000000  0.5197270000000 1.0
C      1  0.5223350000000  0.5428820000000  0.4858380000000 1.0
C      1  0.4974060000000  0.5577030000000  0.5526290000000 1.0
C      1  0.4159560000000  0.5138690000000  0.5092870000000 1.0
C      1  0.4996800000000  0.5255130000000  0.5548200000000 1.0
C      1  0.5343370000000  0.5521460000000  0.4241750000000 1.0
C      1  0.5477840000000  0.4488590000000  0.5358170000000 1.0
C      1  0.5078660000000  0.5313350000000  0.4615890000000 1.0
C      1  0.5334580000000  0.4130450000000  0.5670110000000 1.0
C      1  0.5078470000000  0.5510710000000  0.4371580000000 1.0
C      1  0.5614520000000  0.5571800000000  0.5422030000000 1.0
C      1  0.4997740000000  0.4069760000000  0.5350630000000 1.0
C      1  0.4983620000000  0.4650580000000  0.4815890000000 1.0
C      1  0.5331240000000  0.4535890000000  0.5076710000000 1.0
C      1  0.4526570000000  0.5809860000000  0.5424360000000 1.0
C      1  0.4993720000000  0.5783370000000  0.4442180000000 1.0
C      1  0.4661460000000  0.4862620000000  0.4272400000000 1.0
C      1  0.4859360000000  0.5364870000000  0.4215720000000 1.0
C      1  0.5995910000000  0.5261710000000  0.4907130000000 1.0
C      1  0.5347900000000  0.4696680000000  0.4337690000000 1.0
C      1  0.5109000000000  0.4323990000000  0.4546810000000 1.0
C      1  0.5444540000000  0.5261380000000  0.5010200000000 1.0
C      1  0.5269110000000  0.4067360000000  0.5220880000000 1.0
C      1  0.5060400000000  0.4189860000000  0.5615210000000 1.0
C      1  0.5074820000000  0.4690920000000  0.5095190000000 1.0
C      1  0.4570630000000  0.4716960000000  0.5533180000000 1.0
C      1  0.4229110000000  0.5130140000000  0.4618710000000 1.0
C      1  0.5284600000000  0.5106420000000  0.4076540000000 1.0
C      1  0.5214050000000  0.5921500000000  0.4862500000000 1.0
C      1  0.5405290000000  0.4276640000000  0.4541980000000 1.0
C      1  0.5301060000000  0.5218590000000  0.5531300000000 1.0
C      1  0.4543730000000  0.4259200000000  0.5219310000000 1.0
C      1  0.4252720000000  0.5724350000000  0.5378150000000 1.0
C      1  0.4867960000000  0.5116390000000  0.5297710000000 1.0
C      1  0.4689260000000  0.5858270000000  0.4664730000000 1.0
C      1  0.4699800000000  0.4175960000000  0.4795400000000 1.0
C      1  0.5510110000000  0.5441020000000  0.4457430000000 1.0
C      1  0.4414260000000  0.4977860000000  0.4202960000000 1.0
C      1  0.5280080000000  0.4619140000000  0.5555100000000 1.0
C      1  0.5684020000000  0.4623380000000  0.4665490000000 1.0
C      1  0.5456670000000  0.4772100000000  0.4802860000000 1.0
C      1  0.4548460000000  0.4539960000000  0.4599750000000 1.0
C      1  0.5691290000000  0.4972070000000  0.5641850000000 1.0
C      1  0.4164670000000  0.4999260000000  0.5555500000000 1.0
C      1  0.4900630000000  0.4537290000000  0.5293200000000 1.0
C      1  0.4972100000000  0.5493830000000  0.5034950000000 1.0
C      1  0.5754940000000  0.5061170000000  0.5382410000000 1.0
C      1  0.5511070000000  0.5620300000000  0.5142690000000 1.0
C      1  0.4352840000000  0.5570480000000  0.4865730000000 1.0
C      1  0.5403280000000  0.5490330000000  0.5609290000000 1.0
C      1  0.4260750000000  0.5454040000000  0.5480160000000 1.0
C      1  0.5859330000000  0.5016660000000  0.4894480000000 1.0
C      1  0.4118940000000  0.4862980000000  0.4993590000000 1.0
C      1  0.4867050000000  0.5126690000000  0.5788440000000 1.0
C      1  0.4151030000000  0.4858490000000  0.4698350000000 1.0
C      1  0.5459600000000  0.5589740000000  0.4706890000000 1.0
C      1  0.5431820000000  0.5037930000000  0.5732000000000 1.0
C      1  0.4123090000000  0.5211310000000  0.5376080000000 1.0
C      1  0.4969610000000  0.4464010000000  0.4325070000000 1.0
END
