TITL C-951344-124-219 1.28808785211182e-07 125000 -167.601827200694 0 0 29 (C1) n - 1
REM
REM in /home/bkarasulu/work/CARBON/AIRSS/Generating-Clusters/EDIP-Nigel-Params/with-SteepDescent/Only-C1/SD-CG/HFTN-CG
REM
REM
REM
REM
REM
REM ./C.cell (11c1c37f851c82e70ff6c80c92926a4b)
REM
REM compiler GCC version 9.2.1 20190827 (Red Hat 9.2.1-1)
REM options -cpp -mtune=generic -march=x86-64 -g -O0 -fpre-include=/usr/include/finclude/math-vector-fortran.h
REM seed 1812535658 -1053042458 804544633 24108212 -1329152398 -531552318 1828562752 -1200693151 1872430124 -1009398031 -1671795524 313235539 1566861902 -258494338 689737277 -1820624190 1967879989 -1675054575 -1145691320 -280256226 331846496 -1652737076 1466879635 341506001 -347134967 761639600 -1020338392 1833343981 1438440130 -1237208163 -567084024 645826647 1524469551
REM
CELL 1.54180   50.00000   50.00000   50.00000   90.00000   90.00000   90.00000
LATT -1
SFAC C  
C      1  0.5366210000000  0.5593670000000  0.5374630000000 1.0
C      1  0.5247120000000  0.5563450000000  0.4882550000000 1.0
C      1  0.4767380000000  0.5436860000000  0.4732660000000 1.0
C      1  0.4652520000000  0.4488130000000  0.4877290000000 1.0
C      1  0.5185290000000  0.5367610000000  0.5332100000000 1.0
C      1  0.4537540000000  0.5216280000000  0.5432720000000 1.0
C      1  0.4522940000000  0.5238140000000  0.5155520000000 1.0
C      1  0.5072770000000  0.5492570000000  0.4677980000000 1.0
C      1  0.4759310000000  0.4678780000000  0.4673180000000 1.0
C      1  0.5225820000000  0.4500360000000  0.4867570000000 1.0
C      1  0.5438070000000  0.4950330000000  0.5282230000000 1.0
C      1  0.4729560000000  0.5383540000000  0.5018570000000 1.0
C      1  0.5066840000000  0.4373420000000  0.5063340000000 1.0
C      1  0.4664030000000  0.5004580000000  0.5003620000000 1.0
C      1  0.5070580000000  0.4712290000000  0.4713410000000 1.0
C      1  0.5139740000000  0.4991940000000  0.4805330000000 1.0
C      1  0.4731100000000  0.5168000000000  0.4556370000000 1.0
C      1  0.4649550000000  0.4229670000000  0.4808480000000 1.0
C      1  0.5373900000000  0.5473890000000  0.5113810000000 1.0
C      1  0.4974290000000  0.4939420000000  0.5387520000000 1.0
C      1  0.4918920000000  0.4857580000000  0.5099510000000 1.0
C      1  0.5041370000000  0.5191600000000  0.4593580000000 1.0
C      1  0.4615880000000  0.4945510000000  0.4711230000000 1.0
C      1  0.4757690000000  0.5076790000000  0.5499480000000 1.0
C      1  0.4848520000000  0.4554030000000  0.5091040000000 1.0
C      1  0.5519980000000  0.4862390000000  0.5032690000000 1.0
C      1  0.5470370000000  0.4596710000000  0.4967280000000 1.0
C      1  0.5228680000000  0.5084950000000  0.5413620000000 1.0
C      1  0.5424020000000  0.5027500000000  0.4832690000000 1.0
END
