TITL C-950524-1808-696 2.1884645314398e-07 125000 -348.652863911502 0 0 57 (C1) n - 1
REM
REM in /home/bkarasulu/work/CARBON/AIRSS/Generating-Clusters/EDIP-Nigel-Params/with-SteepDescent/Only-C1/SD-CG/HFTN-CG
REM
REM
REM
REM
REM
REM ./C.cell (11c1c37f851c82e70ff6c80c92926a4b)
REM
REM compiler GCC version 9.2.1 20190827 (Red Hat 9.2.1-1)
REM options -cpp -mtune=generic -march=x86-64 -g -O0 -fpre-include=/usr/include/finclude/math-vector-fortran.h
REM seed -1482666011 376605051 1826433489 1489827711 -1722546623 -1889265208 -1978901755 974399171 -1297656239 -1867814294 -1334868887 443596235 90147746 -324041830 427605325 -1315124340 54699547 350499925 1066438483 1895043829 -707644867 94535373 -106424196 -892451821 2093717770 -1607719311 -386119361 -248536362 -1125663756 180469565 -1517684913 -1370070639 -81270323
REM
CELL 1.54180   50.00000   50.00000   50.00000   90.00000   90.00000   90.00000
LATT -1
SFAC C  
C      1  0.4965050000000  0.4842050000000  0.5121740000000 1.0
C      1  0.5428240000000  0.5391030000000  0.4700810000000 1.0
C      1  0.4743350000000  0.4666990000000  0.4672380000000 1.0
C      1  0.4550030000000  0.5093340000000  0.5349120000000 1.0
C      1  0.5377060000000  0.4422920000000  0.4612570000000 1.0
C      1  0.5293820000000  0.4639760000000  0.5554970000000 1.0
C      1  0.5381980000000  0.5218600000000  0.5509680000000 1.0
C      1  0.4843710000000  0.5503190000000  0.4846730000000 1.0
C      1  0.4885430000000  0.5442290000000  0.5372700000000 1.0
C      1  0.5463580000000  0.4760720000000  0.5152390000000 1.0
C      1  0.5572670000000  0.4938280000000  0.4708210000000 1.0
C      1  0.4529540000000  0.5343640000000  0.4684560000000 1.0
C      1  0.4597540000000  0.5573370000000  0.4987570000000 1.0
C      1  0.5081510000000  0.4906560000000  0.4123930000000 1.0
C      1  0.4949390000000  0.4306020000000  0.4826840000000 1.0
C      1  0.5082920000000  0.5038050000000  0.4639910000000 1.0
C      1  0.4618190000000  0.5524330000000  0.5268460000000 1.0
C      1  0.4446220000000  0.4840450000000  0.4978490000000 1.0
C      1  0.4780310000000  0.5084610000000  0.5132830000000 1.0
C      1  0.4425550000000  0.4637220000000  0.5420680000000 1.0
C      1  0.4462820000000  0.5047790000000  0.4742750000000 1.0
C      1  0.5276770000000  0.4608120000000  0.4443090000000 1.0
C      1  0.4695940000000  0.4593030000000  0.5489000000000 1.0
C      1  0.4892130000000  0.4564290000000  0.5259730000000 1.0
C      1  0.4805390000000  0.4796920000000  0.5667980000000 1.0
C      1  0.5661520000000  0.4895800000000  0.4967260000000 1.0
C      1  0.4972250000000  0.5241080000000  0.4923820000000 1.0
C      1  0.5091690000000  0.4843940000000  0.5628470000000 1.0
C      1  0.4834220000000  0.5011050000000  0.4099100000000 1.0
C      1  0.4370940000000  0.4865920000000  0.5267060000000 1.0
C      1  0.5167180000000  0.4455900000000  0.5344800000000 1.0
C      1  0.4410560000000  0.5350520000000  0.5346730000000 1.0
C      1  0.5117850000000  0.4833110000000  0.4391780000000 1.0
C      1  0.5570170000000  0.4765330000000  0.5437650000000 1.0
C      1  0.5620240000000  0.5077270000000  0.5425290000000 1.0
C      1  0.4557780000000  0.4577510000000  0.4892450000000 1.0
C      1  0.4829010000000  0.4393950000000  0.4573800000000 1.0
C      1  0.5185070000000  0.5729280000000  0.5088410000000 1.0
C      1  0.4588200000000  0.4892300000000  0.4523220000000 1.0
C      1  0.5122770000000  0.5597500000000  0.5324170000000 1.0
C      1  0.4732110000000  0.5352530000000  0.4450270000000 1.0
C      1  0.5153480000000  0.5123090000000  0.5648500000000 1.0
C      1  0.4756680000000  0.4397300000000  0.5044490000000 1.0
C      1  0.5059790000000  0.5718150000000  0.4839640000000 1.0
C      1  0.5684440000000  0.5153880000000  0.5122330000000 1.0
C      1  0.5479180000000  0.5367340000000  0.5005490000000 1.0
C      1  0.5218810000000  0.4427550000000  0.4845650000000 1.0
C      1  0.5232970000000  0.4978410000000  0.5239830000000 1.0
C      1  0.5344580000000  0.4479440000000  0.5106010000000 1.0
C      1  0.5201780000000  0.5587130000000  0.4606100000000 1.0
C      1  0.5209940000000  0.5284670000000  0.5117950000000 1.0
C      1  0.4989440000000  0.4802980000000  0.4815570000000 1.0
C      1  0.4987630000000  0.5484660000000  0.4439550000000 1.0
C      1  0.4748150000000  0.5076730000000  0.4360010000000 1.0
C      1  0.4897160000000  0.5272460000000  0.5618010000000 1.0
C      1  0.5378450000000  0.5114350000000  0.4613400000000 1.0
C      1  0.4676810000000  0.5065310000000  0.5626070000000 1.0
END
