TITL C-951347-9520-270 -2.33023045577681e-06 125000 -1181.08408296265 0 0 188 (C1) n - 1
REM
REM in /home/bkarasulu/work/CARBON/AIRSS/Generating-Clusters/EDIP-Nigel-Params/with-SteepDescent/Only-C1/SD-CG/HFTN-CG
REM
REM
REM
REM
REM
REM ./C.cell (11c1c37f851c82e70ff6c80c92926a4b)
REM
REM compiler GCC version 9.2.1 20190827 (Red Hat 9.2.1-1)
REM options -cpp -mtune=generic -march=x86-64 -g -O0 -fpre-include=/usr/include/finclude/math-vector-fortran.h
REM seed -1222004552 113497339 -233766892 -1038478800 2115695791 1152551447 1369415212 1555114447 -710525064 -1542998060 -149471777 1410362211 1770770943 1074025079 -1244591790 -684797157 2120717590 735105933 -269163442 -761771168 -419189556 833771529 -1607341380 982931274 -1801040774 -1733278562 134159289 -1758100167 1577159408 -1889060461 -918116041 1414326542 642849878
REM
CELL 1.54180   50.00000   50.00000   50.00000   90.00000   90.00000   90.00000
LATT -1
SFAC C  
C      1  0.4458240000000  0.4202190000000  0.4666440000000 1.0
C      1  0.5435680000000  0.5878580000000  0.5501150000000 1.0
C      1  0.5320730000000  0.4216620000000  0.4018520000000 1.0
C      1  0.5588730000000  0.5050500000000  0.5121220000000 1.0
C      1  0.4397080000000  0.5615630000000  0.5781030000000 1.0
C      1  0.5314110000000  0.5531260000000  0.3920260000000 1.0
C      1  0.5022530000000  0.5757710000000  0.4434040000000 1.0
C      1  0.5682920000000  0.5173520000000  0.4148580000000 1.0
C      1  0.4898170000000  0.5064490000000  0.5679860000000 1.0
C      1  0.4901090000000  0.4853090000000  0.4845710000000 1.0
C      1  0.6055580000000  0.5055800000000  0.5482090000000 1.0
C      1  0.4811660000000  0.4374060000000  0.5078510000000 1.0
C      1  0.3933530000000  0.4826440000000  0.4570270000000 1.0
C      1  0.4526650000000  0.4384770000000  0.5179830000000 1.0
C      1  0.4862240000000  0.5889500000000  0.5651860000000 1.0
C      1  0.5831370000000  0.4666730000000  0.4648330000000 1.0
C      1  0.4640440000000  0.6090830000000  0.5174230000000 1.0
C      1  0.5910970000000  0.4614360000000  0.4947350000000 1.0
C      1  0.5025240000000  0.5187220000000  0.5158300000000 1.0
C      1  0.4936980000000  0.5131100000000  0.4196210000000 1.0
C      1  0.5606310000000  0.4151120000000  0.4907470000000 1.0
C      1  0.5995740000000  0.5587610000000  0.4970510000000 1.0
C      1  0.4538150000000  0.5118170000000  0.5955690000000 1.0
C      1  0.5479110000000  0.4592110000000  0.5182240000000 1.0
C      1  0.5039810000000  0.6082790000000  0.4838300000000 1.0
C      1  0.4465900000000  0.5366330000000  0.5241620000000 1.0
C      1  0.4818350000000  0.5613390000000  0.5137030000000 1.0
C      1  0.4733390000000  0.4133190000000  0.4657230000000 1.0
C      1  0.4729300000000  0.4845970000000  0.5561970000000 1.0
C      1  0.4815380000000  0.5373910000000  0.4365760000000 1.0
C      1  0.4449490000000  0.4862520000000  0.5023670000000 1.0
C      1  0.5086990000000  0.4083420000000  0.5511830000000 1.0
C      1  0.4237370000000  0.4719990000000  0.4264330000000 1.0
C      1  0.4370790000000  0.4640250000000  0.5236920000000 1.0
C      1  0.6167840000000  0.4960910000000  0.5059270000000 1.0
C      1  0.5314510000000  0.4258580000000  0.4919030000000 1.0
C      1  0.5020750000000  0.5243070000000  0.6068870000000 1.0
C      1  0.5990700000000  0.4764180000000  0.5453080000000 1.0
C      1  0.5026680000000  0.5704340000000  0.4944280000000 1.0
C      1  0.5755850000000  0.4194430000000  0.4675850000000 1.0
C      1  0.4601170000000  0.4385890000000  0.5731120000000 1.0
C      1  0.5592960000000  0.4146830000000  0.5411080000000 1.0
C      1  0.4977380000000  0.6085130000000  0.5463530000000 1.0
C      1  0.3909620000000  0.4719510000000  0.5175020000000 1.0
C      1  0.4119050000000  0.5589650000000  0.5726620000000 1.0
C      1  0.5288080000000  0.4777680000000  0.5717440000000 1.0
C      1  0.4490390000000  0.5272390000000  0.5526860000000 1.0
C      1  0.5764710000000  0.4507090000000  0.5192330000000 1.0
C      1  0.5804590000000  0.5570140000000  0.4497520000000 1.0
C      1  0.4594190000000  0.5249300000000  0.4535590000000 1.0
C      1  0.4912910000000  0.4192220000000  0.4421860000000 1.0
C      1  0.4497670000000  0.5362670000000  0.3999650000000 1.0
C      1  0.5934490000000  0.5153180000000  0.4671070000000 1.0
C      1  0.5530080000000  0.5626260000000  0.4083840000000 1.0
C      1  0.6109420000000  0.4692200000000  0.5180100000000 1.0
C      1  0.5399420000000  0.4259620000000  0.4293250000000 1.0
C      1  0.5184410000000  0.5531800000000  0.5390300000000 1.0
C      1  0.5283570000000  0.5668080000000  0.5141780000000 1.0
C      1  0.4266030000000  0.4741630000000  0.5779450000000 1.0
C      1  0.4735440000000  0.6027390000000  0.4889340000000 1.0
C      1  0.5501220000000  0.5486860000000  0.5737760000000 1.0
C      1  0.5647010000000  0.4692850000000  0.4169650000000 1.0
C      1  0.5047640000000  0.5719330000000  0.5800260000000 1.0
C      1  0.5613200000000  0.4366500000000  0.5616410000000 1.0
C      1  0.4658980000000  0.5555280000000  0.4182010000000 1.0
C      1  0.4217900000000  0.5609340000000  0.4312160000000 1.0
C      1  0.3998400000000  0.5504000000000  0.5264630000000 1.0
C      1  0.5182170000000  0.4087200000000  0.4452550000000 1.0
C      1  0.4819130000000  0.4786730000000  0.4346610000000 1.0
C      1  0.5546560000000  0.5523340000000  0.5070870000000 1.0
C      1  0.4301040000000  0.5010100000000  0.4187010000000 1.0
C      1  0.5451260000000  0.4770970000000  0.3960210000000 1.0
C      1  0.3762530000000  0.4658870000000  0.4721790000000 1.0
C      1  0.5921050000000  0.5055110000000  0.4942790000000 1.0
C      1  0.4408110000000  0.5722870000000  0.4869330000000 1.0
C      1  0.4984610000000  0.5543620000000  0.4665720000000 1.0
C      1  0.5661260000000  0.4804280000000  0.5831790000000 1.0
C      1  0.5104430000000  0.4386810000000  0.3989770000000 1.0
C      1  0.5001690000000  0.4463170000000  0.5302300000000 1.0
C      1  0.3952220000000  0.5008740000000  0.5178920000000 1.0
C      1  0.5834300000000  0.4401900000000  0.4509130000000 1.0
C      1  0.4687940000000  0.4584510000000  0.4151160000000 1.0
C      1  0.5215460000000  0.5541710000000  0.4291670000000 1.0
C      1  0.4709780000000  0.3925610000000  0.5146920000000 1.0
C      1  0.4660920000000  0.5276790000000  0.4812320000000 1.0
C      1  0.4298880000000  0.5200990000000  0.4442250000000 1.0
C      1  0.4866220000000  0.4483140000000  0.5846690000000 1.0
C      1  0.4561850000000  0.4214800000000  0.5474320000000 1.0
C      1  0.4021990000000  0.5112060000000  0.4632470000000 1.0
C      1  0.4998050000000  0.4253180000000  0.5986950000000 1.0
C      1  0.5390190000000  0.4357280000000  0.5814220000000 1.0
C      1  0.5181620000000  0.4129340000000  0.5788270000000 1.0
C      1  0.4720150000000  0.4761740000000  0.4625940000000 1.0
C      1  0.5221540000000  0.5048460000000  0.4266260000000 1.0
C      1  0.5170820000000  0.4726350000000  0.4891710000000 1.0
C      1  0.4563720000000  0.5880490000000  0.4688120000000 1.0
C      1  0.5974600000000  0.4898580000000  0.4500660000000 1.0
C      1  0.5283670000000  0.4371870000000  0.5200740000000 1.0
C      1  0.5421140000000  0.5069820000000  0.4030110000000 1.0
C      1  0.4475340000000  0.5885110000000  0.5336560000000 1.0
C      1  0.5091690000000  0.4532320000000  0.5644610000000 1.0
C      1  0.4963590000000  0.4856780000000  0.3837640000000 1.0
C      1  0.4390150000000  0.4508980000000  0.5855390000000 1.0
C      1  0.4118890000000  0.5396920000000  0.5511360000000 1.0
C      1  0.5546110000000  0.4800780000000  0.4587260000000 1.0
C      1  0.4503870000000  0.5401650000000  0.5937220000000 1.0
C      1  0.6209420000000  0.5172120000000  0.5258570000000 1.0
C      1  0.5409920000000  0.4856670000000  0.5244170000000 1.0
C      1  0.5588940000000  0.5300140000000  0.5282730000000 1.0
C      1  0.4796630000000  0.4013450000000  0.5432290000000 1.0
C      1  0.4934170000000  0.5413480000000  0.5321100000000 1.0
C      1  0.5679970000000  0.4414180000000  0.4264410000000 1.0
C      1  0.4102270000000  0.5409460000000  0.5006650000000 1.0
C      1  0.4286250000000  0.4075890000000  0.5386100000000 1.0
C      1  0.4523420000000  0.5652590000000  0.5144340000000 1.0
C      1  0.4098050000000  0.4577380000000  0.5350300000000 1.0
C      1  0.4688060000000  0.4793930000000  0.3922880000000 1.0
C      1  0.4804140000000  0.6258040000000  0.5328300000000 1.0
C      1  0.5839700000000  0.5227100000000  0.5586720000000 1.0
C      1  0.4943220000000  0.5153560000000  0.4872550000000 1.0
C      1  0.4427760000000  0.5193010000000  0.5003440000000 1.0
C      1  0.4367550000000  0.4309090000000  0.4425620000000 1.0
C      1  0.5353610000000  0.5622250000000  0.4681850000000 1.0
C      1  0.5164060000000  0.4677750000000  0.3997830000000 1.0
C      1  0.5369460000000  0.5331220000000  0.5506130000000 1.0
C      1  0.5186420000000  0.5037030000000  0.5585370000000 1.0
C      1  0.5208910000000  0.3895030000000  0.4655620000000 1.0
C      1  0.5163120000000  0.6000400000000  0.4570990000000 1.0
C      1  0.5727630000000  0.5095300000000  0.5828640000000 1.0
C      1  0.4055820000000  0.4678560000000  0.5614750000000 1.0
C      1  0.4197920000000  0.4698910000000  0.4553210000000 1.0
C      1  0.5132810000000  0.4952970000000  0.5303710000000 1.0
C      1  0.4871140000000  0.4341160000000  0.4161800000000 1.0
C      1  0.4036380000000  0.4288940000000  0.4992270000000 1.0
C      1  0.4570920000000  0.5811470000000  0.5617350000000 1.0
C      1  0.4061240000000  0.4270830000000  0.5301030000000 1.0
C      1  0.4437890000000  0.4795410000000  0.4717870000000 1.0
C      1  0.4870620000000  0.4724660000000  0.6050930000000 1.0
C      1  0.4939440000000  0.5480210000000  0.5916860000000 1.0
C      1  0.5531080000000  0.5278290000000  0.5953050000000 1.0
C      1  0.4828630000000  0.5026210000000  0.5979480000000 1.0
C      1  0.5559970000000  0.5437280000000  0.4770450000000 1.0
C      1  0.3934010000000  0.5166980000000  0.5427810000000 1.0
C      1  0.3998130000000  0.5154720000000  0.4929500000000 1.0
C      1  0.4406290000000  0.3960220000000  0.5125160000000 1.0
C      1  0.5194320000000  0.4390660000000  0.6152760000000 1.0
C      1  0.5327540000000  0.4025470000000  0.5356800000000 1.0
C      1  0.5138630000000  0.4027040000000  0.4892050000000 1.0
C      1  0.5773820000000  0.5548620000000  0.5597550000000 1.0
C      1  0.5810160000000  0.4924390000000  0.4255070000000 1.0
C      1  0.5638180000000  0.5175500000000  0.4578520000000 1.0
C      1  0.5248810000000  0.6050540000000  0.5353950000000 1.0
C      1  0.5698190000000  0.5456990000000  0.4245170000000 1.0
C      1  0.5271840000000  0.5254140000000  0.3845350000000 1.0
C      1  0.4852010000000  0.4105150000000  0.4935910000000 1.0
C      1  0.5131930000000  0.4747120000000  0.4301450000000 1.0
C      1  0.5752650000000  0.4207580000000  0.5165040000000 1.0
C      1  0.5372870000000  0.4935770000000  0.4815460000000 1.0
C      1  0.5740020000000  0.5752190000000  0.5092960000000 1.0
C      1  0.4545980000000  0.5047430000000  0.4018360000000 1.0
C      1  0.5216390000000  0.4486310000000  0.4735560000000 1.0
C      1  0.4153020000000  0.5605750000000  0.4800310000000 1.0
C      1  0.5295710000000  0.5132120000000  0.6050890000000 1.0
C      1  0.4897650000000  0.4762350000000  0.5317810000000 1.0
C      1  0.5334820000000  0.4579480000000  0.4475450000000 1.0
C      1  0.5332980000000  0.4836230000000  0.6022650000000 1.0
C      1  0.4482740000000  0.5729390000000  0.4357640000000 1.0
C      1  0.4991260000000  0.5154290000000  0.3890120000000 1.0
C      1  0.5339490000000  0.5742880000000  0.5749550000000 1.0
C      1  0.5210340000000  0.5174160000000  0.4726980000000 1.0
C      1  0.3931170000000  0.4567590000000  0.4929320000000 1.0
C      1  0.6130860000000  0.5426980000000  0.5159990000000 1.0
C      1  0.3860710000000  0.5326270000000  0.4511490000000 1.0
C      1  0.5708080000000  0.5780740000000  0.5406900000000 1.0
C      1  0.4045740000000  0.5545140000000  0.4536990000000 1.0
C      1  0.5280460000000  0.6049090000000  0.5053220000000 1.0
C      1  0.4412260000000  0.4496740000000  0.4220740000000 1.0
C      1  0.5771660000000  0.4627370000000  0.5613800000000 1.0
C      1  0.5556260000000  0.5977220000000  0.4934750000000 1.0
C      1  0.5444190000000  0.5900360000000  0.4662570000000 1.0
C      1  0.4223000000000  0.5391420000000  0.4115100000000 1.0
C      1  0.4457770000000  0.4964640000000  0.5695290000000 1.0
C      1  0.4339190000000  0.4209510000000  0.4952780000000 1.0
C      1  0.5133210000000  0.4671990000000  0.6175710000000 1.0
C      1  0.5281740000000  0.5263000000000  0.4452860000000 1.0
C      1  0.4789130000000  0.5335900000000  0.5589970000000 1.0
C      1  0.5991240000000  0.5461740000000  0.4690600000000 1.0
C      1  0.4742210000000  0.4810320000000  0.5073740000000 1.0
END
