TITL C-951337-3020-542 -9.053774961713e-07 125000 -173.825162922136 0 0 30 (C1) n - 1
REM
REM in /home/bkarasulu/work/CARBON/AIRSS/Generating-Clusters/EDIP-Nigel-Params/with-SteepDescent/Only-C1/SD-CG/HFTN-CG
REM
REM
REM
REM
REM
REM ./C.cell (11c1c37f851c82e70ff6c80c92926a4b)
REM
REM compiler GCC version 9.2.1 20190827 (Red Hat 9.2.1-1)
REM options -cpp -mtune=generic -march=x86-64 -g -O0 -fpre-include=/usr/include/finclude/math-vector-fortran.h
REM seed -52869910 -2019721595 -2021048800 311522705 814428975 -834273209 1593257743 -1895612200 -777703583 53483524 1248245071 -614114621 -71414239 -595283235 -329497899 -2127722742 779404310 1601241062 1368864167 623734104 1167970537 359083155 119960179 -822182486 -860584075 -1334516754 1778306415 -681281763 1609385384 -1910385132 -446710257 199771431 1175654738
REM
CELL 1.54180   50.00000   50.00000   50.00000   90.00000   90.00000   90.00000
LATT -1
SFAC C  
C      1  0.4594860000000  0.5415730000000  0.5016120000000 1.0
C      1  0.4973350000000  0.4622190000000  0.4445760000000 1.0
C      1  0.5559230000000  0.5101860000000  0.4827620000000 1.0
C      1  0.4969950000000  0.5369410000000  0.5315460000000 1.0
C      1  0.4717760000000  0.5249330000000  0.5202820000000 1.0
C      1  0.5183140000000  0.4960240000000  0.5699870000000 1.0
C      1  0.5198500000000  0.5367470000000  0.5128160000000 1.0
C      1  0.4863530000000  0.4512620000000  0.5315100000000 1.0
C      1  0.5291310000000  0.4851290000000  0.5470860000000 1.0
C      1  0.5277100000000  0.4633410000000  0.5032270000000 1.0
C      1  0.5350680000000  0.4608370000000  0.4766560000000 1.0
C      1  0.5162710000000  0.5389920000000  0.4836870000000 1.0
C      1  0.5526300000000  0.5070930000000  0.5104420000000 1.0
C      1  0.4745240000000  0.4966590000000  0.5119780000000 1.0
C      1  0.4529860000000  0.4838370000000  0.4965620000000 1.0
C      1  0.4740030000000  0.4744100000000  0.4531410000000 1.0
C      1  0.4546110000000  0.5409140000000  0.4753690000000 1.0
C      1  0.5222390000000  0.4583150000000  0.4533620000000 1.0
C      1  0.5458730000000  0.5314630000000  0.5232280000000 1.0
C      1  0.4616550000000  0.4640080000000  0.4768390000000 1.0
C      1  0.4931760000000  0.5077220000000  0.5723980000000 1.0
C      1  0.5058640000000  0.4474570000000  0.5124180000000 1.0
C      1  0.4396000000000  0.4956110000000  0.4710350000000 1.0
C      1  0.5176640000000  0.5407660000000  0.4551420000000 1.0
C      1  0.4893890000000  0.4786190000000  0.5288040000000 1.0
C      1  0.5032270000000  0.5298560000000  0.5590640000000 1.0
C      1  0.5366910000000  0.4848110000000  0.5202360000000 1.0
C      1  0.4504200000000  0.5199910000000  0.4577050000000 1.0
C      1  0.5397730000000  0.5277190000000  0.4675860000000 1.0
C      1  0.4714610000000  0.5025650000000  0.4489440000000 1.0
END
