TITL C-951347-9520-13 -2.08585288788112e-07 125000 -790.501110029675 0 0 128 (C1) n - 1
REM
REM in /home/bkarasulu/work/CARBON/AIRSS/Generating-Clusters/EDIP-Nigel-Params/with-SteepDescent/Only-C1/SD-CG/HFTN-CG
REM
REM
REM
REM
REM
REM ./C.cell (11c1c37f851c82e70ff6c80c92926a4b)
REM
REM compiler GCC version 9.2.1 20190827 (Red Hat 9.2.1-1)
REM options -cpp -mtune=generic -march=x86-64 -g -O0 -fpre-include=/usr/include/finclude/math-vector-fortran.h
REM seed -1910393052 -70253632 -809364833 855618472 -1537868900 -1362328228 -960358695 1673948352 549845238 1017566610 1311030365 497056879 1238029783 -1170755462 -160118114 691013403 168269846 -68535798 -2112690444 -1483645038 34294024 -545988190 -1598900926 -1220576513 -1151682983 1320143440 1521272823 -884818873 1320441311 -607638236 -1783247970 1367840719 1692627292
REM
CELL 1.54180   50.00000   50.00000   50.00000   90.00000   90.00000   90.00000
LATT -1
SFAC C  
C      1  0.5247450000000  0.4148680000000  0.4456000000000 1.0
C      1  0.4386440000000  0.5625480000000  0.4614960000000 1.0
C      1  0.4487710000000  0.5862180000000  0.5043470000000 1.0
C      1  0.5774630000000  0.4959750000000  0.5591170000000 1.0
C      1  0.4241580000000  0.5102920000000  0.5437000000000 1.0
C      1  0.5214250000000  0.4216140000000  0.5504110000000 1.0
C      1  0.5974540000000  0.4661520000000  0.4618800000000 1.0
C      1  0.4300930000000  0.5605160000000  0.5449610000000 1.0
C      1  0.4362010000000  0.4029970000000  0.5112560000000 1.0
C      1  0.4893390000000  0.5001800000000  0.3812110000000 1.0
C      1  0.4640830000000  0.5425640000000  0.5783820000000 1.0
C      1  0.4817220000000  0.4057710000000  0.4699260000000 1.0
C      1  0.5412120000000  0.4914870000000  0.4501280000000 1.0
C      1  0.5341800000000  0.4796220000000  0.5640670000000 1.0
C      1  0.4480170000000  0.4215870000000  0.5542800000000 1.0
C      1  0.5393000000000  0.5066700000000  0.5252340000000 1.0
C      1  0.4109940000000  0.5584920000000  0.4632620000000 1.0
C      1  0.5303650000000  0.5081510000000  0.5542140000000 1.0
C      1  0.5127300000000  0.5791150000000  0.5631760000000 1.0
C      1  0.5598760000000  0.4838230000000  0.5210240000000 1.0
C      1  0.5494520000000  0.5365720000000  0.5235070000000 1.0
C      1  0.4939830000000  0.4278590000000  0.5460460000000 1.0
C      1  0.4862490000000  0.5844590000000  0.4681920000000 1.0
C      1  0.5177810000000  0.4633450000000  0.4174410000000 1.0
C      1  0.4873410000000  0.4385090000000  0.4380070000000 1.0
C      1  0.5202550000000  0.4750580000000  0.5893750000000 1.0
C      1  0.4866750000000  0.5544090000000  0.4267400000000 1.0
C      1  0.5078720000000  0.4417920000000  0.4855290000000 1.0
C      1  0.4928350000000  0.4737780000000  0.5498000000000 1.0
C      1  0.4127210000000  0.4425180000000  0.5201310000000 1.0
C      1  0.5426240000000  0.4365300000000  0.4500010000000 1.0
C      1  0.5268920000000  0.5183000000000  0.4555210000000 1.0
C      1  0.5222570000000  0.4526670000000  0.5093930000000 1.0
C      1  0.5456920000000  0.4034520000000  0.4841230000000 1.0
C      1  0.4850240000000  0.4957500000000  0.4334770000000 1.0
C      1  0.4121220000000  0.4842300000000  0.4726710000000 1.0
C      1  0.4210240000000  0.4642140000000  0.5350610000000 1.0
C      1  0.5339020000000  0.5664980000000  0.4681750000000 1.0
C      1  0.5669930000000  0.5465120000000  0.4995120000000 1.0
C      1  0.4576510000000  0.5538890000000  0.5520020000000 1.0
C      1  0.4548850000000  0.5843750000000  0.4741650000000 1.0
C      1  0.5417930000000  0.5825630000000  0.5111970000000 1.0
C      1  0.5917480000000  0.5131740000000  0.5159050000000 1.0
C      1  0.4562090000000  0.4182460000000  0.4681160000000 1.0
C      1  0.3997110000000  0.5327380000000  0.4680520000000 1.0
C      1  0.4805710000000  0.5015420000000  0.4813150000000 1.0
C      1  0.4999150000000  0.4715550000000  0.5208040000000 1.0
C      1  0.4965610000000  0.4114830000000  0.4445730000000 1.0
C      1  0.5255310000000  0.4048880000000  0.5037290000000 1.0
C      1  0.4811520000000  0.5407120000000  0.4531330000000 1.0
C      1  0.4400400000000  0.5144100000000  0.4459720000000 1.0
C      1  0.5207700000000  0.5122970000000  0.5964760000000 1.0
C      1  0.5501180000000  0.5450300000000  0.5668470000000 1.0
C      1  0.5853550000000  0.4756300000000  0.4400130000000 1.0
C      1  0.4925580000000  0.6068990000000  0.5113910000000 1.0
C      1  0.5952820000000  0.4860790000000  0.5061510000000 1.0
C      1  0.4767620000000  0.5641880000000  0.5311770000000 1.0
C      1  0.4812810000000  0.4993940000000  0.5580050000000 1.0
C      1  0.4461540000000  0.4672710000000  0.4413610000000 1.0
C      1  0.4280360000000  0.5667860000000  0.5156360000000 1.0
C      1  0.5339910000000  0.4266610000000  0.5235400000000 1.0
C      1  0.5448460000000  0.5246180000000  0.5863600000000 1.0
C      1  0.4138930000000  0.5367850000000  0.5453010000000 1.0
C      1  0.4522290000000  0.5161460000000  0.5866380000000 1.0
C      1  0.4887630000000  0.5558910000000  0.4794670000000 1.0
C      1  0.4364160000000  0.4359950000000  0.4773520000000 1.0
C      1  0.5305540000000  0.5900600000000  0.4855420000000 1.0
C      1  0.4524170000000  0.5398850000000  0.4508600000000 1.0
C      1  0.5152890000000  0.4913840000000  0.3770920000000 1.0
C      1  0.4969140000000  0.5226850000000  0.5159910000000 1.0
C      1  0.4135510000000  0.4899790000000  0.5261750000000 1.0
C      1  0.4749600000000  0.4754840000000  0.4657340000000 1.0
C      1  0.4553130000000  0.4453080000000  0.5677260000000 1.0
C      1  0.5575410000000  0.4270810000000  0.4737680000000 1.0
C      1  0.4421770000000  0.4975950000000  0.5632060000000 1.0
C      1  0.5936060000000  0.5349180000000  0.4988220000000 1.0
C      1  0.5409790000000  0.5715560000000  0.5748090000000 1.0
C      1  0.5103460000000  0.5440500000000  0.4982590000000 1.0
C      1  0.4783680000000  0.5021870000000  0.5882400000000 1.0
C      1  0.5713670000000  0.4536990000000  0.5427120000000 1.0
C      1  0.5075800000000  0.4482420000000  0.5874210000000 1.0
C      1  0.4558430000000  0.4130230000000  0.5286550000000 1.0
C      1  0.4021090000000  0.5254190000000  0.4963160000000 1.0
C      1  0.5260780000000  0.5684510000000  0.4410780000000 1.0
C      1  0.5055530000000  0.5590460000000  0.5420960000000 1.0
C      1  0.5032530000000  0.6014640000000  0.4862120000000 1.0
C      1  0.5716130000000  0.5409200000000  0.4516850000000 1.0
C      1  0.4802640000000  0.4282510000000  0.5189580000000 1.0
C      1  0.5744380000000  0.5433230000000  0.5519760000000 1.0
C      1  0.4954180000000  0.4473310000000  0.4121820000000 1.0
C      1  0.4716570000000  0.5932190000000  0.5235960000000 1.0
C      1  0.4984140000000  0.5083890000000  0.4078120000000 1.0
C      1  0.5062450000000  0.5373980000000  0.4115590000000 1.0
C      1  0.5126290000000  0.4986240000000  0.5114030000000 1.0
C      1  0.5464080000000  0.4672820000000  0.5001730000000 1.0
C      1  0.4667210000000  0.5512000000000  0.5008970000000 1.0
C      1  0.4235630000000  0.4257170000000  0.5010020000000 1.0
C      1  0.5309330000000  0.4802530000000  0.3981830000000 1.0
C      1  0.4037470000000  0.4962130000000  0.4992280000000 1.0
C      1  0.4329110000000  0.4631780000000  0.4664150000000 1.0
C      1  0.5169050000000  0.5730920000000  0.5908900000000 1.0
C      1  0.4377480000000  0.4674390000000  0.5590790000000 1.0
C      1  0.5563520000000  0.4897650000000  0.4050700000000 1.0
C      1  0.5014930000000  0.5208600000000  0.5484610000000 1.0
C      1  0.5641690000000  0.4334300000000  0.5230730000000 1.0
C      1  0.5629280000000  0.4725000000000  0.5630520000000 1.0
C      1  0.5670500000000  0.4465040000000  0.4950020000000 1.0
C      1  0.5687290000000  0.5750620000000  0.5060280000000 1.0
C      1  0.4990810000000  0.4564900000000  0.4602850000000 1.0
C      1  0.5652540000000  0.4943720000000  0.4320970000000 1.0
C      1  0.4546790000000  0.4933040000000  0.4320040000000 1.0
C      1  0.5264200000000  0.5573460000000  0.5194750000000 1.0
C      1  0.5284480000000  0.5400530000000  0.4310860000000 1.0
C      1  0.4274760000000  0.5363130000000  0.5085730000000 1.0
C      1  0.4125710000000  0.5086590000000  0.4546300000000 1.0
C      1  0.4952720000000  0.5250030000000  0.5922340000000 1.0
C      1  0.5922700000000  0.4624630000000  0.4889020000000 1.0
C      1  0.4615230000000  0.5193100000000  0.5001790000000 1.0
C      1  0.5270360000000  0.4638050000000  0.4456180000000 1.0
C      1  0.5759070000000  0.5207320000000  0.4346190000000 1.0
C      1  0.4755260000000  0.4571970000000  0.5116170000000 1.0
C      1  0.5842280000000  0.5177480000000  0.5434380000000 1.0
C      1  0.4978720000000  0.4155700000000  0.4943020000000 1.0
C      1  0.5519380000000  0.5428910000000  0.4722150000000 1.0
C      1  0.4942880000000  0.5141470000000  0.4566600000000 1.0
C      1  0.5272550000000  0.4301600000000  0.5768370000000 1.0
C      1  0.4981270000000  0.5794180000000  0.4387800000000 1.0
C      1  0.4860070000000  0.4492130000000  0.5649520000000 1.0
END
