TITL C-951342-2639-396 2.8735895137978e-07 125000 -284.839887277121 0 0 48 (C1) n - 1
REM
REM in /home/bkarasulu/work/CARBON/AIRSS/Generating-Clusters/EDIP-Nigel-Params/with-SteepDescent/Only-C1/SD-CG/HFTN-CG
REM
REM
REM
REM
REM
REM ./C.cell (11c1c37f851c82e70ff6c80c92926a4b)
REM
REM compiler GCC version 9.2.1 20190827 (Red Hat 9.2.1-1)
REM options -cpp -mtune=generic -march=x86-64 -g -O0 -fpre-include=/usr/include/finclude/math-vector-fortran.h
REM seed 1316086576 -1050588998 1596382007 -1220419696 -2130751743 -2103961404 -1085984420 -530379444 -1266623185 -1142726256 552288206 706750262 -1767317888 478977410 -1356594068 781016173 890774009 1867112809 246327534 -1444703759 1711555135 -933457952 -891669658 1038430883 1815111588 1655084474 294155533 2004920148 151338241 -936822054 580426584 -892979938 -1639305926
REM
CELL 1.54180   50.00000   50.00000   50.00000   90.00000   90.00000   90.00000
LATT -1
SFAC C  
C      1  0.4505970000000  0.5504770000000  0.4510500000000 1.0
C      1  0.5041550000000  0.5382660000000  0.4890550000000 1.0
C      1  0.4683540000000  0.5310920000000  0.4429620000000 1.0
C      1  0.4560880000000  0.4865310000000  0.4556040000000 1.0
C      1  0.4636770000000  0.5502060000000  0.5298750000000 1.0
C      1  0.4879480000000  0.5495560000000  0.5131270000000 1.0
C      1  0.4579490000000  0.4591200000000  0.5204380000000 1.0
C      1  0.4785460000000  0.5064130000000  0.4511170000000 1.0
C      1  0.4787520000000  0.5244500000000  0.5700900000000 1.0
C      1  0.5015980000000  0.5548050000000  0.5382040000000 1.0
C      1  0.5120260000000  0.4437720000000  0.5229320000000 1.0
C      1  0.4973750000000  0.5081550000000  0.4751890000000 1.0
C      1  0.4634870000000  0.5419380000000  0.5563770000000 1.0
C      1  0.5269260000000  0.4697280000000  0.5139050000000 1.0
C      1  0.4393210000000  0.5432280000000  0.4869930000000 1.0
C      1  0.5029860000000  0.4380630000000  0.4687660000000 1.0
C      1  0.5493520000000  0.5079660000000  0.4562410000000 1.0
C      1  0.5258640000000  0.5400160000000  0.5433540000000 1.0
C      1  0.4968750000000  0.4547070000000  0.5478590000000 1.0
C      1  0.5592430000000  0.5020700000000  0.5075360000000 1.0
C      1  0.5254050000000  0.4935920000000  0.4696240000000 1.0
C      1  0.5428740000000  0.4886160000000  0.4347640000000 1.0
C      1  0.5075750000000  0.4933220000000  0.5190230000000 1.0
C      1  0.4825630000000  0.4453730000000  0.4503540000000 1.0
C      1  0.4547710000000  0.5082850000000  0.5189130000000 1.0
C      1  0.4608780000000  0.4850030000000  0.5352260000000 1.0
C      1  0.4466850000000  0.5159900000000  0.4926290000000 1.0
C      1  0.5236120000000  0.5127380000000  0.5557720000000 1.0
C      1  0.5651500000000  0.4720640000000  0.4836890000000 1.0
C      1  0.5702120000000  0.4994260000000  0.4761080000000 1.0
C      1  0.4846180000000  0.4934330000000  0.4988490000000 1.0
C      1  0.5309840000000  0.5162640000000  0.5060880000000 1.0
C      1  0.4741280000000  0.4642290000000  0.4949740000000 1.0
C      1  0.5361130000000  0.4689700000000  0.4841990000000 1.0
C      1  0.4950970000000  0.4433440000000  0.4968360000000 1.0
C      1  0.4903930000000  0.4841650000000  0.5441770000000 1.0
C      1  0.5288770000000  0.4497410000000  0.4629510000000 1.0
C      1  0.4747290000000  0.4408170000000  0.5359670000000 1.0
C      1  0.5422890000000  0.5409770000000  0.5190450000000 1.0
C      1  0.4973520000000  0.5039830000000  0.5660290000000 1.0
C      1  0.5514750000000  0.4801490000000  0.5282850000000 1.0
C      1  0.4378060000000  0.4974700000000  0.4739420000000 1.0
C      1  0.5386590000000  0.5627910000000  0.5015480000000 1.0
C      1  0.4646970000000  0.4604520000000  0.4663620000000 1.0
C      1  0.5434730000000  0.4932660000000  0.5513880000000 1.0
C      1  0.5235830000000  0.5575520000000  0.4793620000000 1.0
C      1  0.4529470000000  0.5642420000000  0.4749030000000 1.0
C      1  0.5319380000000  0.4631900000000  0.4383230000000 1.0
END
