TITL C-950528-5794-254 -5.30515023696143e-06 125000 -939.304670235976 0 0 152 (C1) n - 1
REM
REM in /home/bkarasulu/work/CARBON/AIRSS/Generating-Clusters/EDIP-Nigel-Params/with-SteepDescent/Only-C1/SD-CG/HFTN-CG
REM
REM
REM
REM
REM
REM ./C.cell (11c1c37f851c82e70ff6c80c92926a4b)
REM
REM compiler GCC version 9.2.1 20190827 (Red Hat 9.2.1-1)
REM options -cpp -mtune=generic -march=x86-64 -g -O0 -fpre-include=/usr/include/finclude/math-vector-fortran.h
REM seed 3358444 1548756836 1120040021 1446990223 -1332266707 502746845 2928387 1812340682 -27126686 119339640 1184646220 1406172987 1240729503 306280157 1734943629 1640763524 1055783826 -780832114 1658420330 1738930255 -974073121 1877741833 -2015045726 -382884088 2073563613 622709139 1180929192 -1761272220 553700978 -574959272 -357566351 179799289 564209853
REM
CELL 1.54180   50.00000   50.00000   50.00000   90.00000   90.00000   90.00000
LATT -1
SFAC C  
C      1  0.5342180000000  0.5135650000000  0.4166870000000 1.0
C      1  0.5152500000000  0.4388530000000  0.4106330000000 1.0
C      1  0.5540100000000  0.4199300000000  0.5462250000000 1.0
C      1  0.5428120000000  0.4691480000000  0.4767230000000 1.0
C      1  0.5323890000000  0.5449960000000  0.4925860000000 1.0
C      1  0.4195420000000  0.5560060000000  0.5176020000000 1.0
C      1  0.4925040000000  0.5306860000000  0.5627800000000 1.0
C      1  0.4805490000000  0.5554730000000  0.5771800000000 1.0
C      1  0.4190920000000  0.5176040000000  0.5658370000000 1.0
C      1  0.4412130000000  0.4237270000000  0.4654540000000 1.0
C      1  0.4900530000000  0.4789870000000  0.3993340000000 1.0
C      1  0.5339370000000  0.4870440000000  0.5685400000000 1.0
C      1  0.4819390000000  0.5153730000000  0.4711450000000 1.0
C      1  0.5200360000000  0.5439220000000  0.5946480000000 1.0
C      1  0.4877760000000  0.5640010000000  0.4746820000000 1.0
C      1  0.5686140000000  0.5260460000000  0.5583490000000 1.0
C      1  0.4978700000000  0.5695110000000  0.4117340000000 1.0
C      1  0.4554330000000  0.3894080000000  0.5131330000000 1.0
C      1  0.5155660000000  0.4955550000000  0.5034700000000 1.0
C      1  0.4629360000000  0.6038500000000  0.4690730000000 1.0
C      1  0.4892730000000  0.5420650000000  0.5149210000000 1.0
C      1  0.4731120000000  0.4966710000000  0.4191300000000 1.0
C      1  0.4864740000000  0.5091510000000  0.5836260000000 1.0
C      1  0.4574360000000  0.5358410000000  0.4062030000000 1.0
C      1  0.5698830000000  0.5472980000000  0.5259670000000 1.0
C      1  0.4343130000000  0.5625260000000  0.5422780000000 1.0
C      1  0.5210050000000  0.5132140000000  0.5260300000000 1.0
C      1  0.5423890000000  0.4513420000000  0.5801460000000 1.0
C      1  0.5729760000000  0.5172830000000  0.4386460000000 1.0
C      1  0.5272490000000  0.5406530000000  0.5651700000000 1.0
C      1  0.4713080000000  0.4342310000000  0.5155930000000 1.0
C      1  0.4800680000000  0.5783230000000  0.5586910000000 1.0
C      1  0.4701940000000  0.5615230000000  0.4116860000000 1.0
C      1  0.6049180000000  0.4767100000000  0.4829610000000 1.0
C      1  0.4829270000000  0.4280030000000  0.5446130000000 1.0
C      1  0.3971090000000  0.4803710000000  0.5072510000000 1.0
C      1  0.5565030000000  0.5908740000000  0.4751490000000 1.0
C      1  0.5526300000000  0.5147730000000  0.4605570000000 1.0
C      1  0.4697060000000  0.4483240000000  0.5894720000000 1.0
C      1  0.4475680000000  0.4164370000000  0.5129700000000 1.0
C      1  0.5978590000000  0.5246370000000  0.5499540000000 1.0
C      1  0.5009170000000  0.3948020000000  0.4960910000000 1.0
C      1  0.4143310000000  0.4623590000000  0.4638160000000 1.0
C      1  0.4579820000000  0.5714450000000  0.4357340000000 1.0
C      1  0.6058030000000  0.4970890000000  0.5432880000000 1.0
C      1  0.4573900000000  0.5811600000000  0.5405570000000 1.0
C      1  0.5276440000000  0.5928930000000  0.4763290000000 1.0
C      1  0.5208550000000  0.5606380000000  0.4416640000000 1.0
C      1  0.4681530000000  0.5939550000000  0.5164860000000 1.0
C      1  0.4630710000000  0.4634390000000  0.5210320000000 1.0
C      1  0.5411860000000  0.4847990000000  0.4090450000000 1.0
C      1  0.5858500000000  0.4528970000000  0.5251490000000 1.0
C      1  0.4866170000000  0.4670770000000  0.4739990000000 1.0
C      1  0.6139200000000  0.5319840000000  0.5058230000000 1.0
C      1  0.5057560000000  0.5837590000000  0.5450540000000 1.0
C      1  0.5508950000000  0.4245250000000  0.4986500000000 1.0
C      1  0.4491340000000  0.5268060000000  0.5027380000000 1.0
C      1  0.4018510000000  0.5298960000000  0.5168300000000 1.0
C      1  0.6010910000000  0.5439540000000  0.5277530000000 1.0
C      1  0.5111260000000  0.5234040000000  0.4021460000000 1.0
C      1  0.4310020000000  0.5455380000000  0.5664310000000 1.0
C      1  0.4301390000000  0.5701600000000  0.4927140000000 1.0
C      1  0.4692220000000  0.4536730000000  0.4319000000000 1.0
C      1  0.4537900000000  0.5015540000000  0.4623040000000 1.0
C      1  0.5181970000000  0.5419730000000  0.5185170000000 1.0
C      1  0.4356730000000  0.4476080000000  0.4489770000000 1.0
C      1  0.5157830000000  0.4265210000000  0.4584020000000 1.0
C      1  0.4338410000000  0.4355610000000  0.5637710000000 1.0
C      1  0.4556340000000  0.5134780000000  0.5284870000000 1.0
C      1  0.6053510000000  0.5287480000000  0.4793510000000 1.0
C      1  0.5803600000000  0.5440180000000  0.4779660000000 1.0
C      1  0.5314220000000  0.4718940000000  0.5049180000000 1.0
C      1  0.5576880000000  0.5352790000000  0.4205550000000 1.0
C      1  0.5267670000000  0.5612040000000  0.5422710000000 1.0
C      1  0.4413610000000  0.5516600000000  0.4463230000000 1.0
C      1  0.6013160000000  0.5017750000000  0.4690830000000 1.0
C      1  0.5026720000000  0.4514270000000  0.5439100000000 1.0
C      1  0.5571880000000  0.4418920000000  0.4753540000000 1.0
C      1  0.4764900000000  0.4247940000000  0.4342340000000 1.0
C      1  0.5161770000000  0.4671160000000  0.4071020000000 1.0
C      1  0.3918500000000  0.4957900000000  0.4825090000000 1.0
C      1  0.5910900000000  0.4830680000000  0.5647690000000 1.0
C      1  0.4931200000000  0.4930380000000  0.4870040000000 1.0
C      1  0.4367500000000  0.5309700000000  0.4260920000000 1.0
C      1  0.4138700000000  0.4549240000000  0.5580500000000 1.0
C      1  0.4677590000000  0.4613380000000  0.4036150000000 1.0
C      1  0.5355580000000  0.4998050000000  0.5947730000000 1.0
C      1  0.4615740000000  0.4322530000000  0.5673690000000 1.0
C      1  0.4747210000000  0.5397560000000  0.4891250000000 1.0
C      1  0.5957480000000  0.4804230000000  0.5126940000000 1.0
C      1  0.5516110000000  0.5927410000000  0.5131990000000 1.0
C      1  0.4189090000000  0.4588900000000  0.4938270000000 1.0
C      1  0.4593880000000  0.5176910000000  0.5945230000000 1.0
C      1  0.4290100000000  0.4267670000000  0.4924670000000 1.0
C      1  0.5845880000000  0.4558050000000  0.5545810000000 1.0
C      1  0.4983030000000  0.5614380000000  0.5993680000000 1.0
C      1  0.4823060000000  0.3846220000000  0.5145640000000 1.0
C      1  0.4447190000000  0.4745460000000  0.4964890000000 1.0
C      1  0.4867140000000  0.3981880000000  0.4724120000000 1.0
C      1  0.4943670000000  0.4686930000000  0.4458450000000 1.0
C      1  0.4779570000000  0.4810210000000  0.5710530000000 1.0
C      1  0.4395110000000  0.5004480000000  0.5807780000000 1.0
C      1  0.5704640000000  0.4983660000000  0.5050190000000 1.0
C      1  0.5491370000000  0.4530270000000  0.4330160000000 1.0
C      1  0.3917200000000  0.5243590000000  0.4895060000000 1.0
C      1  0.5242010000000  0.6016390000000  0.5042000000000 1.0
C      1  0.4516520000000  0.5916100000000  0.4923660000000 1.0
C      1  0.4894040000000  0.5229510000000  0.4212040000000 1.0
C      1  0.4797610000000  0.5258860000000  0.5360880000000 1.0
C      1  0.4774560000000  0.5835970000000  0.4539150000000 1.0
C      1  0.5634250000000  0.4331410000000  0.5224240000000 1.0
C      1  0.5177210000000  0.5645820000000  0.4725770000000 1.0
C      1  0.5894320000000  0.4568990000000  0.4665850000000 1.0
C      1  0.4950320000000  0.4382320000000  0.4887110000000 1.0
C      1  0.5270510000000  0.5075920000000  0.4455720000000 1.0
C      1  0.5149280000000  0.4477190000000  0.5724640000000 1.0
C      1  0.4965710000000  0.4560920000000  0.5924950000000 1.0
C      1  0.5009490000000  0.5229600000000  0.4489610000000 1.0
C      1  0.5288830000000  0.4069920000000  0.5490320000000 1.0
C      1  0.5612540000000  0.5347300000000  0.4991420000000 1.0
C      1  0.5159040000000  0.4467150000000  0.5138700000000 1.0
C      1  0.5530100000000  0.4823950000000  0.5230230000000 1.0
C      1  0.4280970000000  0.4689810000000  0.5361610000000 1.0
C      1  0.5124430000000  0.5156570000000  0.6019090000000 1.0
C      1  0.5434550000000  0.4311840000000  0.4522510000000 1.0
C      1  0.5694020000000  0.5012600000000  0.5769040000000 1.0
C      1  0.5427410000000  0.5019060000000  0.5426170000000 1.0
C      1  0.5672810000000  0.5713570000000  0.4562990000000 1.0
C      1  0.5750680000000  0.4908710000000  0.4262740000000 1.0
C      1  0.5022440000000  0.5870460000000  0.4346600000000 1.0
C      1  0.5638360000000  0.4380100000000  0.5669310000000 1.0
C      1  0.5015620000000  0.4057380000000  0.5481910000000 1.0
C      1  0.5499100000000  0.5612770000000  0.4342820000000 1.0
C      1  0.3994490000000  0.5010600000000  0.5297540000000 1.0
C      1  0.4092100000000  0.4900890000000  0.4576870000000 1.0
C      1  0.4222290000000  0.5581300000000  0.4670040000000 1.0
C      1  0.5643920000000  0.4915650000000  0.4755820000000 1.0
C      1  0.5538040000000  0.5719550000000  0.5334940000000 1.0
C      1  0.4689670000000  0.4162130000000  0.4605700000000 1.0
C      1  0.4386880000000  0.5028540000000  0.4355260000000 1.0
C      1  0.5748420000000  0.4658760000000  0.4410480000000 1.0
C      1  0.5250640000000  0.4106910000000  0.5024860000000 1.0
C      1  0.5242220000000  0.4768330000000  0.4489250000000 1.0
C      1  0.4533830000000  0.5457660000000  0.5862130000000 1.0
C      1  0.4837800000000  0.4749590000000  0.5419890000000 1.0
C      1  0.5051520000000  0.4222240000000  0.4314730000000 1.0
C      1  0.3990780000000  0.4856430000000  0.5568550000000 1.0
C      1  0.4988110000000  0.5934840000000  0.5185940000000 1.0
C      1  0.4571730000000  0.4721060000000  0.4696940000000 1.0
C      1  0.4067530000000  0.5347860000000  0.4681410000000 1.0
C      1  0.4440890000000  0.4932920000000  0.5481350000000 1.0
C      1  0.4332120000000  0.5108020000000  0.4834930000000 1.0
END
