TITL C-950528-5794-18 -3.3907209360938e-06 125000 -1027.11028647467 0 0 164 (C1) n - 1
REM
REM in /home/bkarasulu/work/CARBON/AIRSS/Generating-Clusters/EDIP-Nigel-Params/with-SteepDescent/Only-C1/SD-CG/HFTN-CG
REM
REM
REM
REM
REM
REM ./C.cell (11c1c37f851c82e70ff6c80c92926a4b)
REM
REM compiler GCC version 9.2.1 20190827 (Red Hat 9.2.1-1)
REM options -cpp -mtune=generic -march=x86-64 -g -O0 -fpre-include=/usr/include/finclude/math-vector-fortran.h
REM seed 1443190425 -1455397895 -1688770585 57091128 1201543055 1888855771 1776768083 860151472 815169527 -170136915 1355606414 843903634 -1361760489 -2115128273 -1949051630 140054536 -516144999 -1545877349 660057594 -929713885 -1928667681 -795589087 -188893830 2088063137 -1723725515 1808890017 -802571363 526471718 547291552 -2010151617 71588942 1107883914 -949646267
REM
CELL 1.54180   50.00000   50.00000   50.00000   90.00000   90.00000   90.00000
LATT -1
SFAC C  
C      1  0.4639830000000  0.5053050000000  0.5499700000000 1.0
C      1  0.5356810000000  0.5637990000000  0.5691820000000 1.0
C      1  0.6065270000000  0.5151820000000  0.4495090000000 1.0
C      1  0.5460060000000  0.5173650000000  0.4392540000000 1.0
C      1  0.5430040000000  0.4712630000000  0.4280790000000 1.0
C      1  0.5792310000000  0.5714870000000  0.4736650000000 1.0
C      1  0.5092940000000  0.4358360000000  0.4152120000000 1.0
C      1  0.4255760000000  0.5157400000000  0.5132530000000 1.0
C      1  0.4000830000000  0.4959380000000  0.4690670000000 1.0
C      1  0.4167330000000  0.4496720000000  0.4448080000000 1.0
C      1  0.5143960000000  0.5017590000000  0.5859610000000 1.0
C      1  0.5554240000000  0.4872270000000  0.4053100000000 1.0
C      1  0.5110650000000  0.4793250000000  0.5262550000000 1.0
C      1  0.5781020000000  0.4249990000000  0.4976020000000 1.0
C      1  0.4509230000000  0.4715680000000  0.4228130000000 1.0
C      1  0.5893840000000  0.4509280000000  0.4877920000000 1.0
C      1  0.5346640000000  0.4483830000000  0.4964440000000 1.0
C      1  0.6018110000000  0.5274580000000  0.4970770000000 1.0
C      1  0.5366470000000  0.5379960000000  0.4880960000000 1.0
C      1  0.4804800000000  0.5900630000000  0.4371430000000 1.0
C      1  0.4474150000000  0.4605150000000  0.4657240000000 1.0
C      1  0.5524070000000  0.5851760000000  0.4813320000000 1.0
C      1  0.4992180000000  0.4509160000000  0.5969540000000 1.0
C      1  0.4704220000000  0.4441090000000  0.5923250000000 1.0
C      1  0.4901570000000  0.5329790000000  0.4004240000000 1.0
C      1  0.5474020000000  0.4199420000000  0.4977500000000 1.0
C      1  0.4928800000000  0.4159380000000  0.4570490000000 1.0
C      1  0.5143620000000  0.4645490000000  0.4175200000000 1.0
C      1  0.4788700000000  0.4688150000000  0.4568730000000 1.0
C      1  0.5242340000000  0.4782570000000  0.6004150000000 1.0
C      1  0.5034500000000  0.5283980000000  0.4492450000000 1.0
C      1  0.4483100000000  0.5262120000000  0.5659040000000 1.0
C      1  0.6067220000000  0.5137570000000  0.5225790000000 1.0
C      1  0.4966560000000  0.6266980000000  0.4984460000000 1.0
C      1  0.4281330000000  0.4636840000000  0.5742000000000 1.0
C      1  0.5910620000000  0.5555770000000  0.4976280000000 1.0
C      1  0.4335430000000  0.5040340000000  0.4879870000000 1.0
C      1  0.5365280000000  0.4234350000000  0.4552150000000 1.0
C      1  0.4631770000000  0.5137700000000  0.4845780000000 1.0
C      1  0.4497470000000  0.5219220000000  0.4207060000000 1.0
C      1  0.5483920000000  0.4060180000000  0.5247400000000 1.0
C      1  0.4203470000000  0.5480610000000  0.4521440000000 1.0
C      1  0.5903250000000  0.4976580000000  0.4347460000000 1.0
C      1  0.4595160000000  0.4426340000000  0.4270130000000 1.0
C      1  0.6101930000000  0.4674820000000  0.5008180000000 1.0
C      1  0.4613720000000  0.5687470000000  0.4316180000000 1.0
C      1  0.4805980000000  0.4871540000000  0.4823740000000 1.0
C      1  0.5864150000000  0.4565560000000  0.4607080000000 1.0
C      1  0.4323010000000  0.4739990000000  0.4898180000000 1.0
C      1  0.5397230000000  0.5199360000000  0.5113300000000 1.0
C      1  0.5270070000000  0.4775910000000  0.5016020000000 1.0
C      1  0.3869390000000  0.5198820000000  0.4792150000000 1.0
C      1  0.3930120000000  0.5674850000000  0.4889070000000 1.0
C      1  0.5243100000000  0.4034020000000  0.4742730000000 1.0
C      1  0.4038800000000  0.4651160000000  0.4918790000000 1.0
C      1  0.4235980000000  0.4147450000000  0.4868480000000 1.0
C      1  0.4403030000000  0.5602900000000  0.5031980000000 1.0
C      1  0.4597870000000  0.5523800000000  0.4782570000000 1.0
C      1  0.4616290000000  0.4966990000000  0.4131020000000 1.0
C      1  0.5450350000000  0.5653680000000  0.5028190000000 1.0
C      1  0.5183260000000  0.5415930000000  0.4022300000000 1.0
C      1  0.5333700000000  0.5252320000000  0.3852320000000 1.0
C      1  0.4719200000000  0.5306870000000  0.5855450000000 1.0
C      1  0.5379880000000  0.4072430000000  0.5747320000000 1.0
C      1  0.4529720000000  0.5923160000000  0.5205550000000 1.0
C      1  0.5718380000000  0.5429210000000  0.5426430000000 1.0
C      1  0.4350720000000  0.4406400000000  0.5571260000000 1.0
C      1  0.4909740000000  0.5603240000000  0.4821720000000 1.0
C      1  0.4672420000000  0.6098660000000  0.4568310000000 1.0
C      1  0.5298200000000  0.4219580000000  0.4281430000000 1.0
C      1  0.5017720000000  0.5830860000000  0.4636580000000 1.0
C      1  0.4440950000000  0.5674030000000  0.4562020000000 1.0
C      1  0.5506720000000  0.4512350000000  0.5376370000000 1.0
C      1  0.5841820000000  0.4176710000000  0.5255080000000 1.0
C      1  0.5085100000000  0.4837810000000  0.3955470000000 1.0
C      1  0.5327010000000  0.5835630000000  0.4587680000000 1.0
C      1  0.4282030000000  0.5231000000000  0.4392700000000 1.0
C      1  0.4398680000000  0.6027720000000  0.4955220000000 1.0
C      1  0.4791240000000  0.4584890000000  0.5513540000000 1.0
C      1  0.4167200000000  0.4867650000000  0.5600450000000 1.0
C      1  0.4442310000000  0.5489140000000  0.5474070000000 1.0
C      1  0.5740470000000  0.4348600000000  0.5466250000000 1.0
C      1  0.5685240000000  0.5096750000000  0.4190660000000 1.0
C      1  0.4323850000000  0.4183740000000  0.5132770000000 1.0
C      1  0.4023780000000  0.5558020000000  0.5355090000000 1.0
C      1  0.4181650000000  0.5155590000000  0.5681890000000 1.0
C      1  0.5459850000000  0.4322840000000  0.5888360000000 1.0
C      1  0.4428890000000  0.4169690000000  0.4665200000000 1.0
C      1  0.4525200000000  0.4694070000000  0.5899080000000 1.0
C      1  0.4977950000000  0.5990750000000  0.5525930000000 1.0
C      1  0.5076770000000  0.5359300000000  0.4775770000000 1.0
C      1  0.5264320000000  0.5400480000000  0.4315850000000 1.0
C      1  0.3989090000000  0.4831670000000  0.5373000000000 1.0
C      1  0.5015590000000  0.4008540000000  0.5353520000000 1.0
C      1  0.5580770000000  0.5271390000000  0.4660420000000 1.0
C      1  0.5237010000000  0.4399260000000  0.5458770000000 1.0
C      1  0.3984240000000  0.5301030000000  0.5478480000000 1.0
C      1  0.4552610000000  0.5761790000000  0.5484140000000 1.0
C      1  0.4688610000000  0.5434070000000  0.4188030000000 1.0
C      1  0.4812840000000  0.5764860000000  0.5615470000000 1.0
C      1  0.4720900000000  0.5269450000000  0.5121490000000 1.0
C      1  0.5688140000000  0.4836290000000  0.5243800000000 1.0
C      1  0.4874900000000  0.5155190000000  0.5341410000000 1.0
C      1  0.4896540000000  0.5531350000000  0.5780080000000 1.0
C      1  0.5935950000000  0.4500020000000  0.5597670000000 1.0
C      1  0.3771530000000  0.5159650000000  0.5052370000000 1.0
C      1  0.5241600000000  0.4935260000000  0.5493950000000 1.0
C      1  0.5254350000000  0.5219870000000  0.5382430000000 1.0
C      1  0.4742840000000  0.3975520000000  0.4973400000000 1.0
C      1  0.5174200000000  0.6208740000000  0.5163870000000 1.0
C      1  0.5274270000000  0.5260050000000  0.5971790000000 1.0
C      1  0.5708450000000  0.5600580000000  0.5185150000000 1.0
C      1  0.5222110000000  0.6002160000000  0.5357420000000 1.0
C      1  0.4686070000000  0.4043690000000  0.4699360000000 1.0
C      1  0.4451890000000  0.5372670000000  0.5203980000000 1.0
C      1  0.5222620000000  0.5739630000000  0.5206410000000 1.0
C      1  0.4954030000000  0.5709690000000  0.5096120000000 1.0
C      1  0.4906410000000  0.6092860000000  0.4759850000000 1.0
C      1  0.5001440000000  0.4531860000000  0.5313650000000 1.0
C      1  0.4824910000000  0.5963990000000  0.5174420000000 1.0
C      1  0.4741820000000  0.4108490000000  0.5437070000000 1.0
C      1  0.5015270000000  0.4022930000000  0.5053200000000 1.0
C      1  0.4593020000000  0.4098180000000  0.5183790000000 1.0
C      1  0.4849580000000  0.4260340000000  0.4285930000000 1.0
C      1  0.4001580000000  0.5453660000000  0.4732790000000 1.0
C      1  0.4854270000000  0.5036630000000  0.5886350000000 1.0
C      1  0.6000700000000  0.4838360000000  0.5244350000000 1.0
C      1  0.5516370000000  0.4945390000000  0.5027210000000 1.0
C      1  0.5441050000000  0.5637210000000  0.4403950000000 1.0
C      1  0.4648000000000  0.4347000000000  0.5619880000000 1.0
C      1  0.6216900000000  0.4866850000000  0.4835130000000 1.0
C      1  0.5309620000000  0.4923200000000  0.4476140000000 1.0
C      1  0.4363510000000  0.4287850000000  0.4405250000000 1.0
C      1  0.4875780000000  0.5033920000000  0.4024600000000 1.0
C      1  0.5259840000000  0.4473840000000  0.4688880000000 1.0
C      1  0.5168110000000  0.5525140000000  0.5877090000000 1.0
C      1  0.5725810000000  0.4799630000000  0.4519400000000 1.0
C      1  0.5650030000000  0.4986440000000  0.4755700000000 1.0
C      1  0.5540810000000  0.5239500000000  0.5852010000000 1.0
C      1  0.4235830000000  0.4739660000000  0.4316880000000 1.0
C      1  0.4035530000000  0.4593540000000  0.5203970000000 1.0
C      1  0.4884680000000  0.4388440000000  0.5031900000000 1.0
C      1  0.5470310000000  0.5386210000000  0.5584050000000 1.0
C      1  0.5004290000000  0.4970710000000  0.4438880000000 1.0
C      1  0.6157360000000  0.5131120000000  0.4757260000000 1.0
C      1  0.4720340000000  0.4834220000000  0.5695090000000 1.0
C      1  0.5929420000000  0.5230730000000  0.5469660000000 1.0
C      1  0.3982530000000  0.5107190000000  0.5248280000000 1.0
C      1  0.5341130000000  0.4970690000000  0.3875280000000 1.0
C      1  0.5698800000000  0.5531020000000  0.4525670000000 1.0
C      1  0.4107570000000  0.5668800000000  0.5105240000000 1.0
C      1  0.6036480000000  0.4752370000000  0.5538060000000 1.0
C      1  0.5889400000000  0.4990240000000  0.5648660000000 1.0
C      1  0.4684510000000  0.4629030000000  0.4990470000000 1.0
C      1  0.5510950000000  0.4709550000000  0.5895760000000 1.0
C      1  0.5516040000000  0.4792810000000  0.5517910000000 1.0
C      1  0.5687070000000  0.4977140000000  0.5866890000000 1.0
C      1  0.4240170000000  0.4403460000000  0.5299330000000 1.0
C      1  0.5205860000000  0.4422490000000  0.5765430000000 1.0
C      1  0.5105450000000  0.4920370000000  0.4807620000000 1.0
C      1  0.4134880000000  0.4987720000000  0.4433240000000 1.0
C      1  0.5277770000000  0.4104160000000  0.5456120000000 1.0
C      1  0.4966290000000  0.4435450000000  0.4707600000000 1.0
C      1  0.4423500000000  0.5970030000000  0.4675890000000 1.0
END
