TITL C-951348-1603-321 -2.55897139370138e-07 125000 -1057.35078693017 0 0 168 (C1) n - 1
REM
REM in /home/bkarasulu/work/CARBON/AIRSS/Generating-Clusters/EDIP-Nigel-Params/with-SteepDescent/Only-C1/SD-CG/HFTN-CG
REM
REM
REM
REM
REM
REM ./C.cell (11c1c37f851c82e70ff6c80c92926a4b)
REM
REM compiler GCC version 9.2.1 20190827 (Red Hat 9.2.1-1)
REM options -cpp -mtune=generic -march=x86-64 -g -O0 -fpre-include=/usr/include/finclude/math-vector-fortran.h
REM seed 375008228 -2073955650 -999678021 -459250988 1936598143 -2054504922 -212017644 918907951 1132143858 -654230598 -1365049761 1230588103 -683985813 1422002355 -1057222184 757099589 -564801907 1849913400 1295177041 -1206039552 -1404817741 -887112861 -730730090 1083822834 1249704434 1475860830 1036538240 -1855827478 -243996946 -884161679 -1232462453 -1969453051 1665297928
REM
CELL 1.54180   50.00000   50.00000   50.00000   90.00000   90.00000   90.00000
LATT -1
SFAC C  
C      1  0.5259080000000  0.4971710000000  0.3986530000000 1.0
C      1  0.5029820000000  0.4774690000000  0.5240790000000 1.0
C      1  0.4662170000000  0.5011590000000  0.5155360000000 1.0
C      1  0.5521660000000  0.5575040000000  0.4365280000000 1.0
C      1  0.5558570000000  0.5764970000000  0.4861090000000 1.0
C      1  0.5104500000000  0.4051730000000  0.5510840000000 1.0
C      1  0.4717340000000  0.6001750000000  0.4650750000000 1.0
C      1  0.5490770000000  0.5442590000000  0.5971550000000 1.0
C      1  0.4851070000000  0.5483160000000  0.4283960000000 1.0
C      1  0.4715890000000  0.5437200000000  0.5927520000000 1.0
C      1  0.4688090000000  0.4288670000000  0.5537590000000 1.0
C      1  0.5138140000000  0.4537590000000  0.5379140000000 1.0
C      1  0.4072700000000  0.4795290000000  0.5250670000000 1.0
C      1  0.5512700000000  0.4069250000000  0.4626170000000 1.0
C      1  0.4289050000000  0.5788340000000  0.4681600000000 1.0
C      1  0.4725850000000  0.4737480000000  0.5244900000000 1.0
C      1  0.5232300000000  0.6083220000000  0.5334500000000 1.0
C      1  0.5900160000000  0.4569290000000  0.5135870000000 1.0
C      1  0.4820340000000  0.4763680000000  0.4015950000000 1.0
C      1  0.5871890000000  0.5631830000000  0.5053560000000 1.0
C      1  0.4500320000000  0.5001780000000  0.5967020000000 1.0
C      1  0.5509990000000  0.4248840000000  0.4144010000000 1.0
C      1  0.4770310000000  0.5436760000000  0.5353630000000 1.0
C      1  0.5129190000000  0.5094030000000  0.4482920000000 1.0
C      1  0.4754260000000  0.5925420000000  0.5384670000000 1.0
C      1  0.5594900000000  0.5564040000000  0.5627480000000 1.0
C      1  0.4357680000000  0.5057920000000  0.5163650000000 1.0
C      1  0.5162170000000  0.5136780000000  0.4963130000000 1.0
C      1  0.5201060000000  0.4981090000000  0.5388690000000 1.0
C      1  0.4559810000000  0.4740490000000  0.4128120000000 1.0
C      1  0.4402750000000  0.4403970000000  0.5490420000000 1.0
C      1  0.5987050000000  0.5148060000000  0.5329350000000 1.0
C      1  0.4028000000000  0.5116060000000  0.4497630000000 1.0
C      1  0.4085220000000  0.4640850000000  0.4429200000000 1.0
C      1  0.4984080000000  0.4508350000000  0.4766850000000 1.0
C      1  0.5907840000000  0.4814300000000  0.4053910000000 1.0
C      1  0.5476980000000  0.5724510000000  0.5413190000000 1.0
C      1  0.5135250000000  0.4412170000000  0.6007910000000 1.0
C      1  0.5775810000000  0.4730750000000  0.4675680000000 1.0
C      1  0.5490480000000  0.6004900000000  0.5422510000000 1.0
C      1  0.4984190000000  0.6078230000000  0.4598770000000 1.0
C      1  0.5379360000000  0.4160350000000  0.4377930000000 1.0
C      1  0.5833460000000  0.4960420000000  0.5467980000000 1.0
C      1  0.5838520000000  0.4805660000000  0.4965930000000 1.0
C      1  0.5471890000000  0.5306050000000  0.5554390000000 1.0
C      1  0.5572350000000  0.4874870000000  0.4520800000000 1.0
C      1  0.4173570000000  0.4192780000000  0.4821020000000 1.0
C      1  0.5596360000000  0.4969070000000  0.5094370000000 1.0
C      1  0.5010950000000  0.5981730000000  0.5517070000000 1.0
C      1  0.4141700000000  0.5532040000000  0.4701750000000 1.0
C      1  0.3981760000000  0.5286640000000  0.5127770000000 1.0
C      1  0.6124690000000  0.4984640000000  0.4621620000000 1.0
C      1  0.4392230000000  0.4961990000000  0.4187990000000 1.0
C      1  0.5606340000000  0.5265240000000  0.4907310000000 1.0
C      1  0.4082530000000  0.4815760000000  0.5548470000000 1.0
C      1  0.4786470000000  0.5253130000000  0.4087380000000 1.0
C      1  0.5150880000000  0.4921650000000  0.5927370000000 1.0
C      1  0.3963980000000  0.4666280000000  0.4692620000000 1.0
C      1  0.4580550000000  0.5207770000000  0.5770280000000 1.0
C      1  0.4969400000000  0.5354580000000  0.6052320000000 1.0
C      1  0.6098190000000  0.4721430000000  0.4485850000000 1.0
C      1  0.5318120000000  0.4007000000000  0.4866560000000 1.0
C      1  0.5264630000000  0.5723930000000  0.4495470000000 1.0
C      1  0.4551880000000  0.5781940000000  0.4552840000000 1.0
C      1  0.5372910000000  0.4249040000000  0.5036780000000 1.0
C      1  0.4654630000000  0.5534580000000  0.5093900000000 1.0
C      1  0.4502960000000  0.4702710000000  0.4774630000000 1.0
C      1  0.4622540000000  0.6003620000000  0.4930860000000 1.0
C      1  0.5230620000000  0.5587660000000  0.5269170000000 1.0
C      1  0.5030360000000  0.5538110000000  0.5488250000000 1.0
C      1  0.5264360000000  0.4672040000000  0.4040990000000 1.0
C      1  0.4743810000000  0.5708140000000  0.5812510000000 1.0
C      1  0.4920990000000  0.4202350000000  0.4638310000000 1.0
C      1  0.5331570000000  0.5452800000000  0.4153220000000 1.0
C      1  0.5396310000000  0.6010520000000  0.4842400000000 1.0
C      1  0.3935130000000  0.5001730000000  0.5062330000000 1.0
C      1  0.4023240000000  0.5368270000000  0.5416860000000 1.0
C      1  0.4793680000000  0.5046200000000  0.5616650000000 1.0
C      1  0.6085640000000  0.4960470000000  0.4911990000000 1.0
C      1  0.4705780000000  0.5300960000000  0.4787270000000 1.0
C      1  0.5766330000000  0.5065190000000  0.4085560000000 1.0
C      1  0.4880930000000  0.4151230000000  0.5105660000000 1.0
C      1  0.5911040000000  0.4480290000000  0.4547620000000 1.0
C      1  0.4944360000000  0.5023920000000  0.3972430000000 1.0
C      1  0.4221900000000  0.5603670000000  0.5388540000000 1.0
C      1  0.5145730000000  0.5559790000000  0.4721750000000 1.0
C      1  0.5683560000000  0.4133060000000  0.5228890000000 1.0
C      1  0.5090240000000  0.4157180000000  0.4389110000000 1.0
C      1  0.4617210000000  0.4268670000000  0.5002520000000 1.0
C      1  0.4563710000000  0.4558960000000  0.5039940000000 1.0
C      1  0.4588880000000  0.4098680000000  0.4511170000000 1.0
C      1  0.5436640000000  0.4787060000000  0.5399900000000 1.0
C      1  0.4668170000000  0.4267600000000  0.4280610000000 1.0
C      1  0.4492050000000  0.5220530000000  0.4103090000000 1.0
C      1  0.5312110000000  0.5157530000000  0.4234110000000 1.0
C      1  0.4663370000000  0.4584200000000  0.6042320000000 1.0
C      1  0.4782050000000  0.5165120000000  0.5358930000000 1.0
C      1  0.5287170000000  0.5274120000000  0.5203610000000 1.0
C      1  0.5103850000000  0.5638660000000  0.4228390000000 1.0
C      1  0.4361070000000  0.5204650000000  0.5487950000000 1.0
C      1  0.4121660000000  0.4912540000000  0.4302950000000 1.0
C      1  0.5706810000000  0.4656900000000  0.3915620000000 1.0
C      1  0.5325680000000  0.4200110000000  0.5596040000000 1.0
C      1  0.4924470000000  0.5365740000000  0.4570880000000 1.0
C      1  0.4351150000000  0.5616010000000  0.5114020000000 1.0
C      1  0.5258490000000  0.4569020000000  0.4669910000000 1.0
C      1  0.5488100000000  0.4649700000000  0.5718150000000 1.0
C      1  0.4505960000000  0.4732550000000  0.5832250000000 1.0
C      1  0.4050630000000  0.4458000000000  0.4882360000000 1.0
C      1  0.5086070000000  0.5061960000000  0.5670570000000 1.0
C      1  0.4243460000000  0.5330310000000  0.4513950000000 1.0
C      1  0.5294270000000  0.4426070000000  0.5774150000000 1.0
C      1  0.4030290000000  0.4948130000000  0.4769990000000 1.0
C      1  0.4282790000000  0.4616680000000  0.5667120000000 1.0
C      1  0.5595590000000  0.5103170000000  0.4330130000000 1.0
C      1  0.5728500000000  0.4296100000000  0.4740940000000 1.0
C      1  0.5205700000000  0.5540980000000  0.6002880000000 1.0
C      1  0.5587820000000  0.4947200000000  0.3862330000000 1.0
C      1  0.4110250000000  0.5101880000000  0.5624200000000 1.0
C      1  0.5620480000000  0.5068530000000  0.5663760000000 1.0
C      1  0.5319530000000  0.5301300000000  0.4757600000000 1.0
C      1  0.4373350000000  0.5442770000000  0.4255350000000 1.0
C      1  0.4875890000000  0.4441720000000  0.5911470000000 1.0
C      1  0.5333870000000  0.4903160000000  0.4949650000000 1.0
C      1  0.4988360000000  0.5064280000000  0.6134230000000 1.0
C      1  0.5555140000000  0.4278490000000  0.5436170000000 1.0
C      1  0.5013220000000  0.4003100000000  0.4851750000000 1.0
C      1  0.4717460000000  0.4942250000000  0.6163800000000 1.0
C      1  0.4698430000000  0.4751630000000  0.5589340000000 1.0
C      1  0.4798550000000  0.4772340000000  0.4733130000000 1.0
C      1  0.5313020000000  0.4857320000000  0.4648560000000 1.0
C      1  0.5188800000000  0.5341150000000  0.5669710000000 1.0
C      1  0.4585670000000  0.5771190000000  0.5576000000000 1.0
C      1  0.4786510000000  0.5812210000000  0.5101610000000 1.0
C      1  0.6107010000000  0.5197690000000  0.5081630000000 1.0
C      1  0.5087120000000  0.5741110000000  0.5027310000000 1.0
C      1  0.4940790000000  0.4295090000000  0.4184610000000 1.0
C      1  0.6020370000000  0.5426710000000  0.4915030000000 1.0
C      1  0.4832810000000  0.5046470000000  0.4899620000000 1.0
C      1  0.4517730000000  0.4509590000000  0.4282500000000 1.0
C      1  0.4330030000000  0.4229110000000  0.4572500000000 1.0
C      1  0.4881880000000  0.4500400000000  0.5621160000000 1.0
C      1  0.5256220000000  0.6012870000000  0.4576710000000 1.0
C      1  0.4849100000000  0.4075020000000  0.5396530000000 1.0
C      1  0.4305030000000  0.5779820000000  0.5588210000000 1.0
C      1  0.4591740000000  0.5639540000000  0.4306160000000 1.0
C      1  0.5010420000000  0.4566550000000  0.4097530000000 1.0
C      1  0.5860920000000  0.4666380000000  0.5412130000000 1.0
C      1  0.4047130000000  0.4508420000000  0.5164040000000 1.0
C      1  0.5476000000000  0.4454400000000  0.4841790000000 1.0
C      1  0.5910840000000  0.5285850000000  0.4665910000000 1.0
C      1  0.5101100000000  0.4366030000000  0.5109760000000 1.0
C      1  0.4351380000000  0.4127910000000  0.5061280000000 1.0
C      1  0.4342080000000  0.5884910000000  0.4956780000000 1.0
C      1  0.5605130000000  0.5535170000000  0.5036350000000 1.0
C      1  0.5838610000000  0.4288490000000  0.5036720000000 1.0
C      1  0.4452460000000  0.5189280000000  0.4678230000000 1.0
C      1  0.5503670000000  0.4519090000000  0.4066530000000 1.0
C      1  0.5175610000000  0.6023510000000  0.5041520000000 1.0
C      1  0.4218660000000  0.4295100000000  0.5288680000000 1.0
C      1  0.4196120000000  0.5411830000000  0.4965400000000 1.0
C      1  0.4347530000000  0.4522080000000  0.4514540000000 1.0
C      1  0.5613110000000  0.5165650000000  0.5966280000000 1.0
C      1  0.4336580000000  0.4967400000000  0.4840490000000 1.0
C      1  0.5666080000000  0.5344050000000  0.4484170000000 1.0
C      1  0.5703700000000  0.4488690000000  0.5577870000000 1.0
C      1  0.5445070000000  0.4880180000000  0.5959030000000 1.0
C      1  0.5027900000000  0.5748520000000  0.5726720000000 1.0
END
