TITL C-951345-2650-246 -2.06887689774474e-06 125000 -785.443728748287 0 0 125 (C1) n - 1
REM
REM in /home/bkarasulu/work/CARBON/AIRSS/Generating-Clusters/EDIP-Nigel-Params/with-SteepDescent/Only-C1/SD-CG/HFTN-CG
REM
REM
REM
REM
REM
REM ./C.cell (11c1c37f851c82e70ff6c80c92926a4b)
REM
REM compiler GCC version 9.2.1 20190827 (Red Hat 9.2.1-1)
REM options -cpp -mtune=generic -march=x86-64 -g -O0 -fpre-include=/usr/include/finclude/math-vector-fortran.h
REM seed -1578686668 562776930 1150312365 1763264352 975343907 154312253 -1975165769 2115534187 1305744617 -1442616474 1190174677 -216413600 -967416715 -1900931995 2137659485 1350960991 156363679 -2103553219 -1107150320 -287167157 1168279680 649603566 1038328677 -364719479 1706816728 1670162202 413635764 1538450439 58633199 -486573601 629375404 663316843 1396955233
REM
CELL 1.54180   50.00000   50.00000   50.00000   90.00000   90.00000   90.00000
LATT -1
SFAC C  
C      1  0.4641170000000  0.5088410000000  0.4422630000000 1.0
C      1  0.4591280000000  0.5034420000000  0.4941650000000 1.0
C      1  0.5085290000000  0.5408280000000  0.5799950000000 1.0
C      1  0.5901270000000  0.4709740000000  0.5030070000000 1.0
C      1  0.5329980000000  0.5266300000000  0.5741010000000 1.0
C      1  0.5720400000000  0.4544430000000  0.5509110000000 1.0
C      1  0.5165090000000  0.5378720000000  0.4271820000000 1.0
C      1  0.5677440000000  0.5003110000000  0.5670150000000 1.0
C      1  0.4339430000000  0.4488460000000  0.5598370000000 1.0
C      1  0.5510260000000  0.5803040000000  0.5691920000000 1.0
C      1  0.4848940000000  0.4663170000000  0.4294970000000 1.0
C      1  0.4868110000000  0.5232260000000  0.5876900000000 1.0
C      1  0.4738550000000  0.5973070000000  0.5428990000000 1.0
C      1  0.5591350000000  0.4778000000000  0.4224220000000 1.0
C      1  0.4772870000000  0.4311360000000  0.5415560000000 1.0
C      1  0.5312920000000  0.4964130000000  0.5786720000000 1.0
C      1  0.5174360000000  0.4776210000000  0.5581100000000 1.0
C      1  0.4051300000000  0.5013130000000  0.5255530000000 1.0
C      1  0.4642570000000  0.4283850000000  0.5124870000000 1.0
C      1  0.4643810000000  0.4785780000000  0.4484350000000 1.0
C      1  0.5536040000000  0.4232080000000  0.5168470000000 1.0
C      1  0.5004680000000  0.4128030000000  0.5454380000000 1.0
C      1  0.4251230000000  0.4513710000000  0.5324270000000 1.0
C      1  0.4397650000000  0.5130040000000  0.5679080000000 1.0
C      1  0.4423270000000  0.5687050000000  0.4845290000000 1.0
C      1  0.5648410000000  0.5746830000000  0.5212720000000 1.0
C      1  0.4784840000000  0.5528890000000  0.5030720000000 1.0
C      1  0.5037410000000  0.4853000000000  0.4824320000000 1.0
C      1  0.4317530000000  0.5152220000000  0.5373610000000 1.0
C      1  0.5060440000000  0.5761660000000  0.4507340000000 1.0
C      1  0.4638890000000  0.5866440000000  0.4896520000000 1.0
C      1  0.5798490000000  0.4809830000000  0.5499290000000 1.0
C      1  0.5633020000000  0.5590570000000  0.4965840000000 1.0
C      1  0.4238390000000  0.4468670000000  0.4879060000000 1.0
C      1  0.4793580000000  0.5714220000000  0.4412890000000 1.0
C      1  0.4430130000000  0.5343360000000  0.4222470000000 1.0
C      1  0.4639370000000  0.5304290000000  0.5703560000000 1.0
C      1  0.5734420000000  0.5310230000000  0.4939390000000 1.0
C      1  0.5825300000000  0.4621850000000  0.4234660000000 1.0
C      1  0.4608330000000  0.4389210000000  0.5653430000000 1.0
C      1  0.4039710000000  0.4705860000000  0.5232680000000 1.0
C      1  0.4949150000000  0.5997060000000  0.5238130000000 1.0
C      1  0.4258320000000  0.5541750000000  0.5040390000000 1.0
C      1  0.4945000000000  0.4958220000000  0.5910450000000 1.0
C      1  0.4949340000000  0.4402690000000  0.4368580000000 1.0
C      1  0.4710510000000  0.4782270000000  0.5903530000000 1.0
C      1  0.5497480000000  0.5112650000000  0.4893800000000 1.0
C      1  0.5124740000000  0.5873680000000  0.4770590000000 1.0
C      1  0.5541000000000  0.5577500000000  0.4436170000000 1.0
C      1  0.4555880000000  0.5022190000000  0.5237870000000 1.0
C      1  0.5499550000000  0.4945800000000  0.5145400000000 1.0
C      1  0.5150320000000  0.4080100000000  0.5691610000000 1.0
C      1  0.5332190000000  0.4633370000000  0.4204310000000 1.0
C      1  0.4181780000000  0.4924580000000  0.4542430000000 1.0
C      1  0.3983150000000  0.5111990000000  0.4977940000000 1.0
C      1  0.5851420000000  0.5258550000000  0.4657810000000 1.0
C      1  0.4316440000000  0.4433910000000  0.4599710000000 1.0
C      1  0.5151510000000  0.4638900000000  0.5005210000000 1.0
C      1  0.4337850000000  0.4321590000000  0.5117110000000 1.0
C      1  0.4224810000000  0.5200400000000  0.4418340000000 1.0
C      1  0.5573950000000  0.5090950000000  0.4246670000000 1.0
C      1  0.4448290000000  0.4868520000000  0.5797610000000 1.0
C      1  0.4668330000000  0.5504540000000  0.5310990000000 1.0
C      1  0.4138760000000  0.5416430000000  0.4594000000000 1.0
C      1  0.4755130000000  0.5700930000000  0.5537190000000 1.0
C      1  0.5248340000000  0.4318050000000  0.5775740000000 1.0
C      1  0.4522670000000  0.4253260000000  0.4554900000000 1.0
C      1  0.4352610000000  0.4693230000000  0.4455240000000 1.0
C      1  0.4018290000000  0.4645070000000  0.4942860000000 1.0
C      1  0.5249490000000  0.5838900000000  0.5593620000000 1.0
C      1  0.4908120000000  0.5938680000000  0.4957220000000 1.0
C      1  0.4908230000000  0.5226640000000  0.4030390000000 1.0
C      1  0.5484240000000  0.4466250000000  0.5363320000000 1.0
C      1  0.4368000000000  0.5446960000000  0.5296790000000 1.0
C      1  0.5248270000000  0.4487250000000  0.5547860000000 1.0
C      1  0.5675550000000  0.4242540000000  0.4509240000000 1.0
C      1  0.4713500000000  0.4567580000000  0.5014280000000 1.0
C      1  0.5064940000000  0.4013180000000  0.5190800000000 1.0
C      1  0.5669210000000  0.5322790000000  0.4433260000000 1.0
C      1  0.5396660000000  0.5873360000000  0.4868080000000 1.0
C      1  0.5279130000000  0.5638720000000  0.4348680000000 1.0
C      1  0.5347980000000  0.5203450000000  0.4097190000000 1.0
C      1  0.4653290000000  0.5147470000000  0.4123900000000 1.0
C      1  0.4730670000000  0.4793650000000  0.4806910000000 1.0
C      1  0.4937030000000  0.4602360000000  0.5215500000000 1.0
C      1  0.4796750000000  0.5104890000000  0.5405120000000 1.0
C      1  0.5254140000000  0.5279720000000  0.4827220000000 1.0
C      1  0.5390410000000  0.4229720000000  0.4531000000000 1.0
C      1  0.3995660000000  0.4890530000000  0.4780120000000 1.0
C      1  0.5319860000000  0.4076590000000  0.5041090000000 1.0
C      1  0.4330840000000  0.5642050000000  0.4574230000000 1.0
C      1  0.5217470000000  0.5948990000000  0.5329460000000 1.0
C      1  0.4119300000000  0.5349040000000  0.4878760000000 1.0
C      1  0.4570250000000  0.5595830000000  0.5737550000000 1.0
C      1  0.4831800000000  0.5251600000000  0.4582070000000 1.0
C      1  0.4829070000000  0.4052800000000  0.5006580000000 1.0
C      1  0.4948080000000  0.4839150000000  0.5410170000000 1.0
C      1  0.5661470000000  0.4533450000000  0.4960730000000 1.0
C      1  0.4530430000000  0.5607070000000  0.4359930000000 1.0
C      1  0.4989280000000  0.5288140000000  0.5256150000000 1.0
C      1  0.5625460000000  0.5627380000000  0.5494180000000 1.0
C      1  0.5480620000000  0.5363200000000  0.5506780000000 1.0
C      1  0.5872760000000  0.5200710000000  0.5204700000000 1.0
C      1  0.5031350000000  0.5653080000000  0.5650290000000 1.0
C      1  0.5241830000000  0.4108310000000  0.4755260000000 1.0
C      1  0.4798040000000  0.4234270000000  0.4544300000000 1.0
C      1  0.5814750000000  0.4493480000000  0.4483520000000 1.0
C      1  0.5447390000000  0.5949650000000  0.5145950000000 1.0
C      1  0.5555240000000  0.4906360000000  0.4643650000000 1.0
C      1  0.5758700000000  0.5257090000000  0.5502100000000 1.0
C      1  0.5423700000000  0.4663490000000  0.5119140000000 1.0
C      1  0.4733330000000  0.4501980000000  0.5882080000000 1.0
C      1  0.5198670000000  0.4933820000000  0.4536480000000 1.0
C      1  0.4949910000000  0.4093330000000  0.4743140000000 1.0
C      1  0.4779110000000  0.5254330000000  0.4868030000000 1.0
C      1  0.5238110000000  0.4384570000000  0.4336930000000 1.0
C      1  0.6019900000000  0.4836510000000  0.4812760000000 1.0
C      1  0.5124010000000  0.5230790000000  0.4542300000000 1.0
C      1  0.5864250000000  0.4970960000000  0.4622490000000 1.0
C      1  0.5118420000000  0.5023200000000  0.4026790000000 1.0
C      1  0.5591760000000  0.4588590000000  0.4676230000000 1.0
C      1  0.5108620000000  0.4819390000000  0.4254270000000 1.0
C      1  0.5787510000000  0.4911690000000  0.5222670000000 1.0
C      1  0.5041620000000  0.5145300000000  0.4982640000000 1.0
C      1  0.4241480000000  0.4677090000000  0.5781710000000 1.0
END
