TITL C-950522-5749-582 2.07321748471351e-06 125000 -1023.11329357919 0 0 166 (C1) n - 1
REM
REM in /home/bkarasulu/work/CARBON/AIRSS/Generating-Clusters/EDIP-Nigel-Params/with-SteepDescent/Only-C1/SD-CG/HFTN-CG
REM
REM
REM
REM
REM
REM ./C.cell (11c1c37f851c82e70ff6c80c92926a4b)
REM
REM compiler GCC version 9.2.1 20190827 (Red Hat 9.2.1-1)
REM options -cpp -mtune=generic -march=x86-64 -g -O0 -fpre-include=/usr/include/finclude/math-vector-fortran.h
REM seed -1614386477 102505461 -133627492 1327216613 -1560175666 273073854 529239941 -557104822 -1302367309 2053394453 856089557 -594311967 1354162897 891526832 -507319115 -1286615005 1006390609 -2097322705 -1499041830 -1169688140 -2020963557 1667374143 -1702767323 1384236294 799073529 1566654029 -1790549704 609616982 -1698218846 1242943450 -1987897758 -990763087 1666365277
REM
CELL 1.54180   50.00000   50.00000   50.00000   90.00000   90.00000   90.00000
LATT -1
SFAC C  
C      1  0.4513200000000  0.4097070000000  0.5257540000000 1.0
C      1  0.4839020000000  0.6212840000000  0.4956820000000 1.0
C      1  0.4689760000000  0.5104430000000  0.5926790000000 1.0
C      1  0.4388100000000  0.4463230000000  0.5615680000000 1.0
C      1  0.4394130000000  0.5916680000000  0.4753980000000 1.0
C      1  0.5531320000000  0.5789580000000  0.5572840000000 1.0
C      1  0.4742140000000  0.4972170000000  0.4910170000000 1.0
C      1  0.5182180000000  0.5668650000000  0.5252590000000 1.0
C      1  0.4840640000000  0.5932900000000  0.5339570000000 1.0
C      1  0.5334650000000  0.4944070000000  0.4833850000000 1.0
C      1  0.4792250000000  0.5658940000000  0.5732500000000 1.0
C      1  0.5255090000000  0.5876840000000  0.5628760000000 1.0
C      1  0.5011260000000  0.4797350000000  0.5923270000000 1.0
C      1  0.4532540000000  0.4570320000000  0.5160240000000 1.0
C      1  0.4193670000000  0.4649910000000  0.5493970000000 1.0
C      1  0.3934300000000  0.4826960000000  0.5103320000000 1.0
C      1  0.5739430000000  0.4336890000000  0.5568000000000 1.0
C      1  0.4867510000000  0.5372280000000  0.5624040000000 1.0
C      1  0.4475700000000  0.5564610000000  0.4497910000000 1.0
C      1  0.5238030000000  0.4731980000000  0.4130960000000 1.0
C      1  0.4200450000000  0.5484090000000  0.5084560000000 1.0
C      1  0.5472970000000  0.5569950000000  0.5169520000000 1.0
C      1  0.4404500000000  0.5156720000000  0.4216240000000 1.0
C      1  0.4095360000000  0.4594870000000  0.5210940000000 1.0
C      1  0.5286870000000  0.5234730000000  0.5421090000000 1.0
C      1  0.5277890000000  0.4880820000000  0.4543370000000 1.0
C      1  0.5161110000000  0.4040560000000  0.5571380000000 1.0
C      1  0.4170020000000  0.4705330000000  0.4280750000000 1.0
C      1  0.4681920000000  0.4636360000000  0.4224770000000 1.0
C      1  0.4709000000000  0.5814530000000  0.4296970000000 1.0
C      1  0.5615860000000  0.5186080000000  0.4815050000000 1.0
C      1  0.4358720000000  0.4179170000000  0.4990440000000 1.0
C      1  0.4569520000000  0.4574340000000  0.5833520000000 1.0
C      1  0.4274590000000  0.4996950000000  0.5835380000000 1.0
C      1  0.4715450000000  0.4211540000000  0.4412440000000 1.0
C      1  0.5702780000000  0.4106830000000  0.5054430000000 1.0
C      1  0.4571750000000  0.4404940000000  0.4916870000000 1.0
C      1  0.5018440000000  0.4619600000000  0.4968960000000 1.0
C      1  0.4792230000000  0.5271420000000  0.4589280000000 1.0
C      1  0.5177030000000  0.4501390000000  0.4559940000000 1.0
C      1  0.4967110000000  0.5860730000000  0.5589380000000 1.0
C      1  0.4973740000000  0.4274670000000  0.4636680000000 1.0
C      1  0.4570620000000  0.5613470000000  0.4087570000000 1.0
C      1  0.5425540000000  0.5001470000000  0.4020360000000 1.0
C      1  0.4405240000000  0.5895410000000  0.5283230000000 1.0
C      1  0.4436310000000  0.5001580000000  0.4496150000000 1.0
C      1  0.5196340000000  0.5376550000000  0.4746770000000 1.0
C      1  0.4440330000000  0.4334810000000  0.4442750000000 1.0
C      1  0.4037230000000  0.5470040000000  0.4737600000000 1.0
C      1  0.5456790000000  0.5788220000000  0.4519530000000 1.0
C      1  0.4767810000000  0.5409490000000  0.3993530000000 1.0
C      1  0.4670390000000  0.4830440000000  0.5187910000000 1.0
C      1  0.4265770000000  0.5655710000000  0.4684840000000 1.0
C      1  0.5532960000000  0.4850420000000  0.5463770000000 1.0
C      1  0.4015970000000  0.5178380000000  0.4710230000000 1.0
C      1  0.5419930000000  0.4191140000000  0.4986410000000 1.0
C      1  0.5613440000000  0.5500930000000  0.5625660000000 1.0
C      1  0.4914030000000  0.5648380000000  0.5085290000000 1.0
C      1  0.5437810000000  0.4460920000000  0.4792930000000 1.0
C      1  0.5844320000000  0.4240440000000  0.4817520000000 1.0
C      1  0.4992380000000  0.5509330000000  0.6019540000000 1.0
C      1  0.6051970000000  0.4967450000000  0.4913900000000 1.0
C      1  0.4650360000000  0.5294580000000  0.5426860000000 1.0
C      1  0.5146050000000  0.4747920000000  0.5661750000000 1.0
C      1  0.5446390000000  0.5500720000000  0.4116960000000 1.0
C      1  0.3844100000000  0.4979580000000  0.5328230000000 1.0
C      1  0.5592720000000  0.5709810000000  0.4762620000000 1.0
C      1  0.5932170000000  0.4754680000000  0.4730500000000 1.0
C      1  0.5365160000000  0.4105890000000  0.5745380000000 1.0
C      1  0.4953220000000  0.4747610000000  0.5229610000000 1.0
C      1  0.4098110000000  0.4349360000000  0.5033390000000 1.0
C      1  0.5471200000000  0.5459460000000  0.4869290000000 1.0
C      1  0.5008870000000  0.5629710000000  0.4765840000000 1.0
C      1  0.4275980000000  0.4939860000000  0.5538540000000 1.0
C      1  0.4107840000000  0.5019210000000  0.4940880000000 1.0
C      1  0.5315910000000  0.4986480000000  0.5588440000000 1.0
C      1  0.4199790000000  0.4646760000000  0.4722560000000 1.0
C      1  0.5143170000000  0.5185960000000  0.5187140000000 1.0
C      1  0.5772680000000  0.4529770000000  0.4864180000000 1.0
C      1  0.4002520000000  0.4448810000000  0.4785050000000 1.0
C      1  0.5996240000000  0.4640640000000  0.5305290000000 1.0
C      1  0.5093060000000  0.6108820000000  0.4584430000000 1.0
C      1  0.5470440000000  0.5377160000000  0.5857240000000 1.0
C      1  0.4649550000000  0.4748220000000  0.4528040000000 1.0
C      1  0.4820490000000  0.4380530000000  0.5532860000000 1.0
C      1  0.5103940000000  0.5236660000000  0.4213870000000 1.0
C      1  0.5521720000000  0.4330820000000  0.5766620000000 1.0
C      1  0.5118750000000  0.5535110000000  0.4108340000000 1.0
C      1  0.5026760000000  0.4835810000000  0.3940720000000 1.0
C      1  0.5597580000000  0.4826430000000  0.5904760000000 1.0
C      1  0.5223850000000  0.5964650000000  0.5127040000000 1.0
C      1  0.4608160000000  0.5123500000000  0.3997410000000 1.0
C      1  0.4482140000000  0.5706850000000  0.5604590000000 1.0
C      1  0.4429890000000  0.5266740000000  0.5860730000000 1.0
C      1  0.4227460000000  0.5678910000000  0.5311010000000 1.0
C      1  0.5011590000000  0.5760130000000  0.4283560000000 1.0
C      1  0.5103530000000  0.5129600000000  0.4918980000000 1.0
C      1  0.4555130000000  0.4369140000000  0.5387090000000 1.0
C      1  0.5588690000000  0.4384110000000  0.4383860000000 1.0
C      1  0.5482790000000  0.6064640000000  0.5185020000000 1.0
C      1  0.4076510000000  0.5117020000000  0.5406180000000 1.0
C      1  0.4709220000000  0.5430920000000  0.5156560000000 1.0
C      1  0.5560820000000  0.4681240000000  0.4429930000000 1.0
C      1  0.4426220000000  0.5411930000000  0.5594950000000 1.0
C      1  0.5752550000000  0.4578990000000  0.5148890000000 1.0
C      1  0.5248550000000  0.3963720000000  0.4875050000000 1.0
C      1  0.5823760000000  0.5229460000000  0.5255100000000 1.0
C      1  0.4363210000000  0.5448990000000  0.4237860000000 1.0
C      1  0.5879700000000  0.5690330000000  0.4738480000000 1.0
C      1  0.5769230000000  0.4832270000000  0.5640570000000 1.0
C      1  0.6146180000000  0.4882120000000  0.5189750000000 1.0
C      1  0.4755940000000  0.4857910000000  0.4034400000000 1.0
C      1  0.4745780000000  0.3990160000000  0.5058250000000 1.0
C      1  0.5911470000000  0.4573080000000  0.5588360000000 1.0
C      1  0.5399940000000  0.4577420000000  0.5897890000000 1.0
C      1  0.6002380000000  0.5443220000000  0.4802360000000 1.0
C      1  0.5021710000000  0.4582310000000  0.5452420000000 1.0
C      1  0.5789710000000  0.4859390000000  0.4496130000000 1.0
C      1  0.5567170000000  0.5357280000000  0.5363910000000 1.0
C      1  0.4491740000000  0.5397510000000  0.4960040000000 1.0
C      1  0.4158890000000  0.4868200000000  0.4528070000000 1.0
C      1  0.5730910000000  0.4211900000000  0.4558130000000 1.0
C      1  0.4814730000000  0.4400060000000  0.5920780000000 1.0
C      1  0.5706250000000  0.5155590000000  0.4519580000000 1.0
C      1  0.5173720000000  0.5083560000000  0.3879170000000 1.0
C      1  0.4514050000000  0.4842750000000  0.5954200000000 1.0
C      1  0.4590110000000  0.3926950000000  0.4805500000000 1.0
C      1  0.5502990000000  0.4695710000000  0.5222360000000 1.0
C      1  0.5611820000000  0.5830700000000  0.5283730000000 1.0
C      1  0.5403880000000  0.5072590000000  0.5871350000000 1.0
C      1  0.4551030000000  0.5007530000000  0.5401460000000 1.0
C      1  0.4981280000000  0.6118500000000  0.5176880000000 1.0
C      1  0.4467300000000  0.4534370000000  0.4660780000000 1.0
C      1  0.4699480000000  0.3923500000000  0.4535620000000 1.0
C      1  0.5202180000000  0.4107230000000  0.5294430000000 1.0
C      1  0.4382940000000  0.4526410000000  0.4213330000000 1.0
C      1  0.4231980000000  0.5185610000000  0.5158440000000 1.0
C      1  0.4908240000000  0.4130710000000  0.5665620000000 1.0
C      1  0.4838370000000  0.6144280000000  0.4687770000000 1.0
C      1  0.5613780000000  0.5628900000000  0.4326450000000 1.0
C      1  0.5169820000000  0.4468140000000  0.4258770000000 1.0
C      1  0.5059100000000  0.4537560000000  0.6038530000000 1.0
C      1  0.4896980000000  0.4790300000000  0.4728920000000 1.0
C      1  0.5153730000000  0.5026170000000  0.6041770000000 1.0
C      1  0.5545640000000  0.5219200000000  0.4178890000000 1.0
C      1  0.5880490000000  0.5213990000000  0.4956680000000 1.0
C      1  0.4831610000000  0.5192070000000  0.4309440000000 1.0
C      1  0.5123390000000  0.4013530000000  0.4619020000000 1.0
C      1  0.4634680000000  0.5965450000000  0.4582870000000 1.0
C      1  0.5151370000000  0.5830690000000  0.4537920000000 1.0
C      1  0.4565510000000  0.5160490000000  0.4748470000000 1.0
C      1  0.4955200000000  0.3804520000000  0.4530100000000 1.0
C      1  0.5839970000000  0.5439020000000  0.4456040000000 1.0
C      1  0.5258190000000  0.5556720000000  0.5929120000000 1.0
C      1  0.5385220000000  0.4276790000000  0.4214870000000 1.0
C      1  0.4758970000000  0.5543270000000  0.4635950000000 1.0
C      1  0.4401480000000  0.5997320000000  0.5023150000000 1.0
C      1  0.4933970000000  0.5223040000000  0.6039020000000 1.0
C      1  0.5324070000000  0.4677730000000  0.4975320000000 1.0
C      1  0.5974880000000  0.5019700000000  0.5406680000000 1.0
C      1  0.5771090000000  0.4175510000000  0.5327760000000 1.0
C      1  0.5277230000000  0.5188460000000  0.4461440000000 1.0
C      1  0.4874980000000  0.4394560000000  0.4207490000000 1.0
C      1  0.5052800000000  0.3968820000000  0.5094100000000 1.0
C      1  0.4879400000000  0.4332700000000  0.4917990000000 1.0
C      1  0.5149100000000  0.5461440000000  0.5570070000000 1.0
END
