TITL C-951336-9012-130 -1.25060057238441e-06 125000 -1210.84482176057 0 0 192 (C1) n - 1
REM
REM in /home/bkarasulu/work/CARBON/AIRSS/Generating-Clusters/EDIP-Nigel-Params/with-SteepDescent/Only-C1/SD-CG/HFTN-CG
REM
REM
REM
REM
REM
REM ./C.cell (11c1c37f851c82e70ff6c80c92926a4b)
REM
REM compiler GCC version 9.2.1 20190827 (Red Hat 9.2.1-1)
REM options -cpp -mtune=generic -march=x86-64 -g -O0 -fpre-include=/usr/include/finclude/math-vector-fortran.h
REM seed -787686190 1898988174 -1213905650 -1150198267 -1367676691 1576932220 -1417863697 -1671572394 -1782969551 -929783555 -668772632 -593890263 -943591872 1507348301 -361609445 -1272912817 -1089842169 205655734 2147401387 -192183261 -386132635 -1470019316 301197706 -1185527384 -1533992547 663876829 -1332035202 -359371369 -1953399692 895804984 1246184370 64907869 888600886
REM
CELL 1.54180   50.00000   50.00000   50.00000   90.00000   90.00000   90.00000
LATT -1
SFAC C  
C      1  0.5387140000000  0.4077240000000  0.4633240000000 1.0
C      1  0.5455120000000  0.4371090000000  0.3938120000000 1.0
C      1  0.3919710000000  0.4922470000000  0.5477570000000 1.0
C      1  0.4563810000000  0.4188350000000  0.5078340000000 1.0
C      1  0.5183100000000  0.5789170000000  0.4193520000000 1.0
C      1  0.3876810000000  0.5202430000000  0.5000290000000 1.0
C      1  0.5106170000000  0.5406150000000  0.5495100000000 1.0
C      1  0.5031340000000  0.5943190000000  0.4638680000000 1.0
C      1  0.4469830000000  0.4259610000000  0.4602520000000 1.0
C      1  0.4434970000000  0.5015740000000  0.5521310000000 1.0
C      1  0.5637880000000  0.5011100000000  0.4940220000000 1.0
C      1  0.3995190000000  0.5451780000000  0.4837080000000 1.0
C      1  0.4602410000000  0.4496520000000  0.5949110000000 1.0
C      1  0.5376770000000  0.4485040000000  0.6146320000000 1.0
C      1  0.4704450000000  0.5892900000000  0.4294910000000 1.0
C      1  0.5545990000000  0.4647840000000  0.5202730000000 1.0
C      1  0.5110840000000  0.4475460000000  0.4285440000000 1.0
C      1  0.6077710000000  0.4997530000000  0.4751640000000 1.0
C      1  0.4977780000000  0.6059290000000  0.5066200000000 1.0
C      1  0.5295060000000  0.5373290000000  0.5272890000000 1.0
C      1  0.5601600000000  0.6011250000000  0.4684350000000 1.0
C      1  0.4969490000000  0.5415820000000  0.3939480000000 1.0
C      1  0.4504420000000  0.5074550000000  0.5961150000000 1.0
C      1  0.4345910000000  0.4404030000000  0.5589690000000 1.0
C      1  0.5423060000000  0.6170310000000  0.4856780000000 1.0
C      1  0.4059360000000  0.4574630000000  0.4581320000000 1.0
C      1  0.4732020000000  0.4000010000000  0.4914230000000 1.0
C      1  0.5179540000000  0.5364900000000  0.4795850000000 1.0
C      1  0.5403330000000  0.4815470000000  0.4562370000000 1.0
C      1  0.5697880000000  0.4460050000000  0.5386520000000 1.0
C      1  0.4687900000000  0.4462130000000  0.4537890000000 1.0
C      1  0.5002410000000  0.5757330000000  0.5088760000000 1.0
C      1  0.5626150000000  0.5599650000000  0.4919520000000 1.0
C      1  0.5391660000000  0.4909810000000  0.5576410000000 1.0
C      1  0.4342560000000  0.5832330000000  0.4740680000000 1.0
C      1  0.4975330000000  0.4505580000000  0.5116780000000 1.0
C      1  0.4354410000000  0.4496100000000  0.4172770000000 1.0
C      1  0.4507220000000  0.4096260000000  0.5553360000000 1.0
C      1  0.5300330000000  0.3734160000000  0.4943220000000 1.0
C      1  0.5335890000000  0.4843560000000  0.5290910000000 1.0
C      1  0.4137520000000  0.5713980000000  0.4924120000000 1.0
C      1  0.4051780000000  0.5485950000000  0.5750610000000 1.0
C      1  0.5135440000000  0.5642510000000  0.5695750000000 1.0
C      1  0.4138350000000  0.5062260000000  0.4192270000000 1.0
C      1  0.4314840000000  0.5077890000000  0.5034030000000 1.0
C      1  0.4142320000000  0.5821550000000  0.5187040000000 1.0
C      1  0.4374290000000  0.5839140000000  0.5634790000000 1.0
C      1  0.5508260000000  0.3928750000000  0.4882450000000 1.0
C      1  0.5016690000000  0.4362090000000  0.4549390000000 1.0
C      1  0.4329270000000  0.5458750000000  0.5344820000000 1.0
C      1  0.5994190000000  0.4738120000000  0.4950520000000 1.0
C      1  0.4413490000000  0.4368620000000  0.4885780000000 1.0
C      1  0.5956290000000  0.4989370000000  0.4480790000000 1.0
C      1  0.5221900000000  0.4786430000000  0.5800390000000 1.0
C      1  0.5032050000000  0.4005700000000  0.4962260000000 1.0
C      1  0.4380900000000  0.5235730000000  0.4216130000000 1.0
C      1  0.5304630000000  0.4728890000000  0.6268040000000 1.0
C      1  0.4157670000000  0.4865410000000  0.4631290000000 1.0
C      1  0.4814790000000  0.5180500000000  0.4464620000000 1.0
C      1  0.5333850000000  0.5853510000000  0.5598130000000 1.0
C      1  0.5857790000000  0.5442600000000  0.5058050000000 1.0
C      1  0.4609140000000  0.4830170000000  0.5371470000000 1.0
C      1  0.5766320000000  0.4520040000000  0.4501310000000 1.0
C      1  0.5635210000000  0.6025690000000  0.5136420000000 1.0
C      1  0.4059090000000  0.4955040000000  0.4913150000000 1.0
C      1  0.5277190000000  0.4343490000000  0.4733800000000 1.0
C      1  0.5085700000000  0.4704350000000  0.5315730000000 1.0
C      1  0.5678320000000  0.4721990000000  0.4949610000000 1.0
C      1  0.4947060000000  0.5127490000000  0.3916380000000 1.0
C      1  0.4700290000000  0.4814930000000  0.4182950000000 1.0
C      1  0.4377870000000  0.4051880000000  0.5282570000000 1.0
C      1  0.4100080000000  0.4428420000000  0.5424170000000 1.0
C      1  0.5929180000000  0.4770350000000  0.5709800000000 1.0
C      1  0.5396770000000  0.4622810000000  0.3868540000000 1.0
C      1  0.5724100000000  0.5572410000000  0.5459930000000 1.0
C      1  0.5268680000000  0.4936690000000  0.6066790000000 1.0
C      1  0.4782830000000  0.4508850000000  0.5720740000000 1.0
C      1  0.5749870000000  0.5189560000000  0.5171550000000 1.0
C      1  0.5596770000000  0.5190970000000  0.5919310000000 1.0
C      1  0.4861850000000  0.4092380000000  0.4181970000000 1.0
C      1  0.5945040000000  0.5606710000000  0.5286020000000 1.0
C      1  0.4744290000000  0.4349700000000  0.5260210000000 1.0
C      1  0.4632290000000  0.5250710000000  0.5574920000000 1.0
C      1  0.4234220000000  0.5184520000000  0.5309070000000 1.0
C      1  0.5293970000000  0.4164060000000  0.5569130000000 1.0
C      1  0.4658580000000  0.5898600000000  0.5631790000000 1.0
C      1  0.4754110000000  0.5531670000000  0.5957110000000 1.0
C      1  0.4583630000000  0.5025710000000  0.4371270000000 1.0
C      1  0.5286840000000  0.4498730000000  0.5854150000000 1.0
C      1  0.4537890000000  0.5362450000000  0.5842270000000 1.0
C      1  0.5111180000000  0.3703670000000  0.4736950000000 1.0
C      1  0.4679200000000  0.6124250000000  0.5057950000000 1.0
C      1  0.5156920000000  0.4288130000000  0.5000640000000 1.0
C      1  0.5512650000000  0.4357820000000  0.5649840000000 1.0
C      1  0.6096700000000  0.4477350000000  0.4877360000000 1.0
C      1  0.4870910000000  0.4367520000000  0.4119770000000 1.0
C      1  0.4361440000000  0.4586930000000  0.5833060000000 1.0
C      1  0.5871410000000  0.5241810000000  0.4349470000000 1.0
C      1  0.5449900000000  0.5849640000000  0.4248850000000 1.0
C      1  0.4899940000000  0.5456200000000  0.4401260000000 1.0
C      1  0.5885500000000  0.5034980000000  0.5601390000000 1.0
C      1  0.4319660000000  0.4894010000000  0.5786330000000 1.0
C      1  0.3974930000000  0.5239820000000  0.5826140000000 1.0
C      1  0.4818120000000  0.5697260000000  0.4854560000000 1.0
C      1  0.5295840000000  0.5643340000000  0.5116710000000 1.0
C      1  0.4270760000000  0.4749990000000  0.4030350000000 1.0
C      1  0.5598180000000  0.5121190000000  0.5631290000000 1.0
C      1  0.4615160000000  0.4651690000000  0.4755140000000 1.0
C      1  0.4118170000000  0.4192800000000  0.5241160000000 1.0
C      1  0.5865570000000  0.4746880000000  0.4345330000000 1.0
C      1  0.4029440000000  0.4693690000000  0.5322320000000 1.0
C      1  0.5754030000000  0.5871420000000  0.4901650000000 1.0
C      1  0.5474790000000  0.5050720000000  0.4707690000000 1.0
C      1  0.5531510000000  0.4163970000000  0.4381470000000 1.0
C      1  0.5007770000000  0.5013120000000  0.4594160000000 1.0
C      1  0.4531120000000  0.6014190000000  0.4843030000000 1.0
C      1  0.3923240000000  0.5188410000000  0.5311260000000 1.0
C      1  0.4227320000000  0.4379010000000  0.4419060000000 1.0
C      1  0.6062500000000  0.4786240000000  0.5243220000000 1.0
C      1  0.4657810000000  0.5086700000000  0.3834590000000 1.0
C      1  0.4916460000000  0.4782370000000  0.5747580000000 1.0
C      1  0.5388360000000  0.5306130000000  0.4595290000000 1.0
C      1  0.4881790000000  0.4691320000000  0.4900070000000 1.0
C      1  0.5956990000000  0.4286060000000  0.5006800000000 1.0
C      1  0.4919290000000  0.4077630000000  0.4468860000000 1.0
C      1  0.5590110000000  0.5540940000000  0.4622940000000 1.0
C      1  0.5573190000000  0.5323200000000  0.5396130000000 1.0
C      1  0.4605210000000  0.5432020000000  0.5220950000000 1.0
C      1  0.4547340000000  0.4823960000000  0.3928720000000 1.0
C      1  0.5131850000000  0.6151960000000  0.4822400000000 1.0
C      1  0.5469080000000  0.5413520000000  0.6012440000000 1.0
C      1  0.5535320000000  0.4584780000000  0.4689480000000 1.0
C      1  0.5119820000000  0.5489200000000  0.4188100000000 1.0
C      1  0.4404870000000  0.5277960000000  0.4817270000000 1.0
C      1  0.5767300000000  0.4232530000000  0.5202340000000 1.0
C      1  0.4294870000000  0.5968960000000  0.5379280000000 1.0
C      1  0.5647010000000  0.4461300000000  0.6001310000000 1.0
C      1  0.5481850000000  0.5802330000000  0.4520910000000 1.0
C      1  0.4496530000000  0.5311680000000  0.3943010000000 1.0
C      1  0.5002790000000  0.5097060000000  0.6108730000000 1.0
C      1  0.5158680000000  0.4816070000000  0.4383530000000 1.0
C      1  0.5348560000000  0.5266500000000  0.4262900000000 1.0
C      1  0.4778940000000  0.4945670000000  0.5983300000000 1.0
C      1  0.4062130000000  0.4231720000000  0.4959330000000 1.0
C      1  0.5004290000000  0.5553840000000  0.4663090000000 1.0
C      1  0.5424940000000  0.4876540000000  0.3971490000000 1.0
C      1  0.4804580000000  0.4139050000000  0.5475760000000 1.0
C      1  0.3994310000000  0.4488200000000  0.4858230000000 1.0
C      1  0.4756420000000  0.5125740000000  0.5036970000000 1.0
C      1  0.4596030000000  0.4534450000000  0.5453300000000 1.0
C      1  0.5961910000000  0.4597520000000  0.5465450000000 1.0
C      1  0.4976850000000  0.4980900000000  0.4904170000000 1.0
C      1  0.5793540000000  0.4256810000000  0.4405800000000 1.0
C      1  0.5151800000000  0.3910070000000  0.4547050000000 1.0
C      1  0.5646440000000  0.5215240000000  0.4160180000000 1.0
C      1  0.4554960000000  0.6089320000000  0.5316350000000 1.0
C      1  0.5354900000000  0.4017160000000  0.5339820000000 1.0
C      1  0.5612790000000  0.5777600000000  0.5625890000000 1.0
C      1  0.4991630000000  0.5393930000000  0.6069020000000 1.0
C      1  0.5652090000000  0.4963780000000  0.6081040000000 1.0
C      1  0.5679990000000  0.4942450000000  0.4076410000000 1.0
C      1  0.4375650000000  0.5759750000000  0.4454850000000 1.0
C      1  0.5240890000000  0.5111010000000  0.5076860000000 1.0
C      1  0.4982540000000  0.5961720000000  0.4345750000000 1.0
C      1  0.5365280000000  0.4328830000000  0.4199100000000 1.0
C      1  0.4917250000000  0.5185950000000  0.5530270000000 1.0
C      1  0.4045440000000  0.5078830000000  0.4469750000000 1.0
C      1  0.5226360000000  0.5533080000000  0.5965550000000 1.0
C      1  0.4170800000000  0.5326980000000  0.4618540000000 1.0
C      1  0.4666210000000  0.4025850000000  0.4628990000000 1.0
C      1  0.4649100000000  0.4529570000000  0.4246380000000 1.0
C      1  0.4561310000000  0.4922630000000  0.5095640000000 1.0
C      1  0.5861460000000  0.5493920000000  0.4498810000000 1.0
C      1  0.4461380000000  0.4885900000000  0.4620030000000 1.0
C      1  0.6122570000000  0.5281750000000  0.4843940000000 1.0
C      1  0.3972310000000  0.4709250000000  0.5042850000000 1.0
C      1  0.6080930000000  0.5536940000000  0.4691010000000 1.0
C      1  0.5211150000000  0.5003280000000  0.4136360000000 1.0
C      1  0.5016290000000  0.4218840000000  0.5656720000000 1.0
C      1  0.5759680000000  0.4726670000000  0.5949260000000 1.0
C      1  0.5972480000000  0.5053270000000  0.5324930000000 1.0
C      1  0.6033280000000  0.5789830000000  0.4826310000000 1.0
C      1  0.4693410000000  0.5528780000000  0.3974100000000 1.0
C      1  0.4575320000000  0.5509830000000  0.4935560000000 1.0
C      1  0.4026690000000  0.4975140000000  0.5753870000000 1.0
C      1  0.4676210000000  0.5605520000000  0.4261770000000 1.0
C      1  0.5435630000000  0.5858450000000  0.5289230000000 1.0
C      1  0.5529290000000  0.4086290000000  0.5129560000000 1.0
C      1  0.4279440000000  0.5484440000000  0.4390840000000 1.0
C      1  0.4309370000000  0.5546500000000  0.5640430000000 1.0
C      1  0.4853320000000  0.5740320000000  0.5774220000000 1.0
C      1  0.4895430000000  0.4888390000000  0.5464070000000 1.0
END
