TITL C-950532-2784-87 -5.12762696914508e-05 125000 -422.95006923913 0 0 70 (C1) n - 1
REM
REM in /home/bkarasulu/work/CARBON/AIRSS/Generating-Clusters/EDIP-Nigel-Params/with-SteepDescent/Only-C1/SD-CG/HFTN-CG
REM
REM
REM
REM
REM
REM ./C.cell (11c1c37f851c82e70ff6c80c92926a4b)
REM
REM compiler GCC version 9.2.1 20190827 (Red Hat 9.2.1-1)
REM options -cpp -mtune=generic -march=x86-64 -g -O0 -fpre-include=/usr/include/finclude/math-vector-fortran.h
REM seed 1940043762 -2032833970 -962241314 1223989123 1516119148 -1827404000 -697863593 -799354115 -402013026 438299108 2118548676 2078586393 256762632 -2040189812 -1348024729 -2129479380 1446658390 -510024839 629393242 -589534566 -923001118 559885064 -488042083 -831221271 -2040335813 234585447 -298172648 1242446347 84438951 700960242 -1192180353 597416931 -271193363
REM
CELL 1.54180   50.00000   50.00000   50.00000   90.00000   90.00000   90.00000
LATT -1
SFAC C  
C      1  0.5249650000000  0.5547040000000  0.5465160000000 1.0
C      1  0.4742850000000  0.4374200000000  0.4781350000000 1.0
C      1  0.5666050000000  0.4967260000000  0.4704460000000 1.0
C      1  0.4340210000000  0.5167090000000  0.4565730000000 1.0
C      1  0.4647390000000  0.4512140000000  0.4320520000000 1.0
C      1  0.4741610000000  0.5414100000000  0.5503750000000 1.0
C      1  0.5469540000000  0.4733030000000  0.4739930000000 1.0
C      1  0.4711810000000  0.4800660000000  0.4953280000000 1.0
C      1  0.5262750000000  0.5315180000000  0.5015800000000 1.0
C      1  0.5152370000000  0.4489090000000  0.5349110000000 1.0
C      1  0.5815210000000  0.5086800000000  0.4908800000000 1.0
C      1  0.4619470000000  0.4795470000000  0.4310600000000 1.0
C      1  0.4871630000000  0.5211720000000  0.4398370000000 1.0
C      1  0.5476920000000  0.5193100000000  0.5204540000000 1.0
C      1  0.5587560000000  0.4602740000000  0.5873100000000 1.0
C      1  0.5433210000000  0.5671240000000  0.4833790000000 1.0
C      1  0.5192400000000  0.5640020000000  0.5194610000000 1.0
C      1  0.5464040000000  0.4316830000000  0.5024520000000 1.0
C      1  0.4872320000000  0.4426630000000  0.5353120000000 1.0
C      1  0.5419290000000  0.5181120000000  0.5705890000000 1.0
C      1  0.4342670000000  0.4877650000000  0.5452610000000 1.0
C      1  0.4410250000000  0.4502540000000  0.5136530000000 1.0
C      1  0.4255370000000  0.5050860000000  0.5241380000000 1.0
C      1  0.5636930000000  0.4402840000000  0.5246690000000 1.0
C      1  0.5678250000000  0.4681140000000  0.5165800000000 1.0
C      1  0.4448810000000  0.4889850000000  0.4530010000000 1.0
C      1  0.4989230000000  0.5217060000000  0.5072080000000 1.0
C      1  0.5087820000000  0.5326430000000  0.4525270000000 1.0
C      1  0.4644860000000  0.5109560000000  0.5443700000000 1.0
C      1  0.5299270000000  0.5271740000000  0.4698350000000 1.0
C      1  0.4669510000000  0.5383680000000  0.4305240000000 1.0
C      1  0.5647420000000  0.4517590000000  0.4871740000000 1.0
C      1  0.5041260000000  0.4937270000000  0.5540610000000 1.0
C      1  0.4983070000000  0.4859490000000  0.4816750000000 1.0
C      1  0.4667260000000  0.5488200000000  0.4810210000000 1.0
C      1  0.4890470000000  0.5711250000000  0.4834900000000 1.0
C      1  0.5439070000000  0.4686180000000  0.5680910000000 1.0
C      1  0.5253610000000  0.4762010000000  0.4962740000000 1.0
C      1  0.5525750000000  0.5160570000000  0.4545690000000 1.0
C      1  0.5010460000000  0.4730720000000  0.4535480000000 1.0
C      1  0.5431860000000  0.4861140000000  0.5213140000000 1.0
C      1  0.4539200000000  0.4573840000000  0.4886380000000 1.0
C      1  0.4349530000000  0.5313950000000  0.5206160000000 1.0
C      1  0.4346600000000  0.4674520000000  0.4687530000000 1.0
C      1  0.4848280000000  0.4473400000000  0.4516720000000 1.0
C      1  0.5268740000000  0.4742450000000  0.5459830000000 1.0
C      1  0.5648790000000  0.5533000000000  0.4933540000000 1.0
C      1  0.5407160000000  0.4785610000000  0.4249030000000 1.0
C      1  0.5205640000000  0.4465140000000  0.5059260000000 1.0
C      1  0.5717910000000  0.5293000000000  0.5064800000000 1.0
C      1  0.5461010000000  0.5337480000000  0.5473220000000 1.0
C      1  0.5167010000000  0.5692180000000  0.4757250000000 1.0
C      1  0.4882840000000  0.4925860000000  0.4334230000000 1.0
C      1  0.5136170000000  0.5163010000000  0.5715660000000 1.0
C      1  0.4784530000000  0.4819920000000  0.5649520000000 1.0
C      1  0.5022110000000  0.5426360000000  0.5625890000000 1.0
C      1  0.4424610000000  0.4604070000000  0.5402180000000 1.0
C      1  0.4191770000000  0.4937740000000  0.4985070000000 1.0
C      1  0.4947370000000  0.4326940000000  0.4987100000000 1.0
C      1  0.4812940000000  0.5214770000000  0.4834880000000 1.0
C      1  0.5464090000000  0.5045740000000  0.4296670000000 1.0
C      1  0.4202340000000  0.5164990000000  0.4813810000000 1.0
C      1  0.5306980000000  0.4676300000000  0.4486310000000 1.0
C      1  0.4556490000000  0.5051070000000  0.4925360000000 1.0
C      1  0.4500850000000  0.5513630000000  0.5073900000000 1.0
C      1  0.4690210000000  0.4571450000000  0.5524520000000 1.0
C      1  0.4903330000000  0.5028850000000  0.5279060000000 1.0
C      1  0.4505550000000  0.5418690000000  0.4533640000000 1.0
C      1  0.4692980000000  0.5612710000000  0.5273370000000 1.0
C      1  0.4925490000000  0.5740070000000  0.5128850000000 1.0
END
