TITL C-951348-1603-575 -1.09301762731383e-06 125000 -802.594024600268 0 0 129 (C1) n - 1
REM
REM in /home/bkarasulu/work/CARBON/AIRSS/Generating-Clusters/EDIP-Nigel-Params/with-SteepDescent/Only-C1/SD-CG/HFTN-CG
REM
REM
REM
REM
REM
REM ./C.cell (11c1c37f851c82e70ff6c80c92926a4b)
REM
REM compiler GCC version 9.2.1 20190827 (Red Hat 9.2.1-1)
REM options -cpp -mtune=generic -march=x86-64 -g -O0 -fpre-include=/usr/include/finclude/math-vector-fortran.h
REM seed -1158893987 -1986289110 -721840439 -1464651057 -890221829 -1440452560 -551081364 -1537113699 304436813 325905797 2031698994 1129344268 -277461836 361472421 1570353726 -795359196 1882645521 -2047490330 -85589713 -26447297 -660892919 -2075761599 -1591421195 -525354413 1255686173 1636287533 -1295789616 250510667 -1041433675 1621376088 1354060303 766793439 1027004882
REM
CELL 1.54180   50.00000   50.00000   50.00000   90.00000   90.00000   90.00000
LATT -1
SFAC C  
C      1  0.5356710000000  0.4930120000000  0.4067730000000 1.0
C      1  0.5223900000000  0.5164090000000  0.3967070000000 1.0
C      1  0.4504950000000  0.5138930000000  0.4791010000000 1.0
C      1  0.5525470000000  0.5032320000000  0.5403300000000 1.0
C      1  0.5706450000000  0.5116420000000  0.5738880000000 1.0
C      1  0.4381270000000  0.5701340000000  0.5112170000000 1.0
C      1  0.4054030000000  0.4916430000000  0.4910490000000 1.0
C      1  0.5035600000000  0.5097710000000  0.4978820000000 1.0
C      1  0.4201890000000  0.4940270000000  0.5396950000000 1.0
C      1  0.5577420000000  0.4318250000000  0.4827140000000 1.0
C      1  0.5999050000000  0.4970910000000  0.4854480000000 1.0
C      1  0.5100250000000  0.4092450000000  0.4554210000000 1.0
C      1  0.4189190000000  0.4797470000000  0.5137260000000 1.0
C      1  0.4485500000000  0.5363290000000  0.4297980000000 1.0
C      1  0.5552020000000  0.4621990000000  0.5767550000000 1.0
C      1  0.5562860000000  0.5277270000000  0.4396770000000 1.0
C      1  0.4546780000000  0.5262700000000  0.5062800000000 1.0
C      1  0.4206930000000  0.5421940000000  0.5584520000000 1.0
C      1  0.5592590000000  0.5403580000000  0.5773150000000 1.0
C      1  0.5021260000000  0.5410220000000  0.4964740000000 1.0
C      1  0.5220600000000  0.5440890000000  0.5465830000000 1.0
C      1  0.4556760000000  0.4250020000000  0.5818400000000 1.0
C      1  0.5190840000000  0.5111980000000  0.4566910000000 1.0
C      1  0.4672670000000  0.4501750000000  0.5867420000000 1.0
C      1  0.4824710000000  0.5037740000000  0.5940220000000 1.0
C      1  0.4842710000000  0.4403920000000  0.4205090000000 1.0
C      1  0.4829390000000  0.4851090000000  0.4348740000000 1.0
C      1  0.4981970000000  0.5021400000000  0.5471300000000 1.0
C      1  0.5951150000000  0.5099290000000  0.4592840000000 1.0
C      1  0.5055810000000  0.5923110000000  0.4947880000000 1.0
C      1  0.5416910000000  0.5287360000000  0.5288910000000 1.0
C      1  0.5190590000000  0.5396640000000  0.4123370000000 1.0
C      1  0.5226350000000  0.4634460000000  0.4015620000000 1.0
C      1  0.5835240000000  0.4909040000000  0.4384680000000 1.0
C      1  0.4964320000000  0.5551780000000  0.4683500000000 1.0
C      1  0.4992810000000  0.5773750000000  0.5642220000000 1.0
C      1  0.4544390000000  0.4745660000000  0.5757100000000 1.0
C      1  0.5399280000000  0.5773720000000  0.5249340000000 1.0
C      1  0.5669500000000  0.5690370000000  0.5322970000000 1.0
C      1  0.4797040000000  0.4619590000000  0.5181370000000 1.0
C      1  0.5625250000000  0.5500720000000  0.4870540000000 1.0
C      1  0.4792750000000  0.4292000000000  0.5130110000000 1.0
C      1  0.4200920000000  0.5141950000000  0.4733260000000 1.0
C      1  0.4971110000000  0.4155670000000  0.5559220000000 1.0
C      1  0.4357420000000  0.4392900000000  0.4891460000000 1.0
C      1  0.5353700000000  0.4507440000000  0.4887400000000 1.0
C      1  0.4281570000000  0.5403620000000  0.5113700000000 1.0
C      1  0.4950000000000  0.5331250000000  0.4484610000000 1.0
C      1  0.5517760000000  0.4828390000000  0.4898080000000 1.0
C      1  0.4262040000000  0.4816860000000  0.4268620000000 1.0
C      1  0.4117350000000  0.5407320000000  0.4853810000000 1.0
C      1  0.4758630000000  0.4719600000000  0.4894490000000 1.0
C      1  0.5323260000000  0.4385400000000  0.4157460000000 1.0
C      1  0.5734060000000  0.5306570000000  0.4628190000000 1.0
C      1  0.5264830000000  0.4608810000000  0.4466870000000 1.0
C      1  0.4556680000000  0.4947990000000  0.5969730000000 1.0
C      1  0.4731250000000  0.5109510000000  0.4566800000000 1.0
C      1  0.5430830000000  0.5110350000000  0.4782960000000 1.0
C      1  0.4699100000000  0.5434450000000  0.4143010000000 1.0
C      1  0.5395430000000  0.5341350000000  0.4992330000000 1.0
C      1  0.5117410000000  0.4456290000000  0.4680880000000 1.0
C      1  0.4927760000000  0.4609250000000  0.3989720000000 1.0
C      1  0.4491930000000  0.5672440000000  0.5672900000000 1.0
C      1  0.5828800000000  0.5063470000000  0.5460220000000 1.0
C      1  0.4484450000000  0.5514050000000  0.4557600000000 1.0
C      1  0.4617960000000  0.5422340000000  0.5744390000000 1.0
C      1  0.5117950000000  0.4356630000000  0.5697230000000 1.0
C      1  0.4582200000000  0.5869470000000  0.4822550000000 1.0
C      1  0.5820890000000  0.5551490000000  0.5106770000000 1.0
C      1  0.5206460000000  0.5830050000000  0.5452120000000 1.0
C      1  0.5080680000000  0.4658180000000  0.5228370000000 1.0
C      1  0.5323110000000  0.5856290000000  0.4984810000000 1.0
C      1  0.5025650000000  0.4841450000000  0.5869790000000 1.0
C      1  0.5284540000000  0.5671530000000  0.4541180000000 1.0
C      1  0.4933030000000  0.5321780000000  0.5455650000000 1.0
C      1  0.4427170000000  0.5078360000000  0.4247020000000 1.0
C      1  0.5555250000000  0.4522380000000  0.4433760000000 1.0
C      1  0.4790570000000  0.5921880000000  0.5032790000000 1.0
C      1  0.4351070000000  0.4470240000000  0.5426830000000 1.0
C      1  0.4069460000000  0.4933610000000  0.4467190000000 1.0
C      1  0.5249740000000  0.4964430000000  0.5742220000000 1.0
C      1  0.4869510000000  0.5314550000000  0.5839020000000 1.0
C      1  0.5502270000000  0.4047800000000  0.4862060000000 1.0
C      1  0.4275460000000  0.4696910000000  0.5604810000000 1.0
C      1  0.4792570000000  0.5425650000000  0.5179010000000 1.0
C      1  0.4419930000000  0.5236380000000  0.5664460000000 1.0
C      1  0.5980200000000  0.5204370000000  0.5025110000000 1.0
C      1  0.5248670000000  0.4427050000000  0.5153710000000 1.0
C      1  0.5800260000000  0.4732730000000  0.4821300000000 1.0
C      1  0.4520530000000  0.4941830000000  0.4010640000000 1.0
C      1  0.4707360000000  0.4573030000000  0.4419510000000 1.0
C      1  0.4285200000000  0.4571580000000  0.4667930000000 1.0
C      1  0.4799380000000  0.4496250000000  0.4708250000000 1.0
C      1  0.5501560000000  0.4793000000000  0.5203510000000 1.0
C      1  0.5143140000000  0.4947660000000  0.5225960000000 1.0
C      1  0.5695470000000  0.5587310000000  0.5583370000000 1.0
C      1  0.4795540000000  0.4877510000000  0.4050540000000 1.0
C      1  0.4679660000000  0.5716390000000  0.5226020000000 1.0
C      1  0.4044460000000  0.4733560000000  0.4680950000000 1.0
C      1  0.5463360000000  0.5729250000000  0.4765900000000 1.0
C      1  0.5080660000000  0.4199110000000  0.5070050000000 1.0
C      1  0.5085660000000  0.4247330000000  0.4292360000000 1.0
C      1  0.4701230000000  0.5692970000000  0.4621990000000 1.0
C      1  0.4280400000000  0.4522560000000  0.5148990000000 1.0
C      1  0.5353150000000  0.5458100000000  0.4350730000000 1.0
C      1  0.4903380000000  0.4944790000000  0.4776470000000 1.0
C      1  0.5688870000000  0.4551100000000  0.5255640000000 1.0
C      1  0.5799690000000  0.4464670000000  0.4986090000000 1.0
C      1  0.5474790000000  0.4374900000000  0.5350890000000 1.0
C      1  0.4405970000000  0.4584910000000  0.4406740000000 1.0
C      1  0.4715900000000  0.4849380000000  0.5461110000000 1.0
C      1  0.5216920000000  0.4057930000000  0.4831970000000 1.0
C      1  0.5397410000000  0.4428600000000  0.5628330000000 1.0
C      1  0.5793090000000  0.4657870000000  0.4527370000000 1.0
C      1  0.5140770000000  0.4869600000000  0.4383360000000 1.0
C      1  0.4120300000000  0.5278910000000  0.5346590000000 1.0
C      1  0.5106330000000  0.5611900000000  0.5872160000000 1.0
C      1  0.4739480000000  0.4154800000000  0.5393250000000 1.0
C      1  0.4484130000000  0.5050300000000  0.5439950000000 1.0
C      1  0.4706980000000  0.5795790000000  0.5523070000000 1.0
C      1  0.4948580000000  0.5532700000000  0.4150860000000 1.0
C      1  0.4508130000000  0.4249330000000  0.5541090000000 1.0
C      1  0.5511890000000  0.4894550000000  0.5818680000000 1.0
C      1  0.4957160000000  0.4554820000000  0.5838720000000 1.0
C      1  0.5292410000000  0.5403400000000  0.5757360000000 1.0
C      1  0.5585790000000  0.5022880000000  0.4262420000000 1.0
C      1  0.5969820000000  0.5253040000000  0.5300820000000 1.0
C      1  0.4632950000000  0.4274120000000  0.4865440000000 1.0
C      1  0.4276450000000  0.5637810000000  0.4738030000000 1.0
END
