TITL C-950535-5962-570 -2.25629071112413e-06 125000 -877.673474514797 0 0 141 (C1) n - 1
REM
REM in /home/bkarasulu/work/CARBON/AIRSS/Generating-Clusters/EDIP-Nigel-Params/with-SteepDescent/Only-C1/SD-CG/HFTN-CG
REM
REM
REM
REM
REM
REM ./C.cell (11c1c37f851c82e70ff6c80c92926a4b)
REM
REM compiler GCC version 9.2.1 20190827 (Red Hat 9.2.1-1)
REM options -cpp -mtune=generic -march=x86-64 -g -O0 -fpre-include=/usr/include/finclude/math-vector-fortran.h
REM seed -1422446018 -1956104775 410194418 -940713683 -53966489 382378012 1112735168 -1146986317 -2004696868 151027236 -300167266 142987207 1112368864 -1947890732 -422317108 -672930946 1036566826 283717103 -580885575 -793569878 337454457 -561404788 1229124763 2044564993 -2101263547 1247347981 -138831980 -1760959483 1164876966 737485899 950147886 185660696 -1468506965
REM
CELL 1.54180   50.00000   50.00000   50.00000   90.00000   90.00000   90.00000
LATT -1
SFAC C  
C      1  0.4662190000000  0.5960840000000  0.5201130000000 1.0
C      1  0.4614350000000  0.4377400000000  0.4348320000000 1.0
C      1  0.4945370000000  0.5117090000000  0.4824160000000 1.0
C      1  0.5771670000000  0.5320060000000  0.5635070000000 1.0
C      1  0.4392950000000  0.5865460000000  0.4943390000000 1.0
C      1  0.5013210000000  0.4675450000000  0.4218980000000 1.0
C      1  0.5183020000000  0.5295050000000  0.5362060000000 1.0
C      1  0.4670630000000  0.4472840000000  0.5877490000000 1.0
C      1  0.5516750000000  0.5666770000000  0.4365540000000 1.0
C      1  0.4460820000000  0.5233640000000  0.5575220000000 1.0
C      1  0.5344890000000  0.5477590000000  0.5851190000000 1.0
C      1  0.4440470000000  0.4776170000000  0.4453520000000 1.0
C      1  0.4462600000000  0.5058640000000  0.4332930000000 1.0
C      1  0.5375560000000  0.5035120000000  0.5340020000000 1.0
C      1  0.5214240000000  0.5920330000000  0.5275160000000 1.0
C      1  0.5943560000000  0.4612250000000  0.4845890000000 1.0
C      1  0.4992800000000  0.4507470000000  0.4965530000000 1.0
C      1  0.4276580000000  0.4342570000000  0.5618910000000 1.0
C      1  0.5584400000000  0.4364370000000  0.4546650000000 1.0
C      1  0.5166760000000  0.4589750000000  0.6014560000000 1.0
C      1  0.5191500000000  0.5099260000000  0.3991350000000 1.0
C      1  0.5267040000000  0.4528050000000  0.4876000000000 1.0
C      1  0.5231770000000  0.4885100000000  0.4584100000000 1.0
C      1  0.5091990000000  0.5510050000000  0.5058780000000 1.0
C      1  0.5289320000000  0.4265130000000  0.5488160000000 1.0
C      1  0.4197720000000  0.5639640000000  0.4933620000000 1.0
C      1  0.5171110000000  0.5030990000000  0.5011370000000 1.0
C      1  0.5237810000000  0.4021410000000  0.4788230000000 1.0
C      1  0.4552480000000  0.4365330000000  0.5198260000000 1.0
C      1  0.5093250000000  0.4264600000000  0.4444060000000 1.0
C      1  0.5732810000000  0.4662210000000  0.5285110000000 1.0
C      1  0.5242670000000  0.5056660000000  0.5908870000000 1.0
C      1  0.5309680000000  0.4825100000000  0.6062470000000 1.0
C      1  0.4893750000000  0.5275990000000  0.5476920000000 1.0
C      1  0.4975520000000  0.5298260000000  0.4083590000000 1.0
C      1  0.4632250000000  0.4748950000000  0.4005310000000 1.0
C      1  0.4723400000000  0.5432170000000  0.5280830000000 1.0
C      1  0.6072010000000  0.4856290000000  0.4917800000000 1.0
C      1  0.4463430000000  0.5117110000000  0.4930370000000 1.0
C      1  0.4503910000000  0.5330080000000  0.4718940000000 1.0
C      1  0.4469050000000  0.5289110000000  0.5193970000000 1.0
C      1  0.4226690000000  0.5463210000000  0.5187600000000 1.0
C      1  0.5128500000000  0.5564570000000  0.4051760000000 1.0
C      1  0.4932820000000  0.5422380000000  0.4826070000000 1.0
C      1  0.5551290000000  0.4145540000000  0.4761930000000 1.0
C      1  0.5158430000000  0.4037600000000  0.5069410000000 1.0
C      1  0.4561820000000  0.5469810000000  0.5747380000000 1.0
C      1  0.4556690000000  0.5019950000000  0.4058410000000 1.0
C      1  0.5796230000000  0.4838280000000  0.5709530000000 1.0
C      1  0.5182540000000  0.4797590000000  0.3980300000000 1.0
C      1  0.5266320000000  0.5636880000000  0.5624970000000 1.0
C      1  0.4685500000000  0.5280790000000  0.3981810000000 1.0
C      1  0.5881540000000  0.5131320000000  0.5249280000000 1.0
C      1  0.5138960000000  0.5807170000000  0.5013200000000 1.0
C      1  0.4034720000000  0.5200700000000  0.4539050000000 1.0
C      1  0.4709370000000  0.5740260000000  0.4149870000000 1.0
C      1  0.5751170000000  0.4630750000000  0.4612860000000 1.0
C      1  0.4948460000000  0.5301490000000  0.4395220000000 1.0
C      1  0.4493280000000  0.4607640000000  0.4215080000000 1.0
C      1  0.4209290000000  0.5218810000000  0.4310960000000 1.0
C      1  0.4861930000000  0.5943380000000  0.4949100000000 1.0
C      1  0.4255020000000  0.5484430000000  0.4654510000000 1.0
C      1  0.5466420000000  0.4731990000000  0.4072240000000 1.0
C      1  0.5675170000000  0.5125510000000  0.4671710000000 1.0
C      1  0.5416980000000  0.5754530000000  0.5404800000000 1.0
C      1  0.4596080000000  0.4938150000000  0.5914870000000 1.0
C      1  0.4662920000000  0.5212220000000  0.4492570000000 1.0
C      1  0.5268110000000  0.4683520000000  0.4390440000000 1.0
C      1  0.5000910000000  0.5741190000000  0.5668920000000 1.0
C      1  0.5584660000000  0.5591460000000  0.5226520000000 1.0
C      1  0.4873580000000  0.4049670000000  0.5118230000000 1.0
C      1  0.4234660000000  0.4627350000000  0.5714870000000 1.0
C      1  0.6048100000000  0.5129440000000  0.4993030000000 1.0
C      1  0.4265860000000  0.4344380000000  0.5319310000000 1.0
C      1  0.4211820000000  0.4496680000000  0.4748460000000 1.0
C      1  0.4210120000000  0.4953560000000  0.4923500000000 1.0
C      1  0.4978390000000  0.5748380000000  0.4228010000000 1.0
C      1  0.5024270000000  0.5595190000000  0.4485140000000 1.0
C      1  0.5537990000000  0.5273250000000  0.5799350000000 1.0
C      1  0.5323940000000  0.4828370000000  0.4850010000000 1.0
C      1  0.4028690000000  0.5303890000000  0.5312610000000 1.0
C      1  0.5835340000000  0.4606820000000  0.5549710000000 1.0
C      1  0.5421270000000  0.5193600000000  0.4150780000000 1.0
C      1  0.4639680000000  0.5797850000000  0.4804310000000 1.0
C      1  0.5437010000000  0.4699080000000  0.5722860000000 1.0
C      1  0.4664130000000  0.4720150000000  0.4669310000000 1.0
C      1  0.5803320000000  0.4473170000000  0.5073620000000 1.0
C      1  0.4887420000000  0.4620980000000  0.6021560000000 1.0
C      1  0.5612310000000  0.4893990000000  0.4871450000000 1.0
C      1  0.5100040000000  0.5323330000000  0.5940440000000 1.0
C      1  0.4996270000000  0.4103250000000  0.4643550000000 1.0
C      1  0.4818280000000  0.4888860000000  0.6082330000000 1.0
C      1  0.4619740000000  0.4246030000000  0.4895900000000 1.0
C      1  0.4538330000000  0.4249590000000  0.5724340000000 1.0
C      1  0.5195530000000  0.5161030000000  0.4524710000000 1.0
C      1  0.4180180000000  0.5133850000000  0.5484390000000 1.0
C      1  0.4513610000000  0.4774970000000  0.5477930000000 1.0
C      1  0.5371880000000  0.5796910000000  0.4818670000000 1.0
C      1  0.4161530000000  0.4711620000000  0.4550040000000 1.0
C      1  0.4662180000000  0.5709190000000  0.5392110000000 1.0
C      1  0.5604000000000  0.5654990000000  0.4940180000000 1.0
C      1  0.4817890000000  0.4438580000000  0.4739620000000 1.0
C      1  0.5753140000000  0.4355810000000  0.5654250000000 1.0
C      1  0.5272310000000  0.4809300000000  0.5496780000000 1.0
C      1  0.5329770000000  0.5312070000000  0.4998220000000 1.0
C      1  0.4966920000000  0.5937970000000  0.5444180000000 1.0
C      1  0.5918280000000  0.5275870000000  0.4761650000000 1.0
C      1  0.4538580000000  0.5522220000000  0.4099420000000 1.0
C      1  0.4485700000000  0.5710800000000  0.5625320000000 1.0
C      1  0.4671430000000  0.5517990000000  0.4852410000000 1.0
C      1  0.4135820000000  0.4603160000000  0.5238510000000 1.0
C      1  0.5473280000000  0.4396340000000  0.5687630000000 1.0
C      1  0.5603830000000  0.4962440000000  0.4185880000000 1.0
C      1  0.5296190000000  0.4444050000000  0.4557060000000 1.0
C      1  0.5770780000000  0.5403220000000  0.5346410000000 1.0
C      1  0.4206900000000  0.4813620000000  0.5457530000000 1.0
C      1  0.5772920000000  0.5635770000000  0.4480900000000 1.0
C      1  0.4876790000000  0.5451840000000  0.5736170000000 1.0
C      1  0.5310720000000  0.4274900000000  0.5167280000000 1.0
C      1  0.5825360000000  0.5565500000000  0.4752800000000 1.0
C      1  0.5925390000000  0.5071070000000  0.5598460000000 1.0
C      1  0.4601660000000  0.4664020000000  0.5207370000000 1.0
C      1  0.4037800000000  0.4948380000000  0.4685260000000 1.0
C      1  0.4461230000000  0.4675780000000  0.5908010000000 1.0
C      1  0.5737690000000  0.4918020000000  0.4449250000000 1.0
C      1  0.5419380000000  0.5498080000000  0.4134810000000 1.0
C      1  0.5656240000000  0.4939110000000  0.5184610000000 1.0
C      1  0.4707300000000  0.4934090000000  0.4882080000000 1.0
C      1  0.5036700000000  0.4666690000000  0.5404470000000 1.0
C      1  0.4421840000000  0.4305060000000  0.4659840000000 1.0
C      1  0.5015000000000  0.4384280000000  0.5482220000000 1.0
C      1  0.5396480000000  0.5323260000000  0.4686190000000 1.0
C      1  0.5585600000000  0.4269490000000  0.5028750000000 1.0
C      1  0.4648390000000  0.5005610000000  0.5624730000000 1.0
C      1  0.4900720000000  0.4403850000000  0.4275380000000 1.0
C      1  0.4275930000000  0.4674660000000  0.4988970000000 1.0
C      1  0.4782870000000  0.4212010000000  0.5354360000000 1.0
C      1  0.4667910000000  0.4051820000000  0.5568630000000 1.0
C      1  0.5323910000000  0.5613190000000  0.4582890000000 1.0
C      1  0.4301040000000  0.5488830000000  0.4270030000000 1.0
C      1  0.4893730000000  0.4720320000000  0.5146740000000 1.0
END
