TITL C-950522-5749-501 -1.94230434203407e-06 125000 -514.579436393853 0 0 85 (C1) n - 1
REM
REM in /home/bkarasulu/work/CARBON/AIRSS/Generating-Clusters/EDIP-Nigel-Params/with-SteepDescent/Only-C1/SD-CG/HFTN-CG
REM
REM
REM
REM
REM
REM ./C.cell (11c1c37f851c82e70ff6c80c92926a4b)
REM
REM compiler GCC version 9.2.1 20190827 (Red Hat 9.2.1-1)
REM options -cpp -mtune=generic -march=x86-64 -g -O0 -fpre-include=/usr/include/finclude/math-vector-fortran.h
REM seed -659566634 -2062233170 936860307 -543567045 66100584 -1445788423 1325514375 1422349023 1259556574 1585783596 229787783 1708833397 -1128096281 2010926895 1977410198 -40901625 -876065408 -1178381276 191512048 274337803 -460630695 653507512 471447091 -133672164 1247134506 2082393046 1316547435 -2130923312 -1440883396 -1429390775 -564848314 -420395980 1458590737
REM
CELL 1.54180   50.00000   50.00000   50.00000   90.00000   90.00000   90.00000
LATT -1
SFAC C  
C      1  0.4997160000000  0.5268490000000  0.5545980000000 1.0
C      1  0.4937670000000  0.5834060000000  0.5154780000000 1.0
C      1  0.4578070000000  0.4213080000000  0.5014530000000 1.0
C      1  0.5385650000000  0.4315720000000  0.4720510000000 1.0
C      1  0.5468590000000  0.4840520000000  0.5417840000000 1.0
C      1  0.5786350000000  0.4810940000000  0.5109380000000 1.0
C      1  0.5078680000000  0.4360100000000  0.4368800000000 1.0
C      1  0.4656230000000  0.4605720000000  0.4278210000000 1.0
C      1  0.4869830000000  0.4576380000000  0.4930860000000 1.0
C      1  0.5215530000000  0.5817660000000  0.4732150000000 1.0
C      1  0.5724830000000  0.5562210000000  0.4528970000000 1.0
C      1  0.5460220000000  0.4677550000000  0.4388090000000 1.0
C      1  0.5355920000000  0.4423550000000  0.4450270000000 1.0
C      1  0.5286120000000  0.5289840000000  0.5350770000000 1.0
C      1  0.5071200000000  0.5073040000000  0.5785000000000 1.0
C      1  0.5192990000000  0.5827640000000  0.5033170000000 1.0
C      1  0.5328480000000  0.5020140000000  0.5877720000000 1.0
C      1  0.5571070000000  0.5518270000000  0.5013680000000 1.0
C      1  0.4846960000000  0.4346880000000  0.5671970000000 1.0
C      1  0.4748070000000  0.5663680000000  0.4792530000000 1.0
C      1  0.4808360000000  0.4803600000000  0.5306330000000 1.0
C      1  0.5416410000000  0.5044780000000  0.5195170000000 1.0
C      1  0.4732670000000  0.5147580000000  0.4968800000000 1.0
C      1  0.5729410000000  0.4619090000000  0.4917980000000 1.0
C      1  0.4397900000000  0.4781480000000  0.5145010000000 1.0
C      1  0.4949470000000  0.5519770000000  0.4393250000000 1.0
C      1  0.4679680000000  0.4378100000000  0.4804320000000 1.0
C      1  0.4880120000000  0.4571960000000  0.4458010000000 1.0
C      1  0.5264380000000  0.4578650000000  0.5380990000000 1.0
C      1  0.5155050000000  0.4158450000000  0.4807720000000 1.0
C      1  0.5626770000000  0.5272860000000  0.4884380000000 1.0
C      1  0.4289320000000  0.5433820000000  0.5078980000000 1.0
C      1  0.4321870000000  0.5394650000000  0.4768320000000 1.0
C      1  0.4678940000000  0.5412550000000  0.4391450000000 1.0
C      1  0.5186360000000  0.5417710000000  0.4262190000000 1.0
C      1  0.4893540000000  0.4835170000000  0.5781620000000 1.0
C      1  0.4997510000000  0.4552440000000  0.5816140000000 1.0
C      1  0.5494820000000  0.4473050000000  0.4935680000000 1.0
C      1  0.4425660000000  0.4553920000000  0.4693880000000 1.0
C      1  0.5174890000000  0.5209560000000  0.4079860000000 1.0
C      1  0.4687560000000  0.4875070000000  0.5570970000000 1.0
C      1  0.5772550000000  0.5087840000000  0.5044190000000 1.0
C      1  0.5176260000000  0.5016250000000  0.5023270000000 1.0
C      1  0.4526260000000  0.5010780000000  0.4509850000000 1.0
C      1  0.4476630000000  0.5325750000000  0.5461460000000 1.0
C      1  0.4960800000000  0.4565800000000  0.5238510000000 1.0
C      1  0.5480240000000  0.5682650000000  0.4612640000000 1.0
C      1  0.4411800000000  0.4789930000000  0.5622610000000 1.0
C      1  0.5218200000000  0.4461360000000  0.5647030000000 1.0
C      1  0.4959160000000  0.5735110000000  0.4595600000000 1.0
C      1  0.4705940000000  0.5166860000000  0.5539060000000 1.0
C      1  0.5292840000000  0.4967330000000  0.4051760000000 1.0
C      1  0.4541420000000  0.5527580000000  0.5262880000000 1.0
C      1  0.5493550000000  0.5039600000000  0.5654960000000 1.0
C      1  0.5380770000000  0.4378800000000  0.5185690000000 1.0
C      1  0.5187760000000  0.5722540000000  0.5604060000000 1.0
C      1  0.5456190000000  0.4930240000000  0.4275210000000 1.0
C      1  0.4867080000000  0.5434260000000  0.4978620000000 1.0
C      1  0.4279370000000  0.5129440000000  0.4641400000000 1.0
C      1  0.5738420000000  0.4740930000000  0.5375900000000 1.0
C      1  0.4917090000000  0.4215660000000  0.4614670000000 1.0
C      1  0.4792490000000  0.5675060000000  0.5340370000000 1.0
C      1  0.4575590000000  0.4253260000000  0.5280770000000 1.0
C      1  0.4240210000000  0.5174670000000  0.5370470000000 1.0
C      1  0.5172990000000  0.4189220000000  0.5104480000000 1.0
C      1  0.4921220000000  0.5038870000000  0.5173620000000 1.0
C      1  0.5508810000000  0.5314090000000  0.5554910000000 1.0
C      1  0.4264250000000  0.4871000000000  0.5396270000000 1.0
C      1  0.5276440000000  0.5441900000000  0.4674130000000 1.0
C      1  0.5678070000000  0.5287410000000  0.4592390000000 1.0
C      1  0.4256420000000  0.4699440000000  0.4898640000000 1.0
C      1  0.5006580000000  0.4078800000000  0.5302870000000 1.0
C      1  0.4952730000000  0.5573680000000  0.5570270000000 1.0
C      1  0.4588920000000  0.5171710000000  0.4273740000000 1.0
C      1  0.4539140000000  0.5533560000000  0.4623770000000 1.0
C      1  0.4932530000000  0.4758610000000  0.4703730000000 1.0
C      1  0.5421570000000  0.5675920000000  0.5460200000000 1.0
C      1  0.4142350000000  0.4934530000000  0.4788630000000 1.0
C      1  0.4465430000000  0.4718530000000  0.4446480000000 1.0
C      1  0.5443480000000  0.5180880000000  0.4433300000000 1.0
C      1  0.5179730000000  0.5350820000000  0.4970230000000 1.0
C      1  0.4841570000000  0.4308270000000  0.5376770000000 1.0
C      1  0.4771850000000  0.5010750000000  0.4700710000000 1.0
C      1  0.5397510000000  0.5673960000000  0.5170150000000 1.0
C      1  0.4437500000000  0.5076600000000  0.5047530000000 1.0
END
