TITL C-950534-5965-571 -3.80624595328789e-06 125000 -605.847835463029 0 0 98 (C1) n - 1
REM
REM in /home/bkarasulu/work/CARBON/AIRSS/Generating-Clusters/EDIP-Nigel-Params/with-SteepDescent/Only-C1/SD-CG/HFTN-CG
REM
REM
REM
REM
REM
REM ./C.cell (11c1c37f851c82e70ff6c80c92926a4b)
REM
REM compiler GCC version 9.2.1 20190827 (Red Hat 9.2.1-1)
REM options -cpp -mtune=generic -march=x86-64 -g -O0 -fpre-include=/usr/include/finclude/math-vector-fortran.h
REM seed 593733070 -571766481 -1035522471 2109563915 987812300 -1110053965 219197081 -1893675242 -771376504 -1726211789 -286065404 415964436 -672049434 -2083040003 -1872012912 1698902548 -1524547598 -339722781 152975583 2105873690 314983433 -1672098276 -516680921 -1129214515 -864725853 -2091674064 -1948266307 -751083425 -689006916 -15502631 437941019 828737925 -1459159474
REM
CELL 1.54180   50.00000   50.00000   50.00000   90.00000   90.00000   90.00000
LATT -1
SFAC C  
C      1  0.5196860000000  0.4791190000000  0.4140930000000 1.0
C      1  0.4499110000000  0.4579930000000  0.5170000000000 1.0
C      1  0.4870430000000  0.4440720000000  0.4455470000000 1.0
C      1  0.4752830000000  0.5687610000000  0.4700010000000 1.0
C      1  0.5381410000000  0.4465940000000  0.5488550000000 1.0
C      1  0.4583300000000  0.5578520000000  0.5160970000000 1.0
C      1  0.5586360000000  0.4500610000000  0.5268280000000 1.0
C      1  0.4647920000000  0.5576810000000  0.5600260000000 1.0
C      1  0.5608070000000  0.4696660000000  0.4413910000000 1.0
C      1  0.5447900000000  0.4982470000000  0.5251030000000 1.0
C      1  0.5736230000000  0.4402360000000  0.4624620000000 1.0
C      1  0.5288400000000  0.5775560000000  0.4649780000000 1.0
C      1  0.5979290000000  0.5205890000000  0.5067380000000 1.0
C      1  0.5698680000000  0.5019440000000  0.5434150000000 1.0
C      1  0.5191830000000  0.4991570000000  0.5422130000000 1.0
C      1  0.5173330000000  0.5741600000000  0.5525270000000 1.0
C      1  0.5319280000000  0.4643790000000  0.4344000000000 1.0
C      1  0.4621410000000  0.4584300000000  0.4375280000000 1.0
C      1  0.5375450000000  0.5216440000000  0.5071530000000 1.0
C      1  0.4222900000000  0.5210030000000  0.4476330000000 1.0
C      1  0.4571600000000  0.4647020000000  0.5618350000000 1.0
C      1  0.5787830000000  0.5288520000000  0.4878370000000 1.0
C      1  0.5689670000000  0.5456350000000  0.5358810000000 1.0
C      1  0.5293650000000  0.4950360000000  0.5702470000000 1.0
C      1  0.5201410000000  0.4257830000000  0.5401540000000 1.0
C      1  0.4172620000000  0.4724460000000  0.4537210000000 1.0
C      1  0.5848470000000  0.4637170000000  0.4716190000000 1.0
C      1  0.5631080000000  0.5059480000000  0.4740460000000 1.0
C      1  0.5026710000000  0.5468960000000  0.4865330000000 1.0
C      1  0.5365630000000  0.5236470000000  0.4126610000000 1.0
C      1  0.4753720000000  0.4524430000000  0.4811250000000 1.0
C      1  0.4938530000000  0.5231170000000  0.5021040000000 1.0
C      1  0.4958690000000  0.4796430000000  0.5372680000000 1.0
C      1  0.4641950000000  0.5305480000000  0.5012270000000 1.0
C      1  0.4467470000000  0.4414700000000  0.4756890000000 1.0
C      1  0.4365410000000  0.5202560000000  0.5566440000000 1.0
C      1  0.5534950000000  0.4280950000000  0.4792060000000 1.0
C      1  0.5119810000000  0.4872270000000  0.4838780000000 1.0
C      1  0.5076880000000  0.5273240000000  0.5382350000000 1.0
C      1  0.4876030000000  0.4033620000000  0.4936150000000 1.0
C      1  0.5575910000000  0.4243730000000  0.5096500000000 1.0
C      1  0.4291810000000  0.4947390000000  0.4388130000000 1.0
C      1  0.4810740000000  0.5736440000000  0.5233210000000 1.0
C      1  0.5005800000000  0.5846060000000  0.4657440000000 1.0
C      1  0.4621680000000  0.5165420000000  0.5761270000000 1.0
C      1  0.5507550000000  0.5386060000000  0.5597620000000 1.0
C      1  0.5226530000000  0.4631420000000  0.4974100000000 1.0
C      1  0.5677030000000  0.4990400000000  0.4450920000000 1.0
C      1  0.5496240000000  0.4723230000000  0.5089480000000 1.0
C      1  0.4820580000000  0.4844110000000  0.4846740000000 1.0
C      1  0.5079070000000  0.5778570000000  0.5266900000000 1.0
C      1  0.5317750000000  0.5111040000000  0.4800160000000 1.0
C      1  0.4192680000000  0.5382220000000  0.5014980000000 1.0
C      1  0.4161430000000  0.4934600000000  0.4870200000000 1.0
C      1  0.5202960000000  0.5622890000000  0.5057330000000 1.0
C      1  0.5698410000000  0.4810430000000  0.4882950000000 1.0
C      1  0.4582140000000  0.4883760000000  0.4365440000000 1.0
C      1  0.4746050000000  0.4944800000000  0.5194630000000 1.0
C      1  0.4080950000000  0.4666640000000  0.4907590000000 1.0
C      1  0.4826910000000  0.4960290000000  0.5827160000000 1.0
C      1  0.4652970000000  0.5529630000000  0.4468110000000 1.0
C      1  0.4703280000000  0.5025960000000  0.4615470000000 1.0
C      1  0.5053200000000  0.5379320000000  0.5841610000000 1.0
C      1  0.4678180000000  0.4980630000000  0.4111750000000 1.0
C      1  0.5559520000000  0.5101880000000  0.5683530000000 1.0
C      1  0.5280840000000  0.4640930000000  0.5710920000000 1.0
C      1  0.4402020000000  0.5481970000000  0.5481910000000 1.0
C      1  0.4767460000000  0.5262800000000  0.5411380000000 1.0
C      1  0.5133190000000  0.4142370000000  0.4926890000000 1.0
C      1  0.4419140000000  0.4733490000000  0.5399350000000 1.0
C      1  0.5025970000000  0.4539000000000  0.5787400000000 1.0
C      1  0.5588300000000  0.5430410000000  0.5061300000000 1.0
C      1  0.4366300000000  0.4498640000000  0.4498930000000 1.0
C      1  0.4201880000000  0.5110900000000  0.5095650000000 1.0
C      1  0.4293830000000  0.4487250000000  0.4983270000000 1.0
C      1  0.4771310000000  0.4431500000000  0.5111760000000 1.0
C      1  0.5886710000000  0.5234160000000  0.5334970000000 1.0
C      1  0.5207670000000  0.5461330000000  0.5590010000000 1.0
C      1  0.5041150000000  0.4544810000000  0.5217660000000 1.0
C      1  0.4843310000000  0.4724840000000  0.5654670000000 1.0
C      1  0.4361480000000  0.5465240000000  0.4541510000000 1.0
C      1  0.4283330000000  0.5567700000000  0.4816590000000 1.0
C      1  0.4834680000000  0.5316780000000  0.4400440000000 1.0
C      1  0.4486380000000  0.5176200000000  0.4764780000000 1.0
C      1  0.4516750000000  0.5717880000000  0.4903150000000 1.0
C      1  0.5423220000000  0.5745290000000  0.4913050000000 1.0
C      1  0.5307140000000  0.4115400000000  0.5169570000000 1.0
C      1  0.5252090000000  0.4383520000000  0.4779550000000 1.0
C      1  0.5156820000000  0.4458060000000  0.4500270000000 1.0
C      1  0.4742520000000  0.4144650000000  0.5140520000000 1.0
C      1  0.4877350000000  0.5166550000000  0.4158710000000 1.0
C      1  0.4343500000000  0.5016070000000  0.5342510000000 1.0
C      1  0.5341890000000  0.5535650000000  0.4507020000000 1.0
C      1  0.5086420000000  0.5083580000000  0.5880180000000 1.0
C      1  0.5147100000000  0.5064490000000  0.4105550000000 1.0
C      1  0.5590200000000  0.5168890000000  0.4257310000000 1.0
C      1  0.4753970000000  0.5427050000000  0.5821460000000 1.0
C      1  0.5193630000000  0.5342750000000  0.4653390000000 1.0
END
