TITL C-951343-2256-735 2.00816923143419e-05 125000 -511.547813309481 0 0 83 (C1) n - 1
REM
REM in /home/bkarasulu/work/CARBON/AIRSS/Generating-Clusters/EDIP-Nigel-Params/with-SteepDescent/Only-C1/SD-CG/HFTN-CG
REM
REM
REM
REM
REM
REM ./C.cell (11c1c37f851c82e70ff6c80c92926a4b)
REM
REM compiler GCC version 9.2.1 20190827 (Red Hat 9.2.1-1)
REM options -cpp -mtune=generic -march=x86-64 -g -O0 -fpre-include=/usr/include/finclude/math-vector-fortran.h
REM seed -76843351 -1199241097 1962541357 1921600347 1447485048 -677258057 40356154 458907855 -383589420 2076023016 584171945 -1909528154 -1828697141 -1871707145 1876313073 -1949641236 -986309975 1268290971 2043855437 1350754658 471756437 1770144344 -1527335140 -664082352 -289799375 -867527651 -543340107 1636923576 -990863487 -543491866 1329475871 2078810079 1932079535
REM
CELL 1.54180   50.00000   50.00000   50.00000   90.00000   90.00000   90.00000
LATT -1
SFAC C  
C      1  0.4745110000000  0.5000450000000  0.5605330000000 1.0
C      1  0.4225740000000  0.4810700000000  0.4602880000000 1.0
C      1  0.5009200000000  0.4583550000000  0.4748850000000 1.0
C      1  0.4741900000000  0.4961820000000  0.5063040000000 1.0
C      1  0.5703880000000  0.4629020000000  0.5117790000000 1.0
C      1  0.5557610000000  0.4905410000000  0.5523460000000 1.0
C      1  0.5676240000000  0.5225230000000  0.4695770000000 1.0
C      1  0.5818740000000  0.5369630000000  0.5143530000000 1.0
C      1  0.5443500000000  0.5627540000000  0.4926610000000 1.0
C      1  0.4369670000000  0.5259420000000  0.4385850000000 1.0
C      1  0.4990820000000  0.5659630000000  0.4309700000000 1.0
C      1  0.5713360000000  0.5547710000000  0.4963250000000 1.0
C      1  0.5038980000000  0.4956380000000  0.4112900000000 1.0
C      1  0.4643430000000  0.5744550000000  0.5221500000000 1.0
C      1  0.4164890000000  0.4918760000000  0.4863680000000 1.0
C      1  0.5128290000000  0.4712420000000  0.4276280000000 1.0
C      1  0.5700630000000  0.4650830000000  0.5507200000000 1.0
C      1  0.5231640000000  0.4661310000000  0.5202380000000 1.0
C      1  0.4900300000000  0.4226050000000  0.4863360000000 1.0
C      1  0.5008110000000  0.5147010000000  0.5659930000000 1.0
C      1  0.5463770000000  0.4472030000000  0.5175890000000 1.0
C      1  0.4941900000000  0.5442610000000  0.5674950000000 1.0
C      1  0.5552730000000  0.5061170000000  0.4905800000000 1.0
C      1  0.4290550000000  0.5163610000000  0.4940850000000 1.0
C      1  0.5363000000000  0.4241470000000  0.5011040000000 1.0
C      1  0.5251160000000  0.4409100000000  0.5588750000000 1.0
C      1  0.4663780000000  0.5467030000000  0.5566310000000 1.0
C      1  0.4701750000000  0.5101400000000  0.4786700000000 1.0
C      1  0.4316120000000  0.5151160000000  0.5331960000000 1.0
C      1  0.5437140000000  0.5476230000000  0.5572780000000 1.0
C      1  0.5065740000000  0.5308240000000  0.4975320000000 1.0
C      1  0.4899530000000  0.5844880000000  0.5221910000000 1.0
C      1  0.4736190000000  0.4707080000000  0.5603540000000 1.0
C      1  0.5615580000000  0.5179350000000  0.5183090000000 1.0
C      1  0.4765340000000  0.5057970000000  0.4247600000000 1.0
C      1  0.4572300000000  0.4781070000000  0.5259290000000 1.0
C      1  0.5526860000000  0.4407640000000  0.5461730000000 1.0
C      1  0.5038740000000  0.4369030000000  0.5366640000000 1.0
C      1  0.5507680000000  0.5378790000000  0.4526980000000 1.0
C      1  0.4323410000000  0.5417840000000  0.5052110000000 1.0
C      1  0.4539650000000  0.5708940000000  0.5481940000000 1.0
C      1  0.5431390000000  0.5283180000000  0.4274890000000 1.0
C      1  0.4589440000000  0.5521140000000  0.5039000000000 1.0
C      1  0.4956600000000  0.5129200000000  0.5177640000000 1.0
C      1  0.5253370000000  0.5511100000000  0.5125020000000 1.0
C      1  0.4546070000000  0.4842290000000  0.4235220000000 1.0
C      1  0.5380390000000  0.5313180000000  0.5324720000000 1.0
C      1  0.4783380000000  0.5520050000000  0.4427280000000 1.0
C      1  0.4550210000000  0.4371690000000  0.5312000000000 1.0
C      1  0.4289950000000  0.4856810000000  0.5309690000000 1.0
C      1  0.5170370000000  0.5625930000000  0.5583690000000 1.0
C      1  0.5346210000000  0.5577060000000  0.4658300000000 1.0
C      1  0.5134970000000  0.5722880000000  0.5300280000000 1.0
C      1  0.4172850000000  0.4728990000000  0.5076420000000 1.0
C      1  0.5442440000000  0.4625420000000  0.4688550000000 1.0
C      1  0.4913710000000  0.4702720000000  0.4492020000000 1.0
C      1  0.5277560000000  0.4840570000000  0.5437930000000 1.0
C      1  0.5097100000000  0.4244520000000  0.4630250000000 1.0
C      1  0.4768930000000  0.4448970000000  0.5467180000000 1.0
C      1  0.5364980000000  0.4327420000000  0.4723130000000 1.0
C      1  0.4326100000000  0.4976700000000  0.4380360000000 1.0
C      1  0.4658250000000  0.4599640000000  0.4378300000000 1.0
C      1  0.4539550000000  0.5203030000000  0.5530120000000 1.0
C      1  0.5525120000000  0.5326870000000  0.5792890000000 1.0
C      1  0.5356290000000  0.4794340000000  0.4451740000000 1.0
C      1  0.4627360000000  0.5323900000000  0.4286790000000 1.0
C      1  0.4449210000000  0.4463310000000  0.5064310000000 1.0
C      1  0.5635440000000  0.4768220000000  0.4873980000000 1.0
C      1  0.5238450000000  0.5154990000000  0.4130330000000 1.0
C      1  0.4495260000000  0.4459300000000  0.4579050000000 1.0
C      1  0.4788820000000  0.5389800000000  0.4848450000000 1.0
C      1  0.5205270000000  0.5060230000000  0.4536650000000 1.0
C      1  0.5102610000000  0.5695480000000  0.4559440000000 1.0
C      1  0.5244250000000  0.5062410000000  0.4844370000000 1.0
C      1  0.5198470000000  0.5016090000000  0.5858910000000 1.0
C      1  0.4632070000000  0.4403350000000  0.4837520000000 1.0
C      1  0.4220970000000  0.4530510000000  0.4575490000000 1.0
C      1  0.5079990000000  0.4198770000000  0.5110700000000 1.0
C      1  0.5486410000000  0.5048280000000  0.5790900000000 1.0
C      1  0.4881810000000  0.5006530000000  0.4536180000000 1.0
C      1  0.5151890000000  0.5108290000000  0.5397700000000 1.0
C      1  0.5173630000000  0.4684120000000  0.5674000000000 1.0
C      1  0.5127900000000  0.4788620000000  0.4950140000000 1.0
END
