TITL C-951335-1172-13 -3.1166802993881e-06 125000 -811.410577144918 0 0 130 (C1) n - 1
REM
REM in /home/bkarasulu/work/CARBON/AIRSS/Generating-Clusters/EDIP-Nigel-Params/with-SteepDescent/Only-C1/SD-CG/HFTN-CG
REM
REM
REM
REM
REM
REM ./C.cell (11c1c37f851c82e70ff6c80c92926a4b)
REM
REM compiler GCC version 9.2.1 20190827 (Red Hat 9.2.1-1)
REM options -cpp -mtune=generic -march=x86-64 -g -O0 -fpre-include=/usr/include/finclude/math-vector-fortran.h
REM seed 1689952052 2091182080 734703016 1399311801 589841578 697181097 -1611406294 -1129696501 -525855851 -987597451 -1362217953 -1249726884 -317741749 -1085482854 -1370285243 888370548 -796412853 -2088886467 -588290816 -1126643326 550960519 -2097052636 1726362222 963653864 -224838496 -799209686 1579658143 775189803 495971292 1275230536 -313050311 1493065159 872671734
REM
CELL 1.54180   50.00000   50.00000   50.00000   90.00000   90.00000   90.00000
LATT -1
SFAC C  
C      1  0.5754130000000  0.4814140000000  0.4385220000000 1.0
C      1  0.5505330000000  0.5166570000000  0.4604730000000 1.0
C      1  0.4603690000000  0.4178350000000  0.5294510000000 1.0
C      1  0.5313870000000  0.3943020000000  0.5209930000000 1.0
C      1  0.5988890000000  0.4958550000000  0.4802610000000 1.0
C      1  0.5984840000000  0.4806480000000  0.5062550000000 1.0
C      1  0.5322160000000  0.5816210000000  0.5005090000000 1.0
C      1  0.5412300000000  0.5854910000000  0.5277490000000 1.0
C      1  0.5524400000000  0.4919450000000  0.4796120000000 1.0
C      1  0.4510610000000  0.5354400000000  0.4788560000000 1.0
C      1  0.5440930000000  0.5299790000000  0.5410400000000 1.0
C      1  0.5677490000000  0.4516720000000  0.5379750000000 1.0
C      1  0.4180980000000  0.5131210000000  0.4589430000000 1.0
C      1  0.4279260000000  0.4360630000000  0.5027180000000 1.0
C      1  0.5712540000000  0.4363640000000  0.4770040000000 1.0
C      1  0.5301150000000  0.5953310000000  0.4552310000000 1.0
C      1  0.4612670000000  0.5317990000000  0.4365700000000 1.0
C      1  0.4471460000000  0.4725340000000  0.4878910000000 1.0
C      1  0.5057600000000  0.4664370000000  0.4656860000000 1.0
C      1  0.5094390000000  0.5076780000000  0.5197310000000 1.0
C      1  0.4980640000000  0.4181990000000  0.5586390000000 1.0
C      1  0.5216570000000  0.5273460000000  0.4532950000000 1.0
C      1  0.4589650000000  0.4434010000000  0.5471230000000 1.0
C      1  0.5831850000000  0.5016810000000  0.5268380000000 1.0
C      1  0.5324670000000  0.5414030000000  0.5927510000000 1.0
C      1  0.5177830000000  0.5885370000000  0.5455740000000 1.0
C      1  0.5770570000000  0.4786940000000  0.4683270000000 1.0
C      1  0.5217090000000  0.4120220000000  0.4669840000000 1.0
C      1  0.4926080000000  0.4803300000000  0.5499410000000 1.0
C      1  0.5889760000000  0.5304590000000  0.5242420000000 1.0
C      1  0.4209170000000  0.4650770000000  0.5463040000000 1.0
C      1  0.4311980000000  0.4490250000000  0.4539310000000 1.0
C      1  0.5796670000000  0.4778600000000  0.5755670000000 1.0
C      1  0.4656590000000  0.5545980000000  0.5586490000000 1.0
C      1  0.4776990000000  0.4363460000000  0.5703160000000 1.0
C      1  0.4389730000000  0.4825820000000  0.4164060000000 1.0
C      1  0.5118560000000  0.4651850000000  0.4140330000000 1.0
C      1  0.5363410000000  0.5140740000000  0.5873010000000 1.0
C      1  0.4926640000000  0.5914510000000  0.5312870000000 1.0
C      1  0.4777890000000  0.4350370000000  0.4306320000000 1.0
C      1  0.4811850000000  0.5165440000000  0.4776610000000 1.0
C      1  0.4748510000000  0.4694070000000  0.5026420000000 1.0
C      1  0.4889650000000  0.5604500000000  0.4915820000000 1.0
C      1  0.4377710000000  0.4650290000000  0.5700340000000 1.0
C      1  0.4846200000000  0.5039780000000  0.4043280000000 1.0
C      1  0.5176560000000  0.5833720000000  0.5735780000000 1.0
C      1  0.5053880000000  0.4000660000000  0.5121350000000 1.0
C      1  0.4784930000000  0.5315570000000  0.4128810000000 1.0
C      1  0.4761830000000  0.4629170000000  0.5319420000000 1.0
C      1  0.4205950000000  0.5464750000000  0.4536000000000 1.0
C      1  0.4881280000000  0.4913110000000  0.4592400000000 1.0
C      1  0.4196610000000  0.4437740000000  0.5282380000000 1.0
C      1  0.5119710000000  0.4238230000000  0.4416020000000 1.0
C      1  0.5565540000000  0.4956970000000  0.5108030000000 1.0
C      1  0.4614230000000  0.5035820000000  0.5966960000000 1.0
C      1  0.5431540000000  0.5656040000000  0.4361260000000 1.0
C      1  0.4675320000000  0.5812140000000  0.5436180000000 1.0
C      1  0.4594890000000  0.5659280000000  0.4806280000000 1.0
C      1  0.5429960000000  0.4115550000000  0.5398810000000 1.0
C      1  0.4615140000000  0.4415760000000  0.4543030000000 1.0
C      1  0.4212450000000  0.4715680000000  0.4365630000000 1.0
C      1  0.4548320000000  0.5370980000000  0.5143320000000 1.0
C      1  0.5123660000000  0.4962740000000  0.4138900000000 1.0
C      1  0.4852020000000  0.5450850000000  0.5795710000000 1.0
C      1  0.4453940000000  0.5557540000000  0.4397220000000 1.0
C      1  0.4180550000000  0.4487320000000  0.4794580000000 1.0
C      1  0.4424720000000  0.5378240000000  0.5507810000000 1.0
C      1  0.4391150000000  0.5793870000000  0.4988200000000 1.0
C      1  0.4904580000000  0.4510680000000  0.4863360000000 1.0
C      1  0.5173720000000  0.4522620000000  0.4405660000000 1.0
C      1  0.5375290000000  0.5170670000000  0.5156280000000 1.0
C      1  0.5195450000000  0.5443630000000  0.5479370000000 1.0
C      1  0.5649160000000  0.5727160000000  0.5355040000000 1.0
C      1  0.5577210000000  0.5048970000000  0.4335450000000 1.0
C      1  0.4870520000000  0.4067470000000  0.5337520000000 1.0
C      1  0.4460530000000  0.5836230000000  0.5256920000000 1.0
C      1  0.5035110000000  0.5872970000000  0.4953050000000 1.0
C      1  0.5138540000000  0.5544700000000  0.5749520000000 1.0
C      1  0.5785770000000  0.4388880000000  0.4499810000000 1.0
C      1  0.4168390000000  0.5124040000000  0.4895190000000 1.0
C      1  0.4843980000000  0.5142850000000  0.5824140000000 1.0
C      1  0.4834390000000  0.5897370000000  0.4479570000000 1.0
C      1  0.4587290000000  0.5784990000000  0.4539220000000 1.0
C      1  0.4814880000000  0.5482890000000  0.5178050000000 1.0
C      1  0.5287520000000  0.4735680000000  0.4815310000000 1.0
C      1  0.4052160000000  0.5673500000000  0.4660340000000 1.0
C      1  0.5482170000000  0.5843480000000  0.4761340000000 1.0
C      1  0.5026840000000  0.5376720000000  0.4753970000000 1.0
C      1  0.4353030000000  0.5095510000000  0.5552950000000 1.0
C      1  0.5457060000000  0.5062410000000  0.5595710000000 1.0
C      1  0.4879630000000  0.4604500000000  0.5825120000000 1.0
C      1  0.5119560000000  0.4988860000000  0.5908070000000 1.0
C      1  0.5079240000000  0.5041290000000  0.4420970000000 1.0
C      1  0.4343780000000  0.4948370000000  0.5063540000000 1.0
C      1  0.5033880000000  0.5977690000000  0.4659470000000 1.0
C      1  0.5899990000000  0.5223820000000  0.4804120000000 1.0
C      1  0.5558070000000  0.5601320000000  0.4619430000000 1.0
C      1  0.4597530000000  0.5089430000000  0.5186810000000 1.0
C      1  0.4971550000000  0.5297520000000  0.5357400000000 1.0
C      1  0.5150150000000  0.4691780000000  0.5854450000000 1.0
C      1  0.5409690000000  0.5177380000000  0.4119560000000 1.0
C      1  0.5850270000000  0.4540820000000  0.4972340000000 1.0
C      1  0.4223470000000  0.4918910000000  0.5347360000000 1.0
C      1  0.5255920000000  0.4272500000000  0.5572730000000 1.0
C      1  0.4841970000000  0.4997870000000  0.5028450000000 1.0
C      1  0.4675520000000  0.4819560000000  0.4146760000000 1.0
C      1  0.4831600000000  0.4571740000000  0.4124490000000 1.0
C      1  0.4978390000000  0.4051420000000  0.4837790000000 1.0
C      1  0.4588510000000  0.4814820000000  0.4579340000000 1.0
C      1  0.4140490000000  0.5382590000000  0.4998420000000 1.0
C      1  0.4744710000000  0.4264660000000  0.4801360000000 1.0
C      1  0.4026320000000  0.4906710000000  0.4471860000000 1.0
C      1  0.4448140000000  0.4927720000000  0.5766460000000 1.0
C      1  0.5013480000000  0.5482650000000  0.4134480000000 1.0
C      1  0.4454940000000  0.5072520000000  0.4459580000000 1.0
C      1  0.5306420000000  0.4558090000000  0.5037740000000 1.0
C      1  0.4529220000000  0.4220620000000  0.5015850000000 1.0
C      1  0.5266590000000  0.5423280000000  0.4263180000000 1.0
C      1  0.5741830000000  0.4978820000000  0.5570430000000 1.0
C      1  0.5262320000000  0.4840110000000  0.5455280000000 1.0
C      1  0.5693750000000  0.5453530000000  0.5382890000000 1.0
C      1  0.5433360000000  0.4273300000000  0.4823140000000 1.0
C      1  0.5453620000000  0.4697540000000  0.5248680000000 1.0
C      1  0.5786740000000  0.5429940000000  0.4657770000000 1.0
C      1  0.5352540000000  0.4507750000000  0.5722620000000 1.0
C      1  0.4790040000000  0.5077940000000  0.5525840000000 1.0
C      1  0.5666690000000  0.4240340000000  0.5323640000000 1.0
C      1  0.4133580000000  0.5655280000000  0.4929130000000 1.0
C      1  0.5643940000000  0.4558270000000  0.5670170000000 1.0
C      1  0.5779890000000  0.4554610000000  0.4282860000000 1.0
END
