TITL C-951344-124-237 -2.10185365359656e-06 125000 -990.811682508569 0 0 159 (C1) n - 1
REM
REM in /home/bkarasulu/work/CARBON/AIRSS/Generating-Clusters/EDIP-Nigel-Params/with-SteepDescent/Only-C1/SD-CG/HFTN-CG
REM
REM
REM
REM
REM
REM ./C.cell (11c1c37f851c82e70ff6c80c92926a4b)
REM
REM compiler GCC version 9.2.1 20190827 (Red Hat 9.2.1-1)
REM options -cpp -mtune=generic -march=x86-64 -g -O0 -fpre-include=/usr/include/finclude/math-vector-fortran.h
REM seed -497945688 1944748709 134378023 627478686 -1018439396 -100384200 -263341724 755360384 363698369 866703218 -842652804 -544652112 -2033378445 -1179395490 -978032301 1474960966 832194861 -1418201158 763154177 286453004 77128861 914151418 -298585788 1674687343 -552804166 -870516905 991477070 -1240987098 -1737142011 953554776 1499508028 -259976827 -1854954958
REM
CELL 1.54180   50.00000   50.00000   50.00000   90.00000   90.00000   90.00000
LATT -1
SFAC C  
C      1  0.4355020000000  0.4721350000000  0.4746560000000 1.0
C      1  0.4472260000000  0.4294480000000  0.5576750000000 1.0
C      1  0.4626820000000  0.4519870000000  0.4766220000000 1.0
C      1  0.4866410000000  0.5547840000000  0.4040430000000 1.0
C      1  0.5319530000000  0.5581620000000  0.5066380000000 1.0
C      1  0.5266350000000  0.4729060000000  0.3887360000000 1.0
C      1  0.5808420000000  0.5356700000000  0.4424590000000 1.0
C      1  0.5070850000000  0.4442530000000  0.5048660000000 1.0
C      1  0.4174440000000  0.4552010000000  0.4549530000000 1.0
C      1  0.5658270000000  0.4437770000000  0.4753700000000 1.0
C      1  0.4747150000000  0.4392190000000  0.5654800000000 1.0
C      1  0.4887110000000  0.4552670000000  0.4574930000000 1.0
C      1  0.5434320000000  0.5077060000000  0.5588560000000 1.0
C      1  0.5696500000000  0.5827460000000  0.5239850000000 1.0
C      1  0.4099900000000  0.4960580000000  0.5681150000000 1.0
C      1  0.5485640000000  0.4092730000000  0.5041340000000 1.0
C      1  0.5283650000000  0.5082460000000  0.4840600000000 1.0
C      1  0.5649700000000  0.4865880000000  0.5023090000000 1.0
C      1  0.4572380000000  0.4582780000000  0.4210560000000 1.0
C      1  0.5704930000000  0.4629930000000  0.5481970000000 1.0
C      1  0.5057550000000  0.4735390000000  0.5645800000000 1.0
C      1  0.4987090000000  0.4386150000000  0.4089770000000 1.0
C      1  0.5519830000000  0.4881410000000  0.4743660000000 1.0
C      1  0.4488360000000  0.4310310000000  0.4290900000000 1.0
C      1  0.6000430000000  0.5204850000000  0.4833760000000 1.0
C      1  0.4980030000000  0.4630580000000  0.6009970000000 1.0
C      1  0.5028110000000  0.4030430000000  0.4899270000000 1.0
C      1  0.4434110000000  0.5940730000000  0.5174890000000 1.0
C      1  0.4726350000000  0.5478390000000  0.5187320000000 1.0
C      1  0.5672420000000  0.5367220000000  0.4180550000000 1.0
C      1  0.4527500000000  0.5852810000000  0.4602050000000 1.0
C      1  0.5750970000000  0.5367880000000  0.4913340000000 1.0
C      1  0.5540900000000  0.5853620000000  0.4776470000000 1.0
C      1  0.5997450000000  0.4688990000000  0.5401250000000 1.0
C      1  0.4663150000000  0.5352550000000  0.5925860000000 1.0
C      1  0.4918590000000  0.5456810000000  0.4675750000000 1.0
C      1  0.5164870000000  0.4989740000000  0.5529340000000 1.0
C      1  0.5128440000000  0.5878760000000  0.5693330000000 1.0
C      1  0.5480050000000  0.4156630000000  0.5627310000000 1.0
C      1  0.5400680000000  0.5248450000000  0.5936070000000 1.0
C      1  0.5061980000000  0.4897000000000  0.4892520000000 1.0
C      1  0.4007010000000  0.4955380000000  0.5005880000000 1.0
C      1  0.4094820000000  0.5152350000000  0.4412610000000 1.0
C      1  0.5115390000000  0.4611780000000  0.4801930000000 1.0
C      1  0.5224960000000  0.5821710000000  0.5418130000000 1.0
C      1  0.4699000000000  0.6032740000000  0.4751550000000 1.0
C      1  0.5282450000000  0.5173530000000  0.4004960000000 1.0
C      1  0.4924070000000  0.6003920000000  0.5238330000000 1.0
C      1  0.4366170000000  0.5035760000000  0.4344100000000 1.0
C      1  0.5010720000000  0.4914140000000  0.6037340000000 1.0
C      1  0.4808960000000  0.5307880000000  0.5424110000000 1.0
C      1  0.4450200000000  0.5283440000000  0.4807080000000 1.0
C      1  0.4418490000000  0.4820650000000  0.5250540000000 1.0
C      1  0.4821970000000  0.5497800000000  0.5699620000000 1.0
C      1  0.4975560000000  0.5108230000000  0.3937850000000 1.0
C      1  0.4263130000000  0.5058020000000  0.5918390000000 1.0
C      1  0.5394240000000  0.4638040000000  0.4297250000000 1.0
C      1  0.4518200000000  0.4894720000000  0.5925040000000 1.0
C      1  0.5004290000000  0.4261720000000  0.5551580000000 1.0
C      1  0.4173380000000  0.5440120000000  0.4399260000000 1.0
C      1  0.4780460000000  0.4681470000000  0.5538090000000 1.0
C      1  0.4326490000000  0.5669760000000  0.5434690000000 1.0
C      1  0.5190560000000  0.5139050000000  0.4380460000000 1.0
C      1  0.4360990000000  0.4320390000000  0.4560510000000 1.0
C      1  0.4286350000000  0.5771870000000  0.4738870000000 1.0
C      1  0.5659540000000  0.4347150000000  0.5047750000000 1.0
C      1  0.4609420000000  0.5123720000000  0.5499210000000 1.0
C      1  0.6020700000000  0.4974920000000  0.5026980000000 1.0
C      1  0.5635290000000  0.5416180000000  0.4639480000000 1.0
C      1  0.5765560000000  0.5405590000000  0.5460890000000 1.0
C      1  0.5354370000000  0.5467180000000  0.5755320000000 1.0
C      1  0.5771460000000  0.4872920000000  0.4523110000000 1.0
C      1  0.5641060000000  0.4800520000000  0.4230170000000 1.0
C      1  0.4122840000000  0.4686900000000  0.4961980000000 1.0
C      1  0.5259580000000  0.4565060000000  0.5257040000000 1.0
C      1  0.4915650000000  0.4952310000000  0.5132790000000 1.0
C      1  0.4805110000000  0.5272500000000  0.4115890000000 1.0
C      1  0.5516450000000  0.5268500000000  0.5363900000000 1.0
C      1  0.4726780000000  0.5379700000000  0.4901730000000 1.0
C      1  0.4882020000000  0.5189030000000  0.4396520000000 1.0
C      1  0.5005790000000  0.4823830000000  0.4018500000000 1.0
C      1  0.4753090000000  0.5978640000000  0.5483320000000 1.0
C      1  0.5578590000000  0.5165560000000  0.5081860000000 1.0
C      1  0.5554250000000  0.4606790000000  0.5204890000000 1.0
C      1  0.4751010000000  0.4457980000000  0.5952640000000 1.0
C      1  0.4686700000000  0.6000390000000  0.5046850000000 1.0
C      1  0.5032250000000  0.5745760000000  0.4730690000000 1.0
C      1  0.5925880000000  0.4277740000000  0.5132670000000 1.0
C      1  0.4207940000000  0.4698850000000  0.5563790000000 1.0
C      1  0.5193650000000  0.4839760000000  0.4419730000000 1.0
C      1  0.4607130000000  0.4028630000000  0.4633710000000 1.0
C      1  0.4726910000000  0.4735140000000  0.5234960000000 1.0
C      1  0.3969240000000  0.5126420000000  0.4765750000000 1.0
C      1  0.5890480000000  0.4623890000000  0.4675410000000 1.0
C      1  0.4581540000000  0.4138630000000  0.5118300000000 1.0
C      1  0.5528320000000  0.5828400000000  0.5466020000000 1.0
C      1  0.5276280000000  0.4468860000000  0.4044450000000 1.0
C      1  0.6053190000000  0.4525210000000  0.5156180000000 1.0
C      1  0.5496290000000  0.4767800000000  0.5906860000000 1.0
C      1  0.5343660000000  0.6025510000000  0.4888770000000 1.0
C      1  0.4105900000000  0.5173020000000  0.5473190000000 1.0
C      1  0.5264240000000  0.5448750000000  0.5323770000000 1.0
C      1  0.4111590000000  0.4644070000000  0.4291450000000 1.0
C      1  0.5953590000000  0.5123720000000  0.4542750000000 1.0
C      1  0.5477530000000  0.4927570000000  0.3973960000000 1.0
C      1  0.5212900000000  0.5304490000000  0.4647510000000 1.0
C      1  0.4234970000000  0.4562350000000  0.5233830000000 1.0
C      1  0.5428930000000  0.5626250000000  0.4589340000000 1.0
C      1  0.4756550000000  0.4481680000000  0.5062700000000 1.0
C      1  0.6046450000000  0.4700720000000  0.4918200000000 1.0
C      1  0.4511110000000  0.5237890000000  0.4155920000000 1.0
C      1  0.5253120000000  0.5596050000000  0.4318820000000 1.0
C      1  0.5204950000000  0.3985680000000  0.4670630000000 1.0
C      1  0.4647760000000  0.5655560000000  0.4408800000000 1.0
C      1  0.4233880000000  0.5805900000000  0.5025320000000 1.0
C      1  0.5409650000000  0.4611110000000  0.4731720000000 1.0
C      1  0.4344920000000  0.4769510000000  0.4203600000000 1.0
C      1  0.5158140000000  0.5818340000000  0.4989970000000 1.0
C      1  0.5602440000000  0.5672600000000  0.5014260000000 1.0
C      1  0.5211690000000  0.4494470000000  0.5539970000000 1.0
C      1  0.5045910000000  0.5160100000000  0.5321800000000 1.0
C      1  0.4431330000000  0.5496370000000  0.4262120000000 1.0
C      1  0.4947620000000  0.5996840000000  0.4618250000000 1.0
C      1  0.4740370000000  0.4079020000000  0.4880630000000 1.0
C      1  0.5625200000000  0.4200980000000  0.4574280000000 1.0
C      1  0.4224600000000  0.5494250000000  0.4682060000000 1.0
C      1  0.4484210000000  0.4594690000000  0.5980380000000 1.0
C      1  0.4444540000000  0.5007160000000  0.4642560000000 1.0
C      1  0.4361990000000  0.5339490000000  0.5860930000000 1.0
C      1  0.4895960000000  0.6034450000000  0.5715980000000 1.0
C      1  0.4796640000000  0.4600690000000  0.4023330000000 1.0
C      1  0.5961920000000  0.5200680000000  0.5495770000000 1.0
C      1  0.5456900000000  0.4482810000000  0.5875940000000 1.0
C      1  0.4272410000000  0.5400220000000  0.5579930000000 1.0
C      1  0.4634310000000  0.5706950000000  0.5488520000000 1.0
C      1  0.5203540000000  0.4092190000000  0.5117830000000 1.0
C      1  0.4334690000000  0.5301800000000  0.5089020000000 1.0
C      1  0.5301260000000  0.4981950000000  0.5999580000000 1.0
C      1  0.5210580000000  0.4114220000000  0.5680740000000 1.0
C      1  0.4133140000000  0.5533800000000  0.5126180000000 1.0
C      1  0.5098470000000  0.5610470000000  0.5788270000000 1.0
C      1  0.4210970000000  0.5064180000000  0.5205550000000 1.0
C      1  0.4946350000000  0.5658670000000  0.4285040000000 1.0
C      1  0.4939250000000  0.4295510000000  0.4371520000000 1.0
C      1  0.4896200000000  0.4814590000000  0.4394480000000 1.0
C      1  0.5489370000000  0.4001150000000  0.4755560000000 1.0
C      1  0.5183120000000  0.4145060000000  0.4430560000000 1.0
C      1  0.5402720000000  0.5425270000000  0.4122240000000 1.0
C      1  0.4700200000000  0.4117520000000  0.4370200000000 1.0
C      1  0.5624350000000  0.4860480000000  0.5660040000000 1.0
C      1  0.5603860000000  0.5601580000000  0.5644120000000 1.0
C      1  0.5625760000000  0.4393390000000  0.5665380000000 1.0
C      1  0.4417260000000  0.4314830000000  0.5286180000000 1.0
C      1  0.4748280000000  0.5068240000000  0.6024090000000 1.0
C      1  0.4311860000000  0.4485900000000  0.5750270000000 1.0
C      1  0.6052110000000  0.4982370000000  0.5333220000000 1.0
C      1  0.5436890000000  0.4267120000000  0.4349050000000 1.0
C      1  0.4599530000000  0.4885810000000  0.5645550000000 1.0
C      1  0.3981600000000  0.5413370000000  0.4844680000000 1.0
END
