TITL C-951344-124-168 -7.10537574358091e-07 125000 -404.433125753032 0 0 66 (C1) n - 1
REM
REM in /home/bkarasulu/work/CARBON/AIRSS/Generating-Clusters/EDIP-Nigel-Params/with-SteepDescent/Only-C1/SD-CG/HFTN-CG
REM
REM
REM
REM
REM
REM ./C.cell (11c1c37f851c82e70ff6c80c92926a4b)
REM
REM compiler GCC version 9.2.1 20190827 (Red Hat 9.2.1-1)
REM options -cpp -mtune=generic -march=x86-64 -g -O0 -fpre-include=/usr/include/finclude/math-vector-fortran.h
REM seed -324282341 -321737533 -957415889 -1661901818 -695207158 -1224562839 -1099754312 150577493 -114882786 -772483850 -20505275 1811880065 -1862754066 -129340889 -252781700 1716306923 695528137 149602929 1703098452 538187638 -1739275400 -689985171 1471627553 160081450 -1374033541 1701263784 -4880720 -1772973691 1487620142 -897641162 758629719 -1037619862 205403260
REM
CELL 1.54180   50.00000   50.00000   50.00000   90.00000   90.00000   90.00000
LATT -1
SFAC C  
C      1  0.5514060000000  0.4654900000000  0.5102620000000 1.0
C      1  0.5225090000000  0.5474670000000  0.4380310000000 1.0
C      1  0.5219710000000  0.5510330000000  0.4679240000000 1.0
C      1  0.5201770000000  0.4905130000000  0.4807620000000 1.0
C      1  0.4559020000000  0.4654490000000  0.4473920000000 1.0
C      1  0.5263840000000  0.5010370000000  0.4213280000000 1.0
C      1  0.5529400000000  0.5113070000000  0.4593990000000 1.0
C      1  0.5058720000000  0.4954500000000  0.5740830000000 1.0
C      1  0.4390920000000  0.5007860000000  0.5326100000000 1.0
C      1  0.4606620000000  0.5638530000000  0.4962770000000 1.0
C      1  0.5447320000000  0.5352370000000  0.5298740000000 1.0
C      1  0.4891030000000  0.5546170000000  0.5487020000000 1.0
C      1  0.5420100000000  0.5239130000000  0.4341970000000 1.0
C      1  0.4920500000000  0.4576060000000  0.4577130000000 1.0
C      1  0.5520560000000  0.4923520000000  0.5512220000000 1.0
C      1  0.4991780000000  0.4705310000000  0.4832080000000 1.0
C      1  0.5500950000000  0.4655290000000  0.4808730000000 1.0
C      1  0.5226830000000  0.5051660000000  0.5055970000000 1.0
C      1  0.5001840000000  0.5091920000000  0.4338580000000 1.0
C      1  0.5467450000000  0.5529900000000  0.4846280000000 1.0
C      1  0.5341350000000  0.4472180000000  0.5551450000000 1.0
C      1  0.5502070000000  0.5140990000000  0.5103970000000 1.0
C      1  0.5090750000000  0.4323890000000  0.5532110000000 1.0
C      1  0.5466980000000  0.5212810000000  0.5573340000000 1.0
C      1  0.4687540000000  0.5462320000000  0.4472120000000 1.0
C      1  0.5146500000000  0.4570310000000  0.4395260000000 1.0
C      1  0.4927330000000  0.5719180000000  0.5257650000000 1.0
C      1  0.4879080000000  0.4509610000000  0.5581900000000 1.0
C      1  0.5203390000000  0.5218060000000  0.5723050000000 1.0
C      1  0.4677830000000  0.5317860000000  0.5580600000000 1.0
C      1  0.4672720000000  0.4484530000000  0.5155070000000 1.0
C      1  0.4990010000000  0.5069860000000  0.5234970000000 1.0
C      1  0.4700710000000  0.5835310000000  0.5141160000000 1.0
C      1  0.5240060000000  0.4227370000000  0.5197140000000 1.0
C      1  0.4471130000000  0.5146730000000  0.4459200000000 1.0
C      1  0.4645750000000  0.4581850000000  0.5431330000000 1.0
C      1  0.4309450000000  0.5256040000000  0.4915630000000 1.0
C      1  0.5191830000000  0.5769920000000  0.5179900000000 1.0
C      1  0.5443570000000  0.4421050000000  0.5276690000000 1.0
C      1  0.4787640000000  0.5570800000000  0.4735160000000 1.0
C      1  0.4516360000000  0.4450570000000  0.4683690000000 1.0
C      1  0.4325940000000  0.4958270000000  0.5028310000000 1.0
C      1  0.4969350000000  0.4543160000000  0.5084310000000 1.0
C      1  0.4573330000000  0.4915200000000  0.4587270000000 1.0
C      1  0.5545520000000  0.4816570000000  0.4566580000000 1.0
C      1  0.4359500000000  0.5330700000000  0.4636890000000 1.0
C      1  0.5048810000000  0.5292840000000  0.5464010000000 1.0
C      1  0.4534470000000  0.5364050000000  0.5085970000000 1.0
C      1  0.4765650000000  0.5017650000000  0.5648970000000 1.0
C      1  0.4486450000000  0.4605820000000  0.4954700000000 1.0
C      1  0.5175080000000  0.4184550000000  0.4933240000000 1.0
C      1  0.4788570000000  0.4307940000000  0.4660730000000 1.0
C      1  0.5030450000000  0.4763490000000  0.5327510000000 1.0
C      1  0.4599040000000  0.4903410000000  0.4884370000000 1.0
C      1  0.4457390000000  0.5298210000000  0.5373070000000 1.0
C      1  0.5621220000000  0.4896060000000  0.5233300000000 1.0
C      1  0.5263190000000  0.4764060000000  0.5553880000000 1.0
C      1  0.5603940000000  0.5264100000000  0.4840600000000 1.0
C      1  0.4903470000000  0.4206540000000  0.4905090000000 1.0
C      1  0.4760190000000  0.5154830000000  0.5023050000000 1.0
C      1  0.5414470000000  0.5604210000000  0.5134530000000 1.0
C      1  0.4932470000000  0.5380680000000  0.4290960000000 1.0
C      1  0.5095520000000  0.5143400000000  0.4630810000000 1.0
C      1  0.4621910000000  0.4869910000000  0.5438880000000 1.0
C      1  0.5361150000000  0.4746970000000  0.4333630000000 1.0
C      1  0.4913350000000  0.5310930000000  0.4818530000000 1.0
END
