TITL C-951336-9012-431 -7.66848161873277e-07 125000 -571.367630674189 0 0 93 (C1) n - 1
REM
REM in /home/bkarasulu/work/CARBON/AIRSS/Generating-Clusters/EDIP-Nigel-Params/with-SteepDescent/Only-C1/SD-CG/HFTN-CG
REM
REM
REM
REM
REM
REM ./C.cell (11c1c37f851c82e70ff6c80c92926a4b)
REM
REM compiler GCC version 9.2.1 20190827 (Red Hat 9.2.1-1)
REM options -cpp -mtune=generic -march=x86-64 -g -O0 -fpre-include=/usr/include/finclude/math-vector-fortran.h
REM seed -424024953 -477444012 231281500 1447558473 707572286 281167804 1639219035 -133313132 1391379066 620894687 1159688321 765908362 -1892934947 129442475 -1249704510 -1034384815 1899982973 -1536066453 -1923428075 1221139501 2145718 880732920 866992832 1165749382 1272964143 1068468856 1316200161 -638859252 317350759 -370492714 -708421741 -263143690 -474359366
REM
CELL 1.54180   50.00000   50.00000   50.00000   90.00000   90.00000   90.00000
LATT -1
SFAC C  
C      1  0.4849090000000  0.4678820000000  0.5713190000000 1.0
C      1  0.4309770000000  0.5168440000000  0.5475260000000 1.0
C      1  0.5136620000000  0.5093530000000  0.5480890000000 1.0
C      1  0.5371950000000  0.4757630000000  0.4341180000000 1.0
C      1  0.4406060000000  0.5413050000000  0.4554650000000 1.0
C      1  0.4461490000000  0.5372840000000  0.5606430000000 1.0
C      1  0.4492810000000  0.4624240000000  0.4611820000000 1.0
C      1  0.4777910000000  0.4956020000000  0.5203490000000 1.0
C      1  0.5707530000000  0.5485470000000  0.4774360000000 1.0
C      1  0.5125660000000  0.5826740000000  0.4667280000000 1.0
C      1  0.4885900000000  0.5288650000000  0.5478080000000 1.0
C      1  0.5050670000000  0.5600370000000  0.4358530000000 1.0
C      1  0.5180810000000  0.5000180000000  0.5785610000000 1.0
C      1  0.5150050000000  0.4218740000000  0.5026060000000 1.0
C      1  0.4961110000000  0.4561930000000  0.4681840000000 1.0
C      1  0.4642060000000  0.4720280000000  0.5086730000000 1.0
C      1  0.5600400000000  0.4398380000000  0.5173000000000 1.0
C      1  0.5427640000000  0.4791540000000  0.4940870000000 1.0
C      1  0.4666860000000  0.4299130000000  0.4931920000000 1.0
C      1  0.4631920000000  0.5819430000000  0.4552670000000 1.0
C      1  0.4369540000000  0.4730740000000  0.5716870000000 1.0
C      1  0.5366290000000  0.5348810000000  0.4969450000000 1.0
C      1  0.4997670000000  0.5125710000000  0.4535790000000 1.0
C      1  0.5474040000000  0.4287760000000  0.4698270000000 1.0
C      1  0.5221260000000  0.4208400000000  0.4289470000000 1.0
C      1  0.4722210000000  0.4757510000000  0.4784610000000 1.0
C      1  0.4417480000000  0.5661710000000  0.4959710000000 1.0
C      1  0.5773070000000  0.4809500000000  0.4595910000000 1.0
C      1  0.5646090000000  0.4639820000000  0.4366640000000 1.0
C      1  0.4244430000000  0.5481820000000  0.5095740000000 1.0
C      1  0.4558290000000  0.4474860000000  0.5373320000000 1.0
C      1  0.4699410000000  0.5097310000000  0.5927580000000 1.0
C      1  0.4714660000000  0.5294360000000  0.5732850000000 1.0
C      1  0.5431190000000  0.4257230000000  0.4981060000000 1.0
C      1  0.4163140000000  0.5252250000000  0.5241160000000 1.0
C      1  0.5361450000000  0.5283980000000  0.5583930000000 1.0
C      1  0.5648830000000  0.4920370000000  0.5392120000000 1.0
C      1  0.5486610000000  0.4434340000000  0.5445640000000 1.0
C      1  0.4704130000000  0.5956210000000  0.5288580000000 1.0
C      1  0.4946120000000  0.4887120000000  0.4382420000000 1.0
C      1  0.5595300000000  0.5212180000000  0.5416490000000 1.0
C      1  0.4994950000000  0.5325580000000  0.4307060000000 1.0
C      1  0.4750240000000  0.5738760000000  0.5467650000000 1.0
C      1  0.4849980000000  0.4457310000000  0.4411230000000 1.0
C      1  0.5195840000000  0.4367590000000  0.5486330000000 1.0
C      1  0.5803440000000  0.5479130000000  0.5034000000000 1.0
C      1  0.4573450000000  0.4499270000000  0.4368440000000 1.0
C      1  0.5021690000000  0.4894770000000  0.4096740000000 1.0
C      1  0.5097820000000  0.5834000000000  0.4948520000000 1.0
C      1  0.5314560000000  0.5835760000000  0.5123870000000 1.0
C      1  0.4672410000000  0.5250150000000  0.5239710000000 1.0
C      1  0.5030340000000  0.4998020000000  0.5065620000000 1.0
C      1  0.5449530000000  0.5677100000000  0.5312220000000 1.0
C      1  0.4892570000000  0.5717420000000  0.4557860000000 1.0
C      1  0.4047260000000  0.5041460000000  0.5102890000000 1.0
C      1  0.4810610000000  0.5379210000000  0.4984710000000 1.0
C      1  0.5206230000000  0.4750830000000  0.4620720000000 1.0
C      1  0.5402940000000  0.5059650000000  0.4291150000000 1.0
C      1  0.4754030000000  0.5110920000000  0.4736210000000 1.0
C      1  0.4735600000000  0.4315810000000  0.5216000000000 1.0
C      1  0.5046210000000  0.4402600000000  0.4187870000000 1.0
C      1  0.5200080000000  0.4651310000000  0.4106250000000 1.0
C      1  0.5384460000000  0.5158620000000  0.4577270000000 1.0
C      1  0.4435410000000  0.5659910000000  0.4671740000000 1.0
C      1  0.5320380000000  0.4737600000000  0.5766300000000 1.0
C      1  0.5086370000000  0.5274530000000  0.5037000000000 1.0
C      1  0.5564290000000  0.5424770000000  0.5190110000000 1.0
C      1  0.4518160000000  0.5903710000000  0.5078410000000 1.0
C      1  0.5481540000000  0.5436020000000  0.4615730000000 1.0
C      1  0.5236700000000  0.4183950000000  0.4567540000000 1.0
C      1  0.4847680000000  0.5701050000000  0.5044300000000 1.0
C      1  0.4482900000000  0.5155590000000  0.4612440000000 1.0
C      1  0.5718100000000  0.4419610000000  0.4579480000000 1.0
C      1  0.5023290000000  0.4318020000000  0.5256610000000 1.0
C      1  0.5543200000000  0.4703020000000  0.5572210000000 1.0
C      1  0.4239390000000  0.4945650000000  0.5623930000000 1.0
C      1  0.4279110000000  0.4620530000000  0.5022960000000 1.0
C      1  0.5105980000000  0.4544200000000  0.5699410000000 1.0
C      1  0.5694180000000  0.4649390000000  0.5040870000000 1.0
C      1  0.5860360000000  0.4591390000000  0.4798130000000 1.0
C      1  0.4527140000000  0.5565040000000  0.5408990000000 1.0
C      1  0.4587020000000  0.4576290000000  0.5639640000000 1.0
C      1  0.5262390000000  0.4892310000000  0.5177690000000 1.0
C      1  0.5559720000000  0.4976200000000  0.4742510000000 1.0
C      1  0.4153180000000  0.4861140000000  0.4920610000000 1.0
C      1  0.4278440000000  0.4994510000000  0.4710270000000 1.0
C      1  0.5171260000000  0.5161880000000  0.4121880000000 1.0
C      1  0.5267660000000  0.5572100000000  0.5520660000000 1.0
C      1  0.4995570000000  0.4243220000000  0.4771880000000 1.0
C      1  0.4900450000000  0.4915080000000  0.5873360000000 1.0
C      1  0.4417400000000  0.4438480000000  0.4833480000000 1.0
C      1  0.4986530000000  0.5563910000000  0.5422400000000 1.0
C      1  0.5844480000000  0.4828250000000  0.5215650000000 1.0
END
