TITL C-951335-1172-89 -2.0934799596741e-07 125000 -881.893281180564 0 0 143 (C1) n - 1
REM
REM in /home/bkarasulu/work/CARBON/AIRSS/Generating-Clusters/EDIP-Nigel-Params/with-SteepDescent/Only-C1/SD-CG/HFTN-CG
REM
REM
REM
REM
REM
REM ./C.cell (11c1c37f851c82e70ff6c80c92926a4b)
REM
REM compiler GCC version 9.2.1 20190827 (Red Hat 9.2.1-1)
REM options -cpp -mtune=generic -march=x86-64 -g -O0 -fpre-include=/usr/include/finclude/math-vector-fortran.h
REM seed 1221571887 -923427698 1830841281 987429727 -985938235 -2138787648 696724675 -968845230 691376132 1855231179 857555348 -580587444 -987946876 -1556279356 395361489 -727094239 1445005847 -730321804 -321173163 469700988 -859733432 -1273701556 1753780260 -343699521 1541234107 1321970738 -876190217 -445229786 734553196 -52556117 -1845440646 1121348431 -1379510717
REM
CELL 1.54180   50.00000   50.00000   50.00000   90.00000   90.00000   90.00000
LATT -1
SFAC C  
C      1  0.5695400000000  0.4424460000000  0.5641950000000 1.0
C      1  0.5368050000000  0.5727000000000  0.5283420000000 1.0
C      1  0.5066170000000  0.5323250000000  0.5989530000000 1.0
C      1  0.5812680000000  0.4843500000000  0.5206910000000 1.0
C      1  0.5529470000000  0.5721370000000  0.4379780000000 1.0
C      1  0.5943500000000  0.4848900000000  0.5471010000000 1.0
C      1  0.4394630000000  0.5719290000000  0.5080810000000 1.0
C      1  0.4786850000000  0.6044880000000  0.4739490000000 1.0
C      1  0.4514100000000  0.5302210000000  0.4821410000000 1.0
C      1  0.5019620000000  0.4141180000000  0.5618400000000 1.0
C      1  0.5373370000000  0.5476790000000  0.4706320000000 1.0
C      1  0.5337250000000  0.4861660000000  0.5491510000000 1.0
C      1  0.4034670000000  0.4439900000000  0.5100130000000 1.0
C      1  0.5172580000000  0.4071970000000  0.4750250000000 1.0
C      1  0.4975040000000  0.5203020000000  0.4411750000000 1.0
C      1  0.4080910000000  0.5501570000000  0.4766350000000 1.0
C      1  0.5806970000000  0.5181650000000  0.5819200000000 1.0
C      1  0.5172710000000  0.5512460000000  0.4092200000000 1.0
C      1  0.4497400000000  0.5479300000000  0.5473330000000 1.0
C      1  0.4851400000000  0.4640440000000  0.4050970000000 1.0
C      1  0.4788660000000  0.5909580000000  0.4276180000000 1.0
C      1  0.5552830000000  0.4813810000000  0.4655770000000 1.0
C      1  0.5019470000000  0.4438310000000  0.4935840000000 1.0
C      1  0.5286970000000  0.4573540000000  0.5419070000000 1.0
C      1  0.5561020000000  0.5568310000000  0.5672630000000 1.0
C      1  0.5091450000000  0.5793470000000  0.5765040000000 1.0
C      1  0.4473280000000  0.5261040000000  0.4262190000000 1.0
C      1  0.5410380000000  0.4145450000000  0.5335270000000 1.0
C      1  0.4965580000000  0.4021700000000  0.4951850000000 1.0
C      1  0.5430050000000  0.4342690000000  0.5564470000000 1.0
C      1  0.4215780000000  0.5385970000000  0.4361950000000 1.0
C      1  0.4656420000000  0.4572770000000  0.4908870000000 1.0
C      1  0.5672570000000  0.5115020000000  0.4742810000000 1.0
C      1  0.4936300000000  0.5322360000000  0.4148090000000 1.0
C      1  0.4714660000000  0.4776880000000  0.5867630000000 1.0
C      1  0.5055260000000  0.5927980000000  0.4360940000000 1.0
C      1  0.4525210000000  0.4773790000000  0.5322870000000 1.0
C      1  0.5243210000000  0.5710750000000  0.4296720000000 1.0
C      1  0.4672880000000  0.5458480000000  0.4174010000000 1.0
C      1  0.4820660000000  0.4762310000000  0.5269420000000 1.0
C      1  0.4413480000000  0.5735760000000  0.5362200000000 1.0
C      1  0.4530120000000  0.4769310000000  0.4220520000000 1.0
C      1  0.5814330000000  0.5262650000000  0.4519380000000 1.0
C      1  0.5356390000000  0.4951510000000  0.6091720000000 1.0
C      1  0.5471520000000  0.4379190000000  0.4365130000000 1.0
C      1  0.5380420000000  0.5295340000000  0.4080170000000 1.0
C      1  0.5374960000000  0.4691080000000  0.5969820000000 1.0
C      1  0.4245710000000  0.4735370000000  0.5646340000000 1.0
C      1  0.5244920000000  0.4245760000000  0.5791330000000 1.0
C      1  0.5044720000000  0.4658280000000  0.4273300000000 1.0
C      1  0.4649350000000  0.5475670000000  0.5747260000000 1.0
C      1  0.4694470000000  0.5152830000000  0.5749240000000 1.0
C      1  0.5579940000000  0.5343430000000  0.5864730000000 1.0
C      1  0.4119530000000  0.5006320000000  0.5132020000000 1.0
C      1  0.5243410000000  0.5035300000000  0.3980010000000 1.0
C      1  0.4878670000000  0.5844020000000  0.5118890000000 1.0
C      1  0.5670430000000  0.5715560000000  0.5220280000000 1.0
C      1  0.4330650000000  0.4305510000000  0.4496350000000 1.0
C      1  0.5500400000000  0.4232540000000  0.5067440000000 1.0
C      1  0.5600380000000  0.4583800000000  0.4225200000000 1.0
C      1  0.5124690000000  0.5544720000000  0.4842640000000 1.0
C      1  0.4478770000000  0.4604040000000  0.5778330000000 1.0
C      1  0.4741830000000  0.5256930000000  0.5015150000000 1.0
C      1  0.4925500000000  0.5965750000000  0.5623250000000 1.0
C      1  0.4951880000000  0.5009190000000  0.5229100000000 1.0
C      1  0.4844430000000  0.5963120000000  0.5367840000000 1.0
C      1  0.5075740000000  0.5124940000000  0.4664120000000 1.0
C      1  0.4878920000000  0.4405320000000  0.5561800000000 1.0
C      1  0.5963060000000  0.5111730000000  0.4848810000000 1.0
C      1  0.5228700000000  0.4673120000000  0.4820140000000 1.0
C      1  0.5252540000000  0.4989990000000  0.5229660000000 1.0
C      1  0.5368560000000  0.4795340000000  0.5049890000000 1.0
C      1  0.5012120000000  0.5291610000000  0.4894420000000 1.0
C      1  0.4465550000000  0.5027440000000  0.4678880000000 1.0
C      1  0.5023200000000  0.4855550000000  0.4716440000000 1.0
C      1  0.4047260000000  0.4698360000000  0.4625440000000 1.0
C      1  0.5511560000000  0.5754230000000  0.4679100000000 1.0
C      1  0.4144680000000  0.4494000000000  0.5369320000000 1.0
C      1  0.5287100000000  0.5955830000000  0.4806190000000 1.0
C      1  0.5015310000000  0.3866630000000  0.5181740000000 1.0
C      1  0.4863650000000  0.5110430000000  0.5990450000000 1.0
C      1  0.4387070000000  0.4911000000000  0.5100430000000 1.0
C      1  0.5957610000000  0.5333720000000  0.5074230000000 1.0
C      1  0.4591480000000  0.5003130000000  0.4409490000000 1.0
C      1  0.4965660000000  0.4626250000000  0.5772450000000 1.0
C      1  0.4953930000000  0.5105070000000  0.3927940000000 1.0
C      1  0.4645740000000  0.5832790000000  0.4905940000000 1.0
C      1  0.5193970000000  0.4859810000000  0.5747290000000 1.0
C      1  0.5888160000000  0.5323660000000  0.5367580000000 1.0
C      1  0.4606280000000  0.4312490000000  0.4463220000000 1.0
C      1  0.4567340000000  0.4353970000000  0.5094820000000 1.0
C      1  0.5523200000000  0.4818770000000  0.4354030000000 1.0
C      1  0.4705210000000  0.3986470000000  0.4809460000000 1.0
C      1  0.5771290000000  0.4610270000000  0.4769760000000 1.0
C      1  0.5160240000000  0.5779670000000  0.5029810000000 1.0
C      1  0.4051940000000  0.4685300000000  0.4927530000000 1.0
C      1  0.4145250000000  0.4204470000000  0.4990220000000 1.0
C      1  0.4782920000000  0.4489350000000  0.4645220000000 1.0
C      1  0.5750880000000  0.5538250000000  0.4985850000000 1.0
C      1  0.5288190000000  0.5448570000000  0.5343690000000 1.0
C      1  0.4237930000000  0.4703000000000  0.4225410000000 1.0
C      1  0.4868150000000  0.5194530000000  0.5457180000000 1.0
C      1  0.4272040000000  0.5276660000000  0.5470820000000 1.0
C      1  0.4254080000000  0.5609080000000  0.4553760000000 1.0
C      1  0.4273920000000  0.5451330000000  0.4986080000000 1.0
C      1  0.4418600000000  0.4140380000000  0.4967830000000 1.0
C      1  0.4990170000000  0.4517760000000  0.5276420000000 1.0
C      1  0.5054510000000  0.6043120000000  0.4628800000000 1.0
C      1  0.5772880000000  0.5575530000000  0.5462420000000 1.0
C      1  0.5411850000000  0.5240890000000  0.4407650000000 1.0
C      1  0.4046060000000  0.5212770000000  0.4524990000000 1.0
C      1  0.4442420000000  0.4480740000000  0.5338080000000 1.0
C      1  0.5661090000000  0.5444100000000  0.4312850000000 1.0
C      1  0.5692480000000  0.4441730000000  0.5029040000000 1.0
C      1  0.5940120000000  0.5124650000000  0.5575920000000 1.0
C      1  0.5597620000000  0.4308680000000  0.4614360000000 1.0
C      1  0.5533590000000  0.5335090000000  0.4911840000000 1.0
C      1  0.4577490000000  0.4394660000000  0.5589070000000 1.0
C      1  0.4755310000000  0.4069310000000  0.4523710000000 1.0
C      1  0.4863160000000  0.4742610000000  0.4501070000000 1.0
C      1  0.4546970000000  0.5605920000000  0.4640540000000 1.0
C      1  0.4766620000000  0.4882430000000  0.3935500000000 1.0
C      1  0.5361020000000  0.5790030000000  0.5656110000000 1.0
C      1  0.4329520000000  0.5002620000000  0.5566640000000 1.0
C      1  0.5367480000000  0.5250830000000  0.5157180000000 1.0
C      1  0.4138630000000  0.5281350000000  0.5207830000000 1.0
C      1  0.5947560000000  0.4826370000000  0.4944750000000 1.0
C      1  0.5176800000000  0.4381470000000  0.4347740000000 1.0
C      1  0.4700740000000  0.5662020000000  0.4379030000000 1.0
C      1  0.4705030000000  0.5370710000000  0.5291220000000 1.0
C      1  0.5852600000000  0.4642520000000  0.5637890000000 1.0
C      1  0.5078040000000  0.5379060000000  0.5530440000000 1.0
C      1  0.5138450000000  0.4041400000000  0.5362210000000 1.0
C      1  0.4149920000000  0.4506530000000  0.4428730000000 1.0
C      1  0.4973470000000  0.5515970000000  0.5772370000000 1.0
C      1  0.5337380000000  0.5210010000000  0.5967820000000 1.0
C      1  0.5254000000000  0.4909960000000  0.4254950000000 1.0
C      1  0.5447130000000  0.4148410000000  0.4802380000000 1.0
C      1  0.5589570000000  0.4651790000000  0.5195490000000 1.0
C      1  0.5045310000000  0.4160760000000  0.4507830000000 1.0
C      1  0.4038160000000  0.4934490000000  0.4449220000000 1.0
C      1  0.5161960000000  0.4478590000000  0.5960700000000 1.0
C      1  0.4419570000000  0.4780640000000  0.4846760000000 1.0
END
