TITL C-951339-9237-448 -6.22493302185831e-06 125000 -1131.92458488349 0 0 177 (C1) n - 1
REM
REM in /home/bkarasulu/work/CARBON/AIRSS/Generating-Clusters/EDIP-Nigel-Params/with-SteepDescent/Only-C1/SD-CG/HFTN-CG
REM
REM
REM
REM
REM
REM ./C.cell (11c1c37f851c82e70ff6c80c92926a4b)
REM
REM compiler GCC version 9.2.1 20190827 (Red Hat 9.2.1-1)
REM options -cpp -mtune=generic -march=x86-64 -g -O0 -fpre-include=/usr/include/finclude/math-vector-fortran.h
REM seed 411617212 -228289787 866787251 179574983 -1324468327 -1919886711 -1128173535 -69613074 1620026726 -438425733 600076821 -831090090 721791448 1757974307 -690549696 1133588912 -416888243 -1717612770 -844406372 -286460998 -419270313 -827838962 1620846867 1570219485 -803895168 1074977367 -1344156564 -489751445 1371527784 -757598965 1126860162 -1283384505 -1092145700
REM
CELL 1.54180   50.00000   50.00000   50.00000   90.00000   90.00000   90.00000
LATT -1
SFAC C  
C      1  0.5851480000000  0.5401180000000  0.5781470000000 1.0
C      1  0.5994440000000  0.4936140000000  0.4508300000000 1.0
C      1  0.5525870000000  0.5067860000000  0.5456950000000 1.0
C      1  0.6105890000000  0.4508230000000  0.4900300000000 1.0
C      1  0.5263600000000  0.6025260000000  0.5332430000000 1.0
C      1  0.4835260000000  0.4130060000000  0.4552600000000 1.0
C      1  0.4555330000000  0.5812400000000  0.4363570000000 1.0
C      1  0.5424420000000  0.5405340000000  0.4505690000000 1.0
C      1  0.4383210000000  0.4548840000000  0.4506480000000 1.0
C      1  0.5823990000000  0.5080070000000  0.5562960000000 1.0
C      1  0.4180770000000  0.4192050000000  0.5071000000000 1.0
C      1  0.5612500000000  0.5142140000000  0.4906760000000 1.0
C      1  0.5838030000000  0.5181580000000  0.4477560000000 1.0
C      1  0.5026880000000  0.4800150000000  0.3957610000000 1.0
C      1  0.5250330000000  0.6060860000000  0.5055130000000 1.0
C      1  0.5303050000000  0.4740860000000  0.4881450000000 1.0
C      1  0.4302790000000  0.5381140000000  0.4328050000000 1.0
C      1  0.4002400000000  0.4758760000000  0.4602220000000 1.0
C      1  0.6003640000000  0.4931100000000  0.5161050000000 1.0
C      1  0.4657580000000  0.5043760000000  0.5828670000000 1.0
C      1  0.5511620000000  0.4840120000000  0.5257980000000 1.0
C      1  0.4365310000000  0.5742220000000  0.5633700000000 1.0
C      1  0.5355670000000  0.5822450000000  0.4900970000000 1.0
C      1  0.4901310000000  0.5086530000000  0.4341770000000 1.0
C      1  0.4420770000000  0.4558430000000  0.5662400000000 1.0
C      1  0.4624310000000  0.4045270000000  0.5143210000000 1.0
C      1  0.4105830000000  0.4499000000000  0.4575750000000 1.0
C      1  0.4918470000000  0.4523000000000  0.3946130000000 1.0
C      1  0.4341010000000  0.5610510000000  0.4788970000000 1.0
C      1  0.5648390000000  0.4582570000000  0.4299790000000 1.0
C      1  0.4534700000000  0.5882840000000  0.5200470000000 1.0
C      1  0.5059450000000  0.4318460000000  0.6011840000000 1.0
C      1  0.5507050000000  0.4813050000000  0.5889770000000 1.0
C      1  0.5349190000000  0.4181230000000  0.5657510000000 1.0
C      1  0.4964860000000  0.5899360000000  0.5780670000000 1.0
C      1  0.4330630000000  0.5642430000000  0.4472410000000 1.0
C      1  0.4814430000000  0.5957450000000  0.5255630000000 1.0
C      1  0.5050650000000  0.5244810000000  0.6025200000000 1.0
C      1  0.5389200000000  0.4980480000000  0.4725850000000 1.0
C      1  0.5112810000000  0.4317740000000  0.3969670000000 1.0
C      1  0.5014710000000  0.4763000000000  0.5375800000000 1.0
C      1  0.4341690000000  0.4319370000000  0.5507460000000 1.0
C      1  0.4328320000000  0.4667860000000  0.5226760000000 1.0
C      1  0.4472490000000  0.6072680000000  0.4757120000000 1.0
C      1  0.5623200000000  0.5467700000000  0.5617990000000 1.0
C      1  0.4190050000000  0.4392970000000  0.5263770000000 1.0
C      1  0.5980970000000  0.4838390000000  0.5450730000000 1.0
C      1  0.4489010000000  0.5325150000000  0.4808320000000 1.0
C      1  0.5018130000000  0.5030470000000  0.6202380000000 1.0
C      1  0.4957390000000  0.5791550000000  0.5495170000000 1.0
C      1  0.3927210000000  0.4948010000000  0.5114010000000 1.0
C      1  0.4625790000000  0.4475750000000  0.5215710000000 1.0
C      1  0.5538590000000  0.5597590000000  0.4124810000000 1.0
C      1  0.4795860000000  0.4982160000000  0.4934230000000 1.0
C      1  0.4558600000000  0.4067490000000  0.4495510000000 1.0
C      1  0.5506430000000  0.5299820000000  0.5166570000000 1.0
C      1  0.5044010000000  0.3827670000000  0.5213400000000 1.0
C      1  0.5299360000000  0.4075880000000  0.4715980000000 1.0
C      1  0.4379670000000  0.4021620000000  0.4984860000000 1.0
C      1  0.5835440000000  0.5310360000000  0.4743740000000 1.0
C      1  0.4126580000000  0.5202740000000  0.4745620000000 1.0
C      1  0.5630780000000  0.5699510000000  0.5451020000000 1.0
C      1  0.5538820000000  0.4170730000000  0.4880630000000 1.0
C      1  0.6195430000000  0.4781500000000  0.4967370000000 1.0
C      1  0.5900000000000  0.4495950000000  0.4699260000000 1.0
C      1  0.3992280000000  0.5307900000000  0.5625790000000 1.0
C      1  0.4644990000000  0.5530200000000  0.5966600000000 1.0
C      1  0.5385750000000  0.5170870000000  0.3917850000000 1.0
C      1  0.4834870000000  0.5015130000000  0.3869850000000 1.0
C      1  0.4632470000000  0.4974400000000  0.4455270000000 1.0
C      1  0.5137070000000  0.4063440000000  0.5344440000000 1.0
C      1  0.5436330000000  0.4033000000000  0.5386840000000 1.0
C      1  0.5632560000000  0.5053550000000  0.6019140000000 1.0
C      1  0.5122770000000  0.5917770000000  0.4473660000000 1.0
C      1  0.6186070000000  0.4985000000000  0.4738390000000 1.0
C      1  0.5599150000000  0.5300540000000  0.4075180000000 1.0
C      1  0.4538820000000  0.4628570000000  0.4764590000000 1.0
C      1  0.4627710000000  0.5436010000000  0.5344740000000 1.0
C      1  0.3835510000000  0.5234960000000  0.5134300000000 1.0
C      1  0.5629060000000  0.4593560000000  0.5704800000000 1.0
C      1  0.4090340000000  0.5601330000000  0.4947970000000 1.0
C      1  0.4546270000000  0.4993790000000  0.3928260000000 1.0
C      1  0.4414050000000  0.5662040000000  0.5359580000000 1.0
C      1  0.4906440000000  0.5944760000000  0.4684160000000 1.0
C      1  0.5165410000000  0.5368160000000  0.3926130000000 1.0
C      1  0.4868230000000  0.3918660000000  0.5021650000000 1.0
C      1  0.4652370000000  0.6029110000000  0.4545110000000 1.0
C      1  0.5203880000000  0.5366180000000  0.5160660000000 1.0
C      1  0.5377910000000  0.5877390000000  0.4600860000000 1.0
C      1  0.4929930000000  0.4776950000000  0.6120090000000 1.0
C      1  0.4380660000000  0.5550460000000  0.5838950000000 1.0
C      1  0.5206930000000  0.4854840000000  0.5150540000000 1.0
C      1  0.5809800000000  0.4597960000000  0.5472110000000 1.0
C      1  0.3965830000000  0.5396210000000  0.5352190000000 1.0
C      1  0.5149620000000  0.5445500000000  0.4428960000000 1.0
C      1  0.5001380000000  0.4089390000000  0.4800400000000 1.0
C      1  0.5109350000000  0.4344420000000  0.5208140000000 1.0
C      1  0.4115170000000  0.4921300000000  0.4378110000000 1.0
C      1  0.4976610000000  0.4645790000000  0.4532290000000 1.0
C      1  0.5058570000000  0.4191510000000  0.5760820000000 1.0
C      1  0.5313770000000  0.5230880000000  0.5889110000000 1.0
C      1  0.4277170000000  0.5106320000000  0.5448250000000 1.0
C      1  0.4533650000000  0.5080090000000  0.5009780000000 1.0
C      1  0.5331570000000  0.5455380000000  0.5686420000000 1.0
C      1  0.4890220000000  0.4374520000000  0.4384680000000 1.0
C      1  0.5861180000000  0.5127880000000  0.5871190000000 1.0
C      1  0.4527710000000  0.5166040000000  0.5296390000000 1.0
C      1  0.5403880000000  0.4928630000000  0.4425880000000 1.0
C      1  0.5146320000000  0.5606620000000  0.4973740000000 1.0
C      1  0.3922330000000  0.5372010000000  0.4878880000000 1.0
C      1  0.5136750000000  0.4551160000000  0.4752860000000 1.0
C      1  0.6094710000000  0.5210250000000  0.5146060000000 1.0
C      1  0.4807970000000  0.5309140000000  0.5846540000000 1.0
C      1  0.4216050000000  0.5300110000000  0.5813780000000 1.0
C      1  0.5363240000000  0.4674790000000  0.6093850000000 1.0
C      1  0.4464420000000  0.4741170000000  0.4058990000000 1.0
C      1  0.4684800000000  0.4539360000000  0.5771770000000 1.0
C      1  0.5646420000000  0.5737790000000  0.4953880000000 1.0
C      1  0.4363670000000  0.4815560000000  0.4950950000000 1.0
C      1  0.4962170000000  0.6067400000000  0.5005870000000 1.0
C      1  0.6105730000000  0.5248050000000  0.4865140000000 1.0
C      1  0.4987600000000  0.4361380000000  0.4922810000000 1.0
C      1  0.4869350000000  0.5666650000000  0.4848710000000 1.0
C      1  0.5399650000000  0.4462590000000  0.5584330000000 1.0
C      1  0.5596750000000  0.4309260000000  0.4411390000000 1.0
C      1  0.4862180000000  0.5474910000000  0.5535360000000 1.0
C      1  0.4767260000000  0.5665660000000  0.4217210000000 1.0
C      1  0.6058160000000  0.4353540000000  0.5126290000000 1.0
C      1  0.5328490000000  0.4874960000000  0.3955900000000 1.0
C      1  0.4233540000000  0.4756850000000  0.5758120000000 1.0
C      1  0.4145260000000  0.5589640000000  0.5234660000000 1.0
C      1  0.5762040000000  0.5608640000000  0.4708160000000 1.0
C      1  0.4750670000000  0.4814050000000  0.4675720000000 1.0
C      1  0.5060470000000  0.4848050000000  0.5644530000000 1.0
C      1  0.5728360000000  0.4267180000000  0.4672140000000 1.0
C      1  0.4596150000000  0.4155610000000  0.5447000000000 1.0
C      1  0.4405990000000  0.3982760000000  0.4711840000000 1.0
C      1  0.5110530000000  0.4853050000000  0.4335090000000 1.0
C      1  0.4688380000000  0.4429730000000  0.4935550000000 1.0
C      1  0.5252480000000  0.5636010000000  0.4040160000000 1.0
C      1  0.5844420000000  0.4352040000000  0.5302700000000 1.0
C      1  0.5251370000000  0.5819410000000  0.5780380000000 1.0
C      1  0.5133280000000  0.5392910000000  0.5453860000000 1.0
C      1  0.4438590000000  0.5304870000000  0.4074700000000 1.0
C      1  0.4514460000000  0.4331400000000  0.4327340000000 1.0
C      1  0.5579430000000  0.4234940000000  0.5199120000000 1.0
C      1  0.5120120000000  0.4556140000000  0.6149470000000 1.0
C      1  0.4118010000000  0.4870100000000  0.5345260000000 1.0
C      1  0.4088550000000  0.4917740000000  0.4849430000000 1.0
C      1  0.5569010000000  0.5186720000000  0.4354760000000 1.0
C      1  0.5066140000000  0.5691840000000  0.4280970000000 1.0
C      1  0.5528900000000  0.4705430000000  0.4070790000000 1.0
C      1  0.4909300000000  0.5247310000000  0.4034810000000 1.0
C      1  0.4396570000000  0.4809870000000  0.4341180000000 1.0
C      1  0.5563750000000  0.5667980000000  0.4476020000000 1.0
C      1  0.5398490000000  0.4475080000000  0.5279800000000 1.0
C      1  0.5388600000000  0.5861210000000  0.5519100000000 1.0
C      1  0.4692300000000  0.5445370000000  0.4041760000000 1.0
C      1  0.4830080000000  0.4796990000000  0.5839550000000 1.0
C      1  0.5166490000000  0.5153810000000  0.4765900000000 1.0
C      1  0.4638030000000  0.4493380000000  0.4055900000000 1.0
C      1  0.4980650000000  0.5270030000000  0.4568500000000 1.0
C      1  0.5123170000000  0.4267880000000  0.4244120000000 1.0
C      1  0.5721390000000  0.4912160000000  0.5054420000000 1.0
C      1  0.4001040000000  0.4763980000000  0.5593480000000 1.0
C      1  0.4902920000000  0.4493700000000  0.5357980000000 1.0
C      1  0.5327260000000  0.4985010000000  0.5702440000000 1.0
C      1  0.4522720000000  0.5828760000000  0.4910570000000 1.0
C      1  0.5340280000000  0.4170080000000  0.4426810000000 1.0
C      1  0.5873110000000  0.4669970000000  0.4472260000000 1.0
C      1  0.5061530000000  0.5105950000000  0.5032190000000 1.0
C      1  0.4363080000000  0.5025880000000  0.5821490000000 1.0
C      1  0.4830520000000  0.4334370000000  0.5607210000000 1.0
C      1  0.4788320000000  0.5770720000000  0.5953110000000 1.0
C      1  0.5669300000000  0.5563290000000  0.5187400000000 1.0
C      1  0.4107900000000  0.5203940000000  0.4451480000000 1.0
C      1  0.4764070000000  0.5423710000000  0.4708220000000 1.0
END
