TITL C-950523-3027-354 -1.033971050709e-07 125000 -254.044324953362 0 0 42 (C1) n - 1
REM
REM in /home/bkarasulu/work/CARBON/AIRSS/Generating-Clusters/EDIP-Nigel-Params/with-SteepDescent/Only-C1/SD-CG/HFTN-CG
REM
REM
REM
REM
REM
REM ./C.cell (11c1c37f851c82e70ff6c80c92926a4b)
REM
REM compiler GCC version 9.2.1 20190827 (Red Hat 9.2.1-1)
REM options -cpp -mtune=generic -march=x86-64 -g -O0 -fpre-include=/usr/include/finclude/math-vector-fortran.h
REM seed 28910636 -274190622 -752716536 1452201838 196531697 -1492490318 1549490077 -1259392201 -57886539 885553068 -2110132675 1271961516 1526948928 -645150087 130103975 -1144109822 -1029005348 329333751 -63669974 -1511355943 -2110721746 -843922794 681824654 -1350276864 -1134560221 1393854372 1822372773 -74506796 1875061170 -941143478 1274877097 448617592 -800016324
REM
CELL 1.54180   50.00000   50.00000   50.00000   90.00000   90.00000   90.00000
LATT -1
SFAC C  
C      1  0.5341640000000  0.4940130000000  0.4419260000000 1.0
C      1  0.5349440000000  0.4680100000000  0.5341600000000 1.0
C      1  0.5630620000000  0.5155920000000  0.5045460000000 1.0
C      1  0.5359480000000  0.4665100000000  0.5066470000000 1.0
C      1  0.5427950000000  0.5439240000000  0.4718160000000 1.0
C      1  0.4536310000000  0.5134760000000  0.4992610000000 1.0
C      1  0.5148150000000  0.5039570000000  0.5595880000000 1.0
C      1  0.4445570000000  0.4955910000000  0.4759920000000 1.0
C      1  0.4614890000000  0.5406520000000  0.4876170000000 1.0
C      1  0.4796850000000  0.4726400000000  0.4928090000000 1.0
C      1  0.4799740000000  0.4988890000000  0.5128720000000 1.0
C      1  0.5565860000000  0.4801080000000  0.4923550000000 1.0
C      1  0.5234470000000  0.4421900000000  0.4668190000000 1.0
C      1  0.4403300000000  0.4762120000000  0.5205950000000 1.0
C      1  0.5071480000000  0.5489810000000  0.5452720000000 1.0
C      1  0.5313510000000  0.4691120000000  0.4298020000000 1.0
C      1  0.5329930000000  0.5506050000000  0.4987700000000 1.0
C      1  0.4757130000000  0.5305150000000  0.4621950000000 1.0
C      1  0.5058920000000  0.5378430000000  0.4957200000000 1.0
C      1  0.4854060000000  0.5038570000000  0.5634330000000 1.0
C      1  0.5063260000000  0.5130340000000  0.5114680000000 1.0
C      1  0.5463870000000  0.5338640000000  0.5203340000000 1.0
C      1  0.5141360000000  0.4514500000000  0.4425060000000 1.0
C      1  0.4810420000000  0.5469740000000  0.5349620000000 1.0
C      1  0.4924830000000  0.4481300000000  0.5020290000000 1.0
C      1  0.5201850000000  0.5240340000000  0.5366170000000 1.0
C      1  0.4603540000000  0.4698880000000  0.5397180000000 1.0
C      1  0.4491660000000  0.4697710000000  0.4920640000000 1.0
C      1  0.4883100000000  0.4826660000000  0.4638100000000 1.0
C      1  0.5066670000000  0.5299160000000  0.4662830000000 1.0
C      1  0.5618740000000  0.5229390000000  0.4759270000000 1.0
C      1  0.4882190000000  0.4611050000000  0.4443360000000 1.0
C      1  0.4808040000000  0.4754300000000  0.5579720000000 1.0
C      1  0.4818090000000  0.5538610000000  0.5051820000000 1.0
C      1  0.4663470000000  0.5022070000000  0.4568600000000 1.0
C      1  0.5188980000000  0.4475860000000  0.4935900000000 1.0
C      1  0.5148100000000  0.5001440000000  0.4644460000000 1.0
C      1  0.4336540000000  0.5061940000000  0.5214690000000 1.0
C      1  0.4418670000000  0.5181380000000  0.5455520000000 1.0
C      1  0.4708720000000  0.5188910000000  0.5414960000000 1.0
C      1  0.5537800000000  0.4957810000000  0.4665880000000 1.0
C      1  0.5180820000000  0.4753200000000  0.5545970000000 1.0
END
