TITL C-950533-5798-213 -2.55788035361159e-06 125000 -607.946829212978 0 0 98 (C1) n - 1
REM
REM in /home/bkarasulu/work/CARBON/AIRSS/Generating-Clusters/EDIP-Nigel-Params/with-SteepDescent/Only-C1/SD-CG/HFTN-CG
REM
REM
REM
REM
REM
REM ./C.cell (11c1c37f851c82e70ff6c80c92926a4b)
REM
REM compiler GCC version 9.2.1 20190827 (Red Hat 9.2.1-1)
REM options -cpp -mtune=generic -march=x86-64 -g -O0 -fpre-include=/usr/include/finclude/math-vector-fortran.h
REM seed 1576429675 1835342310 1113131118 253083206 -508855073 2111758795 1901784706 1232128499 -207429107 1063978888 -669033750 940224436 1174388016 1168657492 828675026 80655376 348542669 -1640390131 -781260507 -170094686 -605536475 2097788525 -1968209825 -1300181867 1989908127 1100283329 2047748604 -199007230 -1377628435 -1315142630 -784750676 1481684306 1109434371
REM
CELL 1.54180   50.00000   50.00000   50.00000   90.00000   90.00000   90.00000
LATT -1
SFAC C  
C      1  0.4683920000000  0.5226020000000  0.4112780000000 1.0
C      1  0.5413940000000  0.4599200000000  0.4438550000000 1.0
C      1  0.5073050000000  0.4931370000000  0.4155600000000 1.0
C      1  0.5353190000000  0.5609140000000  0.4890480000000 1.0
C      1  0.5788430000000  0.4607660000000  0.4678450000000 1.0
C      1  0.5426690000000  0.5741520000000  0.5135280000000 1.0
C      1  0.5213740000000  0.5758050000000  0.5344940000000 1.0
C      1  0.5267930000000  0.5528200000000  0.5538590000000 1.0
C      1  0.4632930000000  0.4932930000000  0.4923420000000 1.0
C      1  0.4623200000000  0.5674140000000  0.4718410000000 1.0
C      1  0.4709370000000  0.5629230000000  0.5294090000000 1.0
C      1  0.4369800000000  0.4364620000000  0.4810190000000 1.0
C      1  0.5267980000000  0.5299950000000  0.5948400000000 1.0
C      1  0.4787130000000  0.5411020000000  0.5122850000000 1.0
C      1  0.4777410000000  0.4944370000000  0.4154790000000 1.0
C      1  0.4373450000000  0.4803120000000  0.4838070000000 1.0
C      1  0.5639020000000  0.5565830000000  0.5227230000000 1.0
C      1  0.4384750000000  0.5629060000000  0.4899330000000 1.0
C      1  0.5270520000000  0.4617440000000  0.5015800000000 1.0
C      1  0.5833040000000  0.5162700000000  0.5170070000000 1.0
C      1  0.4540610000000  0.5025390000000  0.5384360000000 1.0
C      1  0.4969110000000  0.5869460000000  0.4909270000000 1.0
C      1  0.5290680000000  0.5539080000000  0.5818070000000 1.0
C      1  0.5531180000000  0.4470970000000  0.5135230000000 1.0
C      1  0.5764900000000  0.4993110000000  0.5615130000000 1.0
C      1  0.5018420000000  0.5193610000000  0.5869660000000 1.0
C      1  0.4775200000000  0.5129440000000  0.5213380000000 1.0
C      1  0.4245120000000  0.4935970000000  0.4599500000000 1.0
C      1  0.5415300000000  0.4691870000000  0.5670010000000 1.0
C      1  0.5342930000000  0.5117250000000  0.4963710000000 1.0
C      1  0.4548110000000  0.4668660000000  0.5643740000000 1.0
C      1  0.4705690000000  0.4860000000000  0.4431220000000 1.0
C      1  0.5175800000000  0.5760830000000  0.4727110000000 1.0
C      1  0.4481780000000  0.4728550000000  0.5352680000000 1.0
C      1  0.5168380000000  0.5221660000000  0.4166660000000 1.0
C      1  0.5070900000000  0.5084880000000  0.4852340000000 1.0
C      1  0.4205840000000  0.4678990000000  0.5225280000000 1.0
C      1  0.4700610000000  0.4591580000000  0.5194520000000 1.0
C      1  0.5491990000000  0.5364130000000  0.5409950000000 1.0
C      1  0.4928180000000  0.5397320000000  0.4091130000000 1.0
C      1  0.5750530000000  0.4886560000000  0.5045000000000 1.0
C      1  0.4703950000000  0.4311350000000  0.5306120000000 1.0
C      1  0.4762690000000  0.4092090000000  0.4795150000000 1.0
C      1  0.4280310000000  0.5356450000000  0.4861480000000 1.0
C      1  0.4140970000000  0.5313490000000  0.5342060000000 1.0
C      1  0.4307010000000  0.5225780000000  0.4593470000000 1.0
C      1  0.4893900000000  0.5634910000000  0.4286430000000 1.0
C      1  0.5143630000000  0.4444980000000  0.4786130000000 1.0
C      1  0.4878250000000  0.4398370000000  0.4353340000000 1.0
C      1  0.4327440000000  0.5195520000000  0.5514570000000 1.0
C      1  0.5637900000000  0.4388700000000  0.4827320000000 1.0
C      1  0.5786370000000  0.5226670000000  0.5466480000000 1.0
C      1  0.5752080000000  0.5395800000000  0.5010410000000 1.0
C      1  0.4534020000000  0.5333520000000  0.4360940000000 1.0
C      1  0.5561060000000  0.4806060000000  0.4602430000000 1.0
C      1  0.4849310000000  0.5507190000000  0.4847660000000 1.0
C      1  0.5538030000000  0.5301630000000  0.4547080000000 1.0
C      1  0.4537110000000  0.5292320000000  0.5713290000000 1.0
C      1  0.4957340000000  0.4905800000000  0.5846960000000 1.0
C      1  0.4993820000000  0.4201060000000  0.4909700000000 1.0
C      1  0.5131880000000  0.5613270000000  0.4467550000000 1.0
C      1  0.4451530000000  0.5700600000000  0.5171170000000 1.0
C      1  0.4909980000000  0.4853870000000  0.4907180000000 1.0
C      1  0.4613840000000  0.4335190000000  0.4391050000000 1.0
C      1  0.5150000000000  0.4670260000000  0.4319430000000 1.0
C      1  0.4991510000000  0.4737300000000  0.5173630000000 1.0
C      1  0.4617700000000  0.5616130000000  0.4419300000000 1.0
C      1  0.5023020000000  0.4464880000000  0.5608770000000 1.0
C      1  0.5946930000000  0.4814050000000  0.4826160000000 1.0
C      1  0.4946840000000  0.5816830000000  0.5206990000000 1.0
C      1  0.4720170000000  0.5513920000000  0.5582410000000 1.0
C      1  0.5695270000000  0.4689190000000  0.5254790000000 1.0
C      1  0.4496020000000  0.4117280000000  0.4834840000000 1.0
C      1  0.4940360000000  0.4615800000000  0.4539830000000 1.0
C      1  0.4694840000000  0.5142530000000  0.4551400000000 1.0
C      1  0.4418100000000  0.4752990000000  0.4438570000000 1.0
C      1  0.4222360000000  0.4464650000000  0.5033770000000 1.0
C      1  0.5505520000000  0.5355790000000  0.4841420000000 1.0
C      1  0.5558160000000  0.4854360000000  0.5466680000000 1.0
C      1  0.4425410000000  0.4474760000000  0.4542450000000 1.0
C      1  0.5397830000000  0.4374120000000  0.4639290000000 1.0
C      1  0.4912800000000  0.5274890000000  0.5605760000000 1.0
C      1  0.4197440000000  0.5197120000000  0.5091480000000 1.0
C      1  0.5339210000000  0.5111200000000  0.5275270000000 1.0
C      1  0.4950210000000  0.5272320000000  0.4668720000000 1.0
C      1  0.5499530000000  0.4426090000000  0.5614600000000 1.0
C      1  0.5142150000000  0.4364240000000  0.5359140000000 1.0
C      1  0.4965320000000  0.4196190000000  0.5206740000000 1.0
C      1  0.5702220000000  0.5055640000000  0.4500220000000 1.0
C      1  0.4726540000000  0.4420130000000  0.5601460000000 1.0
C      1  0.4162490000000  0.4907310000000  0.5035540000000 1.0
C      1  0.5424430000000  0.4311580000000  0.5366930000000 1.0
C      1  0.5470030000000  0.4860000000000  0.4898110000000 1.0
C      1  0.4676650000000  0.4935000000000  0.5746760000000 1.0
C      1  0.5123230000000  0.4727970000000  0.5677080000000 1.0
C      1  0.5253020000000  0.5335660000000  0.4433440000000 1.0
C      1  0.5047860000000  0.5014580000000  0.5353510000000 1.0
C      1  0.5953640000000  0.5035750000000  0.4642250000000 1.0
END
