TITL C-951337-3020-514 1.41951938619529e-07 125000 -246.594361160561 0 0 41 (C1) n - 1
REM
REM in /home/bkarasulu/work/CARBON/AIRSS/Generating-Clusters/EDIP-Nigel-Params/with-SteepDescent/Only-C1/SD-CG/HFTN-CG
REM
REM
REM
REM
REM
REM ./C.cell (11c1c37f851c82e70ff6c80c92926a4b)
REM
REM compiler GCC version 9.2.1 20190827 (Red Hat 9.2.1-1)
REM options -cpp -mtune=generic -march=x86-64 -g -O0 -fpre-include=/usr/include/finclude/math-vector-fortran.h
REM seed -2002850585 1190490485 -878827053 -999270517 1130268099 -1692895876 1476289309 669882927 1144189263 2081240890 1614675471 -1090836952 -239801285 705472436 -500384426 323370397 1747664583 -688641946 1725085832 -2145610604 582796326 -1477331667 -1974364057 155565293 1482949921 -815325151 1536279954 -1394205617 -586252175 -1656397523 -1508286786 -118970548 -1719937798
REM
CELL 1.54180   50.00000   50.00000   50.00000   90.00000   90.00000   90.00000
LATT -1
SFAC C  
C      1  0.4467060000000  0.5315670000000  0.5382360000000 1.0
C      1  0.5078100000000  0.5343940000000  0.4487590000000 1.0
C      1  0.4576640000000  0.5277330000000  0.4740590000000 1.0
C      1  0.5528460000000  0.5216410000000  0.5075610000000 1.0
C      1  0.5670920000000  0.4966660000000  0.4999670000000 1.0
C      1  0.4961300000000  0.5500470000000  0.4701360000000 1.0
C      1  0.5139310000000  0.4874970000000  0.4934980000000 1.0
C      1  0.5193460000000  0.4722550000000  0.4691250000000 1.0
C      1  0.5191350000000  0.4469850000000  0.5108620000000 1.0
C      1  0.4842250000000  0.5028830000000  0.5292800000000 1.0
C      1  0.4683260000000  0.4560040000000  0.5001170000000 1.0
C      1  0.5083640000000  0.5369410000000  0.4942310000000 1.0
C      1  0.4807500000000  0.5641790000000  0.5257710000000 1.0
C      1  0.4409150000000  0.4710930000000  0.4635590000000 1.0
C      1  0.5181920000000  0.4918870000000  0.4474830000000 1.0
C      1  0.4942340000000  0.4439100000000  0.4922130000000 1.0
C      1  0.4681910000000  0.5529110000000  0.4695350000000 1.0
C      1  0.4709890000000  0.4574010000000  0.5442680000000 1.0
C      1  0.4541450000000  0.5063230000000  0.5281080000000 1.0
C      1  0.4954250000000  0.5085480000000  0.4988890000000 1.0
C      1  0.5427040000000  0.4779100000000  0.5401050000000 1.0
C      1  0.5395070000000  0.5136870000000  0.4587550000000 1.0
C      1  0.4405970000000  0.4987140000000  0.5027010000000 1.0
C      1  0.5361570000000  0.5305250000000  0.4852480000000 1.0
C      1  0.5481260000000  0.4516270000000  0.4993110000000 1.0
C      1  0.5012700000000  0.4494860000000  0.4653500000000 1.0
C      1  0.4565390000000  0.4471110000000  0.5240840000000 1.0
C      1  0.5066040000000  0.5549880000000  0.5186320000000 1.0
C      1  0.5407550000000  0.5239860000000  0.5328910000000 1.0
C      1  0.4941410000000  0.5083830000000  0.4487390000000 1.0
C      1  0.5613500000000  0.4910570000000  0.4707470000000 1.0
C      1  0.5479610000000  0.4635780000000  0.4713030000000 1.0
C      1  0.5184540000000  0.5392920000000  0.5407540000000 1.0
C      1  0.4713130000000  0.5443920000000  0.5435750000000 1.0
C      1  0.4564290000000  0.4797000000000  0.4842580000000 1.0
C      1  0.5599120000000  0.4727660000000  0.5175620000000 1.0
C      1  0.4764810000000  0.5048510000000  0.4746030000000 1.0
C      1  0.4340230000000  0.5225620000000  0.4884340000000 1.0
C      1  0.4931750000000  0.5250030000000  0.5483150000000 1.0
C      1  0.5182210000000  0.4635570000000  0.5361320000000 1.0
C      1  0.4918640000000  0.4759600000000  0.5428410000000 1.0
END
