TITL C-951338-5626-735 -2.07884989563346e-06 125000 -740.43687235584 0 0 120 (C1) n - 1
REM
REM in /home/bkarasulu/work/CARBON/AIRSS/Generating-Clusters/EDIP-Nigel-Params/with-SteepDescent/Only-C1/SD-CG/HFTN-CG
REM
REM
REM
REM
REM
REM ./C.cell (11c1c37f851c82e70ff6c80c92926a4b)
REM
REM compiler GCC version 9.2.1 20190827 (Red Hat 9.2.1-1)
REM options -cpp -mtune=generic -march=x86-64 -g -O0 -fpre-include=/usr/include/finclude/math-vector-fortran.h
REM seed 1388529346 1349647530 250388439 2115811308 305034172 898336360 -1581798434 -505151274 -1094333304 688949495 1869361470 796962763 -114894563 -506186922 1639092973 2083797006 978212947 -415410027 -924448012 845076790 -1823256123 1610753691 633129389 -1324736326 1938935204 1141106146 1752300338 108160741 -1145356995 -271155171 -1528301865 -156595928 1470489554
REM
CELL 1.54180   50.00000   50.00000   50.00000   90.00000   90.00000   90.00000
LATT -1
SFAC C  
C      1  0.4852400000000  0.5370690000000  0.5940250000000 1.0
C      1  0.5216050000000  0.5405890000000  0.4626960000000 1.0
C      1  0.4239050000000  0.4319610000000  0.5031030000000 1.0
C      1  0.4561540000000  0.5380450000000  0.5882060000000 1.0
C      1  0.5697500000000  0.5683580000000  0.4796100000000 1.0
C      1  0.4659420000000  0.5854440000000  0.5170470000000 1.0
C      1  0.4944590000000  0.5323740000000  0.4795440000000 1.0
C      1  0.5370170000000  0.5853450000000  0.4466000000000 1.0
C      1  0.4269910000000  0.5337460000000  0.5203320000000 1.0
C      1  0.4510830000000  0.4851720000000  0.5217320000000 1.0
C      1  0.5061260000000  0.5902250000000  0.5451970000000 1.0
C      1  0.5283320000000  0.5307730000000  0.5847040000000 1.0
C      1  0.4175170000000  0.4566510000000  0.5469920000000 1.0
C      1  0.4873070000000  0.5066610000000  0.5866750000000 1.0
C      1  0.4815320000000  0.5749880000000  0.4570200000000 1.0
C      1  0.4854360000000  0.5034600000000  0.5548420000000 1.0
C      1  0.4023950000000  0.4757870000000  0.5026020000000 1.0
C      1  0.5129810000000  0.4979020000000  0.4412370000000 1.0
C      1  0.5315310000000  0.5264260000000  0.5067470000000 1.0
C      1  0.3998580000000  0.5027550000000  0.5376990000000 1.0
C      1  0.4529020000000  0.5444900000000  0.5591970000000 1.0
C      1  0.4280310000000  0.5585420000000  0.5061430000000 1.0
C      1  0.5324520000000  0.4401470000000  0.5027140000000 1.0
C      1  0.5343030000000  0.4829670000000  0.3992860000000 1.0
C      1  0.4877610000000  0.4281020000000  0.4457920000000 1.0
C      1  0.5415070000000  0.5113940000000  0.4013770000000 1.0
C      1  0.5150530000000  0.5249580000000  0.4070430000000 1.0
C      1  0.4123350000000  0.5156150000000  0.5610180000000 1.0
C      1  0.5987850000000  0.5206490000000  0.4918130000000 1.0
C      1  0.4339360000000  0.4385970000000  0.5301180000000 1.0
C      1  0.4933380000000  0.5954380000000  0.5202560000000 1.0
C      1  0.4957380000000  0.4281370000000  0.5636870000000 1.0
C      1  0.5431360000000  0.5825390000000  0.4742100000000 1.0
C      1  0.4420810000000  0.5459850000000  0.4550640000000 1.0
C      1  0.6047430000000  0.4954790000000  0.5071430000000 1.0
C      1  0.4409500000000  0.4882230000000  0.4354030000000 1.0
C      1  0.5339840000000  0.4399640000000  0.4502490000000 1.0
C      1  0.5050700000000  0.5811650000000  0.4967380000000 1.0
C      1  0.4721010000000  0.4306390000000  0.4938070000000 1.0
C      1  0.5057030000000  0.4589810000000  0.4079390000000 1.0
C      1  0.4447550000000  0.4229490000000  0.4837800000000 1.0
C      1  0.5889250000000  0.5208960000000  0.4358530000000 1.0
C      1  0.5149890000000  0.4041340000000  0.4776260000000 1.0
C      1  0.4528640000000  0.5159710000000  0.5188650000000 1.0
C      1  0.5782330000000  0.4577140000000  0.4879660000000 1.0
C      1  0.4866300000000  0.5562390000000  0.5008960000000 1.0
C      1  0.4629390000000  0.4686000000000  0.4961780000000 1.0
C      1  0.4139770000000  0.4550270000000  0.4873800000000 1.0
C      1  0.4960360000000  0.4581170000000  0.5384730000000 1.0
C      1  0.5347840000000  0.5517520000000  0.4863790000000 1.0
C      1  0.5633310000000  0.4140930000000  0.4753850000000 1.0
C      1  0.5029460000000  0.4150490000000  0.5377540000000 1.0
C      1  0.5612290000000  0.4497800000000  0.4440820000000 1.0
C      1  0.5195850000000  0.5735410000000  0.5641850000000 1.0
C      1  0.4417630000000  0.4380580000000  0.4575640000000 1.0
C      1  0.4569360000000  0.5672140000000  0.4701280000000 1.0
C      1  0.5302230000000  0.5124680000000  0.4600240000000 1.0
C      1  0.4922250000000  0.4800660000000  0.4882010000000 1.0
C      1  0.4919960000000  0.5075520000000  0.4096420000000 1.0
C      1  0.4721820000000  0.4767470000000  0.5462570000000 1.0
C      1  0.5330290000000  0.5584500000000  0.4384910000000 1.0
C      1  0.5601840000000  0.4823680000000  0.4401610000000 1.0
C      1  0.4601060000000  0.4614190000000  0.5705550000000 1.0
C      1  0.5723470000000  0.5023320000000  0.4200360000000 1.0
C      1  0.4610430000000  0.5409700000000  0.4322070000000 1.0
C      1  0.5770260000000  0.4381110000000  0.4663050000000 1.0
C      1  0.4561950000000  0.4237200000000  0.5406650000000 1.0
C      1  0.5293740000000  0.4885520000000  0.5676160000000 1.0
C      1  0.5191720000000  0.4589360000000  0.5623320000000 1.0
C      1  0.4998240000000  0.5916210000000  0.4707740000000 1.0
C      1  0.5475660000000  0.5637620000000  0.5264290000000 1.0
C      1  0.4830000000000  0.4794630000000  0.4104950000000 1.0
C      1  0.5808930000000  0.5194940000000  0.4654810000000 1.0
C      1  0.4032420000000  0.5010760000000  0.4884390000000 1.0
C      1  0.5504660000000  0.5341510000000  0.5653410000000 1.0
C      1  0.4018210000000  0.5190240000000  0.5120760000000 1.0
C      1  0.5753300000000  0.5477910000000  0.4583610000000 1.0
C      1  0.5284440000000  0.4843550000000  0.5240410000000 1.0
C      1  0.4615510000000  0.4334200000000  0.4385880000000 1.0
C      1  0.5180110000000  0.5032410000000  0.5901920000000 1.0
C      1  0.4312010000000  0.4680370000000  0.5717080000000 1.0
C      1  0.5786890000000  0.4767530000000  0.5474820000000 1.0
C      1  0.5315790000000  0.4782660000000  0.4287810000000 1.0
C      1  0.4922060000000  0.5447270000000  0.5280920000000 1.0
C      1  0.5821760000000  0.5334150000000  0.5134080000000 1.0
C      1  0.5596890000000  0.4511330000000  0.5089090000000 1.0
C      1  0.4671370000000  0.4769920000000  0.4355960000000 1.0
C      1  0.4395560000000  0.4664140000000  0.4743090000000 1.0
C      1  0.5536220000000  0.4664720000000  0.5335760000000 1.0
C      1  0.5713420000000  0.5604110000000  0.5092340000000 1.0
C      1  0.4494480000000  0.5098760000000  0.5926010000000 1.0
C      1  0.6017450000000  0.4714740000000  0.4932410000000 1.0
C      1  0.4245720000000  0.5406490000000  0.5498610000000 1.0
C      1  0.4173560000000  0.4798220000000  0.5280720000000 1.0
C      1  0.5206710000000  0.5362140000000  0.5330820000000 1.0
C      1  0.5108340000000  0.4643640000000  0.5104720000000 1.0
C      1  0.4479970000000  0.5749800000000  0.4967930000000 1.0
C      1  0.5462610000000  0.5625530000000  0.5550150000000 1.0
C      1  0.4709220000000  0.5273400000000  0.5404230000000 1.0
C      1  0.4662700000000  0.4322300000000  0.5671100000000 1.0
C      1  0.4461760000000  0.5191360000000  0.4701860000000 1.0
C      1  0.4321220000000  0.4978100000000  0.5734240000000 1.0
C      1  0.4915730000000  0.4193970000000  0.4731220000000 1.0
C      1  0.4784390000000  0.4211810000000  0.5219800000000 1.0
C      1  0.5414890000000  0.4438760000000  0.5493720000000 1.0
C      1  0.5047200000000  0.5089270000000  0.4961220000000 1.0
C      1  0.5357330000000  0.4239710000000  0.4759380000000 1.0
C      1  0.4753680000000  0.5185570000000  0.4601780000000 1.0
C      1  0.5595350000000  0.5089110000000  0.5462970000000 1.0
C      1  0.5155740000000  0.5039900000000  0.5446520000000 1.0
C      1  0.5103300000000  0.4401910000000  0.4324430000000 1.0
C      1  0.5071130000000  0.5502230000000  0.5783960000000 1.0
C      1  0.4864060000000  0.4905070000000  0.4550500000000 1.0
C      1  0.5107770000000  0.5512970000000  0.4209860000000 1.0
C      1  0.5948430000000  0.4966210000000  0.5348260000000 1.0
C      1  0.5586510000000  0.5154270000000  0.5167910000000 1.0
C      1  0.5303900000000  0.4239920000000  0.5287930000000 1.0
C      1  0.5568540000000  0.5005820000000  0.4643580000000 1.0
C      1  0.4859170000000  0.5545690000000  0.4367830000000 1.0
C      1  0.4304710000000  0.4947400000000  0.4617240000000 1.0
END
