TITL C-950536-5891-675 -4.02617891102906e-06 125000 -770.633001732371 0 0 123 (C1) n - 1
REM
REM in /home/bkarasulu/work/CARBON/AIRSS/Generating-Clusters/EDIP-Nigel-Params/with-SteepDescent/Only-C1/SD-CG/HFTN-CG
REM
REM
REM
REM
REM
REM ./C.cell (11c1c37f851c82e70ff6c80c92926a4b)
REM
REM compiler GCC version 9.2.1 20190827 (Red Hat 9.2.1-1)
REM options -cpp -mtune=generic -march=x86-64 -g -O0 -fpre-include=/usr/include/finclude/math-vector-fortran.h
REM seed -1369799645 -1359396032 -1869166276 -56549528 -333243877 1791308680 795872292 -1299874492 770338558 -247503304 1325277209 -1777430967 469662586 -2031957372 1357130907 11191644 197755136 444320162 -202088136 117659363 107851401 -966294096 -479860111 1425736686 957272362 -10628484 229316821 -1813765446 -1194909068 -679803492 -274124261 1515699930 827845504
REM
CELL 1.54180   50.00000   50.00000   50.00000   90.00000   90.00000   90.00000
LATT -1
SFAC C  
C      1  0.4352480000000  0.4266210000000  0.4707140000000 1.0
C      1  0.4376830000000  0.4706190000000  0.5765700000000 1.0
C      1  0.5628080000000  0.5774120000000  0.4706890000000 1.0
C      1  0.5047640000000  0.5813690000000  0.4544930000000 1.0
C      1  0.4628610000000  0.5112730000000  0.5861380000000 1.0
C      1  0.4451950000000  0.4502660000000  0.5556140000000 1.0
C      1  0.4858280000000  0.4465940000000  0.4144410000000 1.0
C      1  0.5576180000000  0.4629270000000  0.4579520000000 1.0
C      1  0.4833740000000  0.4888630000000  0.5059290000000 1.0
C      1  0.5192340000000  0.4682350000000  0.5288860000000 1.0
C      1  0.4852870000000  0.4631060000000  0.5728880000000 1.0
C      1  0.5943860000000  0.4552120000000  0.5453430000000 1.0
C      1  0.5441280000000  0.4855030000000  0.5240730000000 1.0
C      1  0.4101960000000  0.5358440000000  0.4869730000000 1.0
C      1  0.5827830000000  0.4523320000000  0.4722380000000 1.0
C      1  0.5548510000000  0.4498800000000  0.5726340000000 1.0
C      1  0.4771610000000  0.5500320000000  0.5552010000000 1.0
C      1  0.5961320000000  0.4787700000000  0.4756980000000 1.0
C      1  0.5218320000000  0.4343990000000  0.4664120000000 1.0
C      1  0.4627380000000  0.5242840000000  0.4730200000000 1.0
C      1  0.4422220000000  0.5040260000000  0.4831200000000 1.0
C      1  0.5976350000000  0.4856050000000  0.5040000000000 1.0
C      1  0.4748690000000  0.5726460000000  0.4571180000000 1.0
C      1  0.5056800000000  0.5209250000000  0.5812920000000 1.0
C      1  0.5175350000000  0.4287270000000  0.5470540000000 1.0
C      1  0.4736940000000  0.4316580000000  0.4386250000000 1.0
C      1  0.5079480000000  0.4530660000000  0.5898600000000 1.0
C      1  0.5246280000000  0.5490980000000  0.5429960000000 1.0
C      1  0.5818750000000  0.5649090000000  0.4922320000000 1.0
C      1  0.4690970000000  0.4903380000000  0.4190890000000 1.0
C      1  0.4631700000000  0.4666840000000  0.4634540000000 1.0
C      1  0.5385960000000  0.4345490000000  0.5286200000000 1.0
C      1  0.5490450000000  0.5557120000000  0.4538140000000 1.0
C      1  0.4269370000000  0.5032170000000  0.4420810000000 1.0
C      1  0.4684540000000  0.4930270000000  0.5335890000000 1.0
C      1  0.4083770000000  0.4644840000000  0.4753400000000 1.0
C      1  0.4937470000000  0.4238250000000  0.4618200000000 1.0
C      1  0.4700900000000  0.4671600000000  0.4012270000000 1.0
C      1  0.4046000000000  0.4959120000000  0.5138060000000 1.0
C      1  0.4915980000000  0.4884360000000  0.6157800000000 1.0
C      1  0.3943580000000  0.4821200000000  0.4920870000000 1.0
C      1  0.4906090000000  0.5930790000000  0.4977810000000 1.0
C      1  0.5915300000000  0.5146470000000  0.5110620000000 1.0
C      1  0.4508910000000  0.5670720000000  0.4990450000000 1.0
C      1  0.4616860000000  0.5368860000000  0.4250720000000 1.0
C      1  0.5424640000000  0.5870020000000  0.4897320000000 1.0
C      1  0.5166880000000  0.4625550000000  0.4780290000000 1.0
C      1  0.4569240000000  0.5475190000000  0.4519840000000 1.0
C      1  0.4719460000000  0.4396360000000  0.5606940000000 1.0
C      1  0.4491120000000  0.4559810000000  0.5064010000000 1.0
C      1  0.5256720000000  0.5415730000000  0.5723260000000 1.0
C      1  0.4974540000000  0.5626820000000  0.5388200000000 1.0
C      1  0.5737680000000  0.4665280000000  0.5600390000000 1.0
C      1  0.4580570000000  0.4795740000000  0.4889500000000 1.0
C      1  0.4535860000000  0.5794900000000  0.5271610000000 1.0
C      1  0.4851160000000  0.5150160000000  0.6071210000000 1.0
C      1  0.5279700000000  0.4407590000000  0.5723050000000 1.0
C      1  0.5801070000000  0.5156780000000  0.5389340000000 1.0
C      1  0.5689210000000  0.5376380000000  0.4396080000000 1.0
C      1  0.4240400000000  0.4441030000000  0.4910120000000 1.0
C      1  0.4255010000000  0.5188380000000  0.5638540000000 1.0
C      1  0.4798080000000  0.4818990000000  0.4465470000000 1.0
C      1  0.5369030000000  0.4179580000000  0.4844170000000 1.0
C      1  0.4455970000000  0.4463280000000  0.4501700000000 1.0
C      1  0.4982150000000  0.5447120000000  0.4329050000000 1.0
C      1  0.4500090000000  0.5591930000000  0.5492170000000 1.0
C      1  0.4202740000000  0.4910880000000  0.5627810000000 1.0
C      1  0.5524980000000  0.5305250000000  0.5750860000000 1.0
C      1  0.4272250000000  0.5539680000000  0.4560510000000 1.0
C      1  0.5151330000000  0.4785070000000  0.6021860000000 1.0
C      1  0.4543110000000  0.4094140000000  0.4815800000000 1.0
C      1  0.5885630000000  0.4615390000000  0.5186310000000 1.0
C      1  0.4994840000000  0.4816330000000  0.5512430000000 1.0
C      1  0.5794120000000  0.4991190000000  0.4657080000000 1.0
C      1  0.4801230000000  0.4180910000000  0.4872930000000 1.0
C      1  0.5781260000000  0.4416350000000  0.4996610000000 1.0
C      1  0.5000050000000  0.4608780000000  0.4385130000000 1.0
C      1  0.4949750000000  0.5406200000000  0.5010670000000 1.0
C      1  0.5528770000000  0.5144720000000  0.4296760000000 1.0
C      1  0.5473220000000  0.4593010000000  0.4291390000000 1.0
C      1  0.4804150000000  0.5225750000000  0.5639750000000 1.0
C      1  0.5622290000000  0.4916260000000  0.5479720000000 1.0
C      1  0.5469910000000  0.5284790000000  0.5000410000000 1.0
C      1  0.4638510000000  0.4805110000000  0.5899650000000 1.0
C      1  0.5388010000000  0.4826740000000  0.4724900000000 1.0
C      1  0.4218570000000  0.4730940000000  0.4493360000000 1.0
C      1  0.4863830000000  0.5066550000000  0.4629500000000 1.0
C      1  0.4882020000000  0.4299070000000  0.5379950000000 1.0
C      1  0.4094150000000  0.4811740000000  0.5376550000000 1.0
C      1  0.5233710000000  0.5645710000000  0.4369080000000 1.0
C      1  0.5056760000000  0.5450760000000  0.4723580000000 1.0
C      1  0.4671050000000  0.5850220000000  0.4820180000000 1.0
C      1  0.5555530000000  0.4958800000000  0.4964080000000 1.0
C      1  0.4908510000000  0.4997040000000  0.4015550000000 1.0
C      1  0.4837930000000  0.5858620000000  0.5261810000000 1.0
C      1  0.5564070000000  0.5576430000000  0.5089460000000 1.0
C      1  0.5235000000000  0.4755970000000  0.4273570000000 1.0
C      1  0.5703040000000  0.5410090000000  0.5530320000000 1.0
C      1  0.4120190000000  0.5265390000000  0.4547620000000 1.0
C      1  0.5468560000000  0.5020910000000  0.5707550000000 1.0
C      1  0.5528360000000  0.4267920000000  0.5052220000000 1.0
C      1  0.4650070000000  0.5393350000000  0.5003770000000 1.0
C      1  0.5009750000000  0.4639460000000  0.5043810000000 1.0
C      1  0.5342460000000  0.5103120000000  0.4533580000000 1.0
C      1  0.5352610000000  0.5353000000000  0.4718970000000 1.0
C      1  0.4239790000000  0.5634280000000  0.4859350000000 1.0
C      1  0.4252830000000  0.5149280000000  0.5042170000000 1.0
C      1  0.4801530000000  0.4397340000000  0.5090550000000 1.0
C      1  0.5189890000000  0.4961200000000  0.4075680000000 1.0
C      1  0.5245900000000  0.5241050000000  0.5211410000000 1.0
C      1  0.5527820000000  0.5607590000000  0.5380290000000 1.0
C      1  0.5391280000000  0.5158660000000  0.4048570000000 1.0
C      1  0.5372860000000  0.4346650000000  0.4409580000000 1.0
C      1  0.4333020000000  0.5359170000000  0.5428560000000 1.0
C      1  0.4454520000000  0.4701960000000  0.5329970000000 1.0
C      1  0.5183240000000  0.4946940000000  0.5759980000000 1.0
C      1  0.5874510000000  0.5258990000000  0.4605230000000 1.0
C      1  0.5059010000000  0.5173880000000  0.4439530000000 1.0
C      1  0.5148080000000  0.5868810000000  0.4820830000000 1.0
C      1  0.4504190000000  0.5216600000000  0.5232070000000 1.0
C      1  0.5021630000000  0.5123960000000  0.5039600000000 1.0
C      1  0.5892170000000  0.5361290000000  0.4883160000000 1.0
C      1  0.4477050000000  0.5110650000000  0.4217340000000 1.0
END
