TITL C-951343-2256-397 -3.18545157431806e-06 125000 -848.539614447047 0 0 136 (C1) n - 1
REM
REM in /home/bkarasulu/work/CARBON/AIRSS/Generating-Clusters/EDIP-Nigel-Params/with-SteepDescent/Only-C1/SD-CG/HFTN-CG
REM
REM
REM
REM
REM
REM ./C.cell (11c1c37f851c82e70ff6c80c92926a4b)
REM
REM compiler GCC version 9.2.1 20190827 (Red Hat 9.2.1-1)
REM options -cpp -mtune=generic -march=x86-64 -g -O0 -fpre-include=/usr/include/finclude/math-vector-fortran.h
REM seed -657268667 -2084975457 1503721037 35431025 720339395 -1933042981 1543252041 -1388721424 135206074 559919228 654727392 941309973 1661776629 -624639929 -1951276866 -1252065396 -708641660 1835231427 -1555679434 -1337069721 -1042310382 487010992 1929280787 1843281482 -703985423 -1235509428 975497174 -1004258079 817606833 -2084416667 -961067729 -960588328 1241670553
REM
CELL 1.54180   50.00000   50.00000   50.00000   90.00000   90.00000   90.00000
LATT -1
SFAC C  
C      1  0.4875910000000  0.4592160000000  0.4208890000000 1.0
C      1  0.4609740000000  0.4054630000000  0.4970020000000 1.0
C      1  0.4445620000000  0.5794760000000  0.5375630000000 1.0
C      1  0.5369040000000  0.5017840000000  0.5484490000000 1.0
C      1  0.3943880000000  0.4809750000000  0.4913570000000 1.0
C      1  0.4090990000000  0.4629480000000  0.5108980000000 1.0
C      1  0.6076050000000  0.4900910000000  0.4623450000000 1.0
C      1  0.4489390000000  0.4626460000000  0.5704550000000 1.0
C      1  0.5765170000000  0.4506570000000  0.4520990000000 1.0
C      1  0.5667280000000  0.4284650000000  0.4705540000000 1.0
C      1  0.4879830000000  0.5264080000000  0.5962930000000 1.0
C      1  0.5574290000000  0.4515810000000  0.4299550000000 1.0
C      1  0.5632260000000  0.4548010000000  0.5549300000000 1.0
C      1  0.5170220000000  0.5135790000000  0.4072430000000 1.0
C      1  0.4601380000000  0.5068540000000  0.5236560000000 1.0
C      1  0.6056570000000  0.5159420000000  0.4745500000000 1.0
C      1  0.5543820000000  0.4985930000000  0.5741180000000 1.0
C      1  0.5019990000000  0.3917400000000  0.4708570000000 1.0
C      1  0.5944220000000  0.5261430000000  0.4489420000000 1.0
C      1  0.5085610000000  0.4647350000000  0.4029950000000 1.0
C      1  0.5628680000000  0.5449720000000  0.5785060000000 1.0
C      1  0.5742380000000  0.4826630000000  0.4906660000000 1.0
C      1  0.4767570000000  0.4214830000000  0.5189770000000 1.0
C      1  0.4805520000000  0.5635830000000  0.5873420000000 1.0
C      1  0.5289140000000  0.4764750000000  0.4878670000000 1.0
C      1  0.4436040000000  0.5370750000000  0.5574840000000 1.0
C      1  0.5332290000000  0.5709040000000  0.4609280000000 1.0
C      1  0.4089450000000  0.4724550000000  0.5390860000000 1.0
C      1  0.4913650000000  0.4356310000000  0.4379220000000 1.0
C      1  0.5775860000000  0.4581270000000  0.5075230000000 1.0
C      1  0.5357570000000  0.5507840000000  0.5837720000000 1.0
C      1  0.5807330000000  0.4794890000000  0.4608710000000 1.0
C      1  0.4802540000000  0.4820800000000  0.4740060000000 1.0
C      1  0.4613290000000  0.5481910000000  0.4892150000000 1.0
C      1  0.5176470000000  0.5258080000000  0.5854720000000 1.0
C      1  0.4758020000000  0.4020130000000  0.4712000000000 1.0
C      1  0.5003990000000  0.5504820000000  0.4572770000000 1.0
C      1  0.4016090000000  0.5242700000000  0.4687770000000 1.0
C      1  0.5361340000000  0.5865110000000  0.4857800000000 1.0
C      1  0.4872420000000  0.5506660000000  0.4152670000000 1.0
C      1  0.4828940000000  0.5490090000000  0.5341950000000 1.0
C      1  0.5052070000000  0.4481510000000  0.4610230000000 1.0
C      1  0.4480080000000  0.4406530000000  0.4682400000000 1.0
C      1  0.5228570000000  0.4417240000000  0.5778360000000 1.0
C      1  0.5710950000000  0.5308610000000  0.5219980000000 1.0
C      1  0.5033480000000  0.6062560000000  0.5079610000000 1.0
C      1  0.4885480000000  0.5220310000000  0.4084790000000 1.0
C      1  0.5152240000000  0.5601500000000  0.4170100000000 1.0
C      1  0.4234820000000  0.4874970000000  0.4155810000000 1.0
C      1  0.4108460000000  0.4965820000000  0.4723930000000 1.0
C      1  0.4451440000000  0.4951970000000  0.5001390000000 1.0
C      1  0.5145930000000  0.4309330000000  0.4833500000000 1.0
C      1  0.4950790000000  0.4513570000000  0.5806330000000 1.0
C      1  0.4685620000000  0.5312790000000  0.4657880000000 1.0
C      1  0.4545670000000  0.4913990000000  0.5732650000000 1.0
C      1  0.4922240000000  0.5941460000000  0.5492730000000 1.0
C      1  0.5772150000000  0.4692550000000  0.5342150000000 1.0
C      1  0.4272000000000  0.4541560000000  0.4516630000000 1.0
C      1  0.5933680000000  0.4914690000000  0.5404270000000 1.0
C      1  0.5695020000000  0.4984470000000  0.4372340000000 1.0
C      1  0.4271110000000  0.4600050000000  0.4230250000000 1.0
C      1  0.3857750000000  0.5308260000000  0.4926360000000 1.0
C      1  0.5032850000000  0.5203560000000  0.5001510000000 1.0
C      1  0.4753670000000  0.4505390000000  0.5106550000000 1.0
C      1  0.4156300000000  0.5011980000000  0.5423820000000 1.0
C      1  0.4615240000000  0.4225480000000  0.5458540000000 1.0
C      1  0.4733840000000  0.5739140000000  0.4824030000000 1.0
C      1  0.4754720000000  0.5310260000000  0.5122600000000 1.0
C      1  0.5593750000000  0.4341970000000  0.4996740000000 1.0
C      1  0.4324010000000  0.4293610000000  0.5396160000000 1.0
C      1  0.5752670000000  0.5206450000000  0.5716860000000 1.0
C      1  0.4477220000000  0.5375270000000  0.4440770000000 1.0
C      1  0.5006550000000  0.5803750000000  0.5737470000000 1.0
C      1  0.4171970000000  0.5108940000000  0.5139620000000 1.0
C      1  0.4367230000000  0.4217920000000  0.4891690000000 1.0
C      1  0.5645420000000  0.5612020000000  0.5193260000000 1.0
C      1  0.5795890000000  0.5264230000000  0.4903660000000 1.0
C      1  0.5454700000000  0.4132630000000  0.4572920000000 1.0
C      1  0.5372790000000  0.5725010000000  0.5124400000000 1.0
C      1  0.4165070000000  0.5426940000000  0.5124280000000 1.0
C      1  0.5108630000000  0.5428170000000  0.5425690000000 1.0
C      1  0.5351260000000  0.4350900000000  0.4396350000000 1.0
C      1  0.5846720000000  0.5546840000000  0.4569630000000 1.0
C      1  0.4956130000000  0.4759240000000  0.5963750000000 1.0
C      1  0.3808940000000  0.5042160000000  0.5039910000000 1.0
C      1  0.5082290000000  0.4160620000000  0.5235830000000 1.0
C      1  0.5547150000000  0.4783500000000  0.4176330000000 1.0
C      1  0.4791890000000  0.5899490000000  0.5054460000000 1.0
C      1  0.4704630000000  0.5052760000000  0.4235770000000 1.0
C      1  0.5164640000000  0.5975350000000  0.5323820000000 1.0
C      1  0.4746280000000  0.5795770000000  0.4540570000000 1.0
C      1  0.4255220000000  0.4537390000000  0.5552170000000 1.0
C      1  0.4438100000000  0.5084930000000  0.5503420000000 1.0
C      1  0.5340020000000  0.4054910000000  0.5066110000000 1.0
C      1  0.5153480000000  0.4949800000000  0.4472800000000 1.0
C      1  0.5554280000000  0.5536320000000  0.4531820000000 1.0
C      1  0.5297060000000  0.3958190000000  0.4771960000000 1.0
C      1  0.5231330000000  0.4802810000000  0.6068080000000 1.0
C      1  0.5470670000000  0.5293370000000  0.4687510000000 1.0
C      1  0.4779360000000  0.4984000000000  0.5899670000000 1.0
C      1  0.5274550000000  0.4854170000000  0.4062030000000 1.0
C      1  0.5230240000000  0.5646590000000  0.5614830000000 1.0
C      1  0.5194040000000  0.5802170000000  0.4371060000000 1.0
C      1  0.5432420000000  0.5129120000000  0.4424780000000 1.0
C      1  0.5358220000000  0.5053010000000  0.5973170000000 1.0
C      1  0.5248700000000  0.5359770000000  0.5163970000000 1.0
C      1  0.5021020000000  0.4868730000000  0.4974700000000 1.0
C      1  0.4613920000000  0.5042310000000  0.4755100000000 1.0
C      1  0.4292570000000  0.4840500000000  0.4535560000000 1.0
C      1  0.5486470000000  0.4959380000000  0.4968540000000 1.0
C      1  0.4306070000000  0.5550230000000  0.5381790000000 1.0
C      1  0.5350960000000  0.4467810000000  0.5517540000000 1.0
C      1  0.4236900000000  0.4361540000000  0.5117010000000 1.0
C      1  0.5325150000000  0.4491490000000  0.5004150000000 1.0
C      1  0.5456150000000  0.5147000000000  0.5216390000000 1.0
C      1  0.4649680000000  0.5609880000000  0.4333050000000 1.0
C      1  0.5882870000000  0.5187920000000  0.5449250000000 1.0
C      1  0.5406090000000  0.4574000000000  0.5969700000000 1.0
C      1  0.4962220000000  0.4674800000000  0.5210300000000 1.0
C      1  0.4226640000000  0.5445120000000  0.4620850000000 1.0
C      1  0.4706350000000  0.4438170000000  0.5659290000000 1.0
C      1  0.4857180000000  0.4837650000000  0.4386230000000 1.0
C      1  0.5122700000000  0.5254490000000  0.4708310000000 1.0
C      1  0.4419300000000  0.5089630000000  0.4198300000000 1.0
C      1  0.5136170000000  0.5172600000000  0.5572200000000 1.0
C      1  0.5836050000000  0.5563960000000  0.4873210000000 1.0
C      1  0.5196950000000  0.6090150000000  0.4854100000000 1.0
C      1  0.5332030000000  0.5366930000000  0.4143170000000 1.0
C      1  0.5276690000000  0.4693560000000  0.4574650000000 1.0
C      1  0.4609370000000  0.4618800000000  0.4874750000000 1.0
C      1  0.4321000000000  0.5519780000000  0.4889530000000 1.0
C      1  0.4733210000000  0.5777530000000  0.5322510000000 1.0
C      1  0.4678630000000  0.4233530000000  0.4519540000000 1.0
C      1  0.5178300000000  0.4454100000000  0.5267860000000 1.0
C      1  0.4595290000000  0.5456660000000  0.5803620000000 1.0
C      1  0.5634550000000  0.4694430000000  0.5803910000000 1.0
END
