TITL C-951340-9809-628 -1.64659062531793e-07 125000 -257.286699303036 0 0 43 (C1) n - 1
REM
REM in /home/bkarasulu/work/CARBON/AIRSS/Generating-Clusters/EDIP-Nigel-Params/with-SteepDescent/Only-C1/SD-CG/HFTN-CG
REM
REM
REM
REM
REM
REM ./C.cell (11c1c37f851c82e70ff6c80c92926a4b)
REM
REM compiler GCC version 9.2.1 20190827 (Red Hat 9.2.1-1)
REM options -cpp -mtune=generic -march=x86-64 -g -O0 -fpre-include=/usr/include/finclude/math-vector-fortran.h
REM seed 99369894 1024120688 2131258485 -57332823 -1316719691 -1038424760 818483278 -1932459699 665753183 -1188020441 -2045863896 -1259879040 204041104 -1676955791 2135352642 1412234594 1085758699 909599719 -1879730356 1916759324 1770587268 -639842351 -968421495 -1146216855 -1236271885 -1647564301 -945613181 1098709566 1557004933 -2125909266 -1655952900 1046487154 2028598159
REM
CELL 1.54180   50.00000   50.00000   50.00000   90.00000   90.00000   90.00000
LATT -1
SFAC C  
C      1  0.5069430000000  0.4863370000000  0.5569110000000 1.0
C      1  0.5288270000000  0.4416600000000  0.5197100000000 1.0
C      1  0.5332280000000  0.4938510000000  0.4753620000000 1.0
C      1  0.4950520000000  0.5176080000000  0.4623780000000 1.0
C      1  0.5365950000000  0.5208170000000  0.4365830000000 1.0
C      1  0.5452800000000  0.5103520000000  0.5393130000000 1.0
C      1  0.4650720000000  0.4765730000000  0.4853980000000 1.0
C      1  0.5267310000000  0.5503570000000  0.5377150000000 1.0
C      1  0.5429800000000  0.5344200000000  0.5540180000000 1.0
C      1  0.4353930000000  0.4762540000000  0.5210730000000 1.0
C      1  0.5409800000000  0.4933610000000  0.4290330000000 1.0
C      1  0.4635490000000  0.5186950000000  0.4638970000000 1.0
C      1  0.5577210000000  0.5097420000000  0.5128930000000 1.0
C      1  0.5042310000000  0.4970590000000  0.4828900000000 1.0
C      1  0.4909010000000  0.4605800000000  0.4354350000000 1.0
C      1  0.4660870000000  0.4989410000000  0.5054230000000 1.0
C      1  0.5532240000000  0.5339890000000  0.4958200000000 1.0
C      1  0.5351060000000  0.5546550000000  0.5095700000000 1.0
C      1  0.5078620000000  0.5123380000000  0.4353580000000 1.0
C      1  0.5332140000000  0.4692780000000  0.5199120000000 1.0
C      1  0.4541410000000  0.5226420000000  0.4923630000000 1.0
C      1  0.5332820000000  0.4841190000000  0.5452830000000 1.0
C      1  0.4596910000000  0.4385920000000  0.5141480000000 1.0
C      1  0.5488400000000  0.4845230000000  0.4996640000000 1.0
C      1  0.4494660000000  0.4858870000000  0.5436930000000 1.0
C      1  0.4699160000000  0.4771560000000  0.4375790000000 1.0
C      1  0.4593540000000  0.5406090000000  0.5376770000000 1.0
C      1  0.4919400000000  0.5384870000000  0.5087470000000 1.0
C      1  0.5404420000000  0.5249110000000  0.4681110000000 1.0
C      1  0.4895100000000  0.5448250000000  0.5387950000000 1.0
C      1  0.5154830000000  0.4581010000000  0.4458020000000 1.0
C      1  0.4466290000000  0.4595060000000  0.5009070000000 1.0
C      1  0.4504740000000  0.5143920000000  0.5452060000000 1.0
C      1  0.5102050000000  0.5562200000000  0.4934870000000 1.0
C      1  0.5044320000000  0.4366390000000  0.5298260000000 1.0
C      1  0.4904060000000  0.5007110000000  0.5369210000000 1.0
C      1  0.5028720000000  0.5102880000000  0.5102570000000 1.0
C      1  0.4735600000000  0.4684320000000  0.5507570000000 1.0
C      1  0.4546690000000  0.5463880000000  0.5087180000000 1.0
C      1  0.4780620000000  0.4439730000000  0.5344870000000 1.0
C      1  0.4576360000000  0.4891350000000  0.4595800000000 1.0
C      1  0.5363230000000  0.4757860000000  0.4511210000000 1.0
C      1  0.5136910000000  0.5418110000000  0.4681780000000 1.0
END
