TITL C-951338-5626-685 -8.69456468610072e-07 125000 -969.24811425405 0 0 156 (C1) n - 1
REM
REM in /home/bkarasulu/work/CARBON/AIRSS/Generating-Clusters/EDIP-Nigel-Params/with-SteepDescent/Only-C1/SD-CG/HFTN-CG
REM
REM
REM
REM
REM
REM ./C.cell (11c1c37f851c82e70ff6c80c92926a4b)
REM
REM compiler GCC version 9.2.1 20190827 (Red Hat 9.2.1-1)
REM options -cpp -mtune=generic -march=x86-64 -g -O0 -fpre-include=/usr/include/finclude/math-vector-fortran.h
REM seed -1779712484 -1009806730 64691195 607475818 -918243939 -2052457282 -1120024101 1422470884 324516349 1025079295 1203961897 1522294139 1558194663 -1949506103 -1004318885 -1608401302 553670207 1593553762 1864586900 -1320321576 -1258750373 -680642578 -275041143 -903111323 1860346831 880933605 -782167625 192169189 1056646223 1030561585 -1276010221 -284922290 818998772
REM
CELL 1.54180   50.00000   50.00000   50.00000   90.00000   90.00000   90.00000
LATT -1
SFAC C  
C      1  0.4458890000000  0.4821440000000  0.5908210000000 1.0
C      1  0.5445980000000  0.4597500000000  0.5114860000000 1.0
C      1  0.5276730000000  0.5204900000000  0.4029530000000 1.0
C      1  0.4993370000000  0.4820650000000  0.5586750000000 1.0
C      1  0.4762040000000  0.4666850000000  0.5313110000000 1.0
C      1  0.4670730000000  0.4539460000000  0.4828450000000 1.0
C      1  0.4163400000000  0.5841860000000  0.4951230000000 1.0
C      1  0.3950070000000  0.5313620000000  0.5310660000000 1.0
C      1  0.5171180000000  0.5085410000000  0.5564000000000 1.0
C      1  0.4865840000000  0.5754370000000  0.4275820000000 1.0
C      1  0.5490530000000  0.4772080000000  0.5592790000000 1.0
C      1  0.4188390000000  0.5701840000000  0.4703510000000 1.0
C      1  0.5189590000000  0.5172880000000  0.5287020000000 1.0
C      1  0.6013150000000  0.5140590000000  0.4571840000000 1.0
C      1  0.4895040000000  0.5412600000000  0.5511370000000 1.0
C      1  0.5785700000000  0.5361730000000  0.5387080000000 1.0
C      1  0.4830900000000  0.4160060000000  0.5293980000000 1.0
C      1  0.5445750000000  0.5079320000000  0.5192290000000 1.0
C      1  0.4825890000000  0.5757570000000  0.4777150000000 1.0
C      1  0.5467810000000  0.4678440000000  0.4834800000000 1.0
C      1  0.5912520000000  0.5096900000000  0.4291350000000 1.0
C      1  0.3931970000000  0.5062260000000  0.4888080000000 1.0
C      1  0.5819390000000  0.4423520000000  0.4603800000000 1.0
C      1  0.4149760000000  0.5158940000000  0.5105290000000 1.0
C      1  0.5039100000000  0.4802160000000  0.3943190000000 1.0
C      1  0.5484940000000  0.5366000000000  0.4140970000000 1.0
C      1  0.4807970000000  0.4962570000000  0.3987310000000 1.0
C      1  0.4751090000000  0.5177090000000  0.5649060000000 1.0
C      1  0.5093440000000  0.4379740000000  0.4837260000000 1.0
C      1  0.4807930000000  0.4465620000000  0.5965550000000 1.0
C      1  0.5293510000000  0.4903760000000  0.4067720000000 1.0
C      1  0.4308350000000  0.5255240000000  0.4271530000000 1.0
C      1  0.4920880000000  0.5166820000000  0.5142610000000 1.0
C      1  0.4847120000000  0.3923210000000  0.4872410000000 1.0
C      1  0.5846470000000  0.4836270000000  0.4213030000000 1.0
C      1  0.4060170000000  0.4506740000000  0.4862850000000 1.0
C      1  0.4959900000000  0.4248750000000  0.5538260000000 1.0
C      1  0.4783570000000  0.5374620000000  0.4521250000000 1.0
C      1  0.4619190000000  0.5600920000000  0.4365540000000 1.0
C      1  0.4430650000000  0.5909750000000  0.5012710000000 1.0
C      1  0.5481540000000  0.4995010000000  0.4457080000000 1.0
C      1  0.4609910000000  0.5040900000000  0.4805080000000 1.0
C      1  0.5582080000000  0.4942630000000  0.4745660000000 1.0
C      1  0.5960650000000  0.5516190000000  0.4920450000000 1.0
C      1  0.5397920000000  0.5654720000000  0.5220000000000 1.0
C      1  0.4995450000000  0.5809860000000  0.4535510000000 1.0
C      1  0.5054950000000  0.4846240000000  0.4797610000000 1.0
C      1  0.4922370000000  0.5643380000000  0.5691130000000 1.0
C      1  0.5871520000000  0.5772520000000  0.5001760000000 1.0
C      1  0.4783900000000  0.4441430000000  0.5674840000000 1.0
C      1  0.5454820000000  0.5122670000000  0.5962990000000 1.0
C      1  0.4616770000000  0.4761200000000  0.4073190000000 1.0
C      1  0.5182120000000  0.5271550000000  0.5906910000000 1.0
C      1  0.4554810000000  0.4278720000000  0.5331160000000 1.0
C      1  0.4581220000000  0.5922930000000  0.4764160000000 1.0
C      1  0.4405080000000  0.4694690000000  0.5170280000000 1.0
C      1  0.4235280000000  0.4676080000000  0.4718120000000 1.0
C      1  0.5505120000000  0.5446290000000  0.5435080000000 1.0
C      1  0.5588320000000  0.4710640000000  0.4219980000000 1.0
C      1  0.5671060000000  0.4354000000000  0.5628310000000 1.0
C      1  0.5190810000000  0.6018630000000  0.4876000000000 1.0
C      1  0.5538510000000  0.5536670000000  0.4791520000000 1.0
C      1  0.5936900000000  0.5419710000000  0.4644400000000 1.0
C      1  0.5172370000000  0.5062990000000  0.4433170000000 1.0
C      1  0.5179520000000  0.6011620000000  0.4601730000000 1.0
C      1  0.5213300000000  0.4378740000000  0.5513220000000 1.0
C      1  0.4486650000000  0.5380420000000  0.5284130000000 1.0
C      1  0.4045610000000  0.4884430000000  0.5483100000000 1.0
C      1  0.4852130000000  0.4844890000000  0.4408580000000 1.0
C      1  0.4005120000000  0.5169420000000  0.5570930000000 1.0
C      1  0.5489240000000  0.5070350000000  0.5666960000000 1.0
C      1  0.5561660000000  0.4797630000000  0.5293680000000 1.0
C      1  0.5677080000000  0.4603720000000  0.5760150000000 1.0
C      1  0.5177770000000  0.5562170000000  0.5836790000000 1.0
C      1  0.4021810000000  0.5210230000000  0.4647020000000 1.0
C      1  0.5194580000000  0.4666920000000  0.4404400000000 1.0
C      1  0.5529810000000  0.4614570000000  0.6022380000000 1.0
C      1  0.5410900000000  0.5639400000000  0.5663580000000 1.0
C      1  0.4452610000000  0.5462180000000  0.4160850000000 1.0
C      1  0.4411380000000  0.5119380000000  0.5920230000000 1.0
C      1  0.4194230000000  0.5416840000000  0.4750170000000 1.0
C      1  0.4405120000000  0.5509020000000  0.5631460000000 1.0
C      1  0.4785120000000  0.4030240000000  0.4622130000000 1.0
C      1  0.4708930000000  0.4734220000000  0.6034160000000 1.0
C      1  0.4775660000000  0.5476510000000  0.5239730000000 1.0
C      1  0.5611350000000  0.5577920000000  0.4507390000000 1.0
C      1  0.4529150000000  0.4390680000000  0.4415980000000 1.0
C      1  0.4350310000000  0.4252490000000  0.5129380000000 1.0
C      1  0.4933630000000  0.4539890000000  0.4026910000000 1.0
C      1  0.5014950000000  0.5637910000000  0.4066120000000 1.0
C      1  0.5001000000000  0.4019490000000  0.5084890000000 1.0
C      1  0.4769360000000  0.4523410000000  0.4536400000000 1.0
C      1  0.5293740000000  0.4163010000000  0.4966030000000 1.0
C      1  0.4068340000000  0.4675130000000  0.5666110000000 1.0
C      1  0.5260520000000  0.5395480000000  0.4820980000000 1.0
C      1  0.5965350000000  0.5057980000000  0.5050060000000 1.0
C      1  0.5837490000000  0.5107720000000  0.5513500000000 1.0
C      1  0.5755460000000  0.4176360000000  0.4768590000000 1.0
C      1  0.5223550000000  0.4639090000000  0.5654640000000 1.0
C      1  0.5009780000000  0.5875450000000  0.5500380000000 1.0
C      1  0.5134370000000  0.5365310000000  0.4512390000000 1.0
C      1  0.4734950000000  0.4968590000000  0.5268780000000 1.0
C      1  0.4649070000000  0.5306500000000  0.5996250000000 1.0
C      1  0.5472550000000  0.4081480000000  0.4720410000000 1.0
C      1  0.5593920000000  0.4471740000000  0.4414010000000 1.0
C      1  0.4802480000000  0.5238970000000  0.3904270000000 1.0
C      1  0.5065150000000  0.4414390000000  0.6070360000000 1.0
C      1  0.5918640000000  0.4657150000000  0.5297000000000 1.0
C      1  0.4864810000000  0.5907770000000  0.5242850000000 1.0
C      1  0.5045240000000  0.5375560000000  0.3964620000000 1.0
C      1  0.5017110000000  0.5818780000000  0.5000670000000 1.0
C      1  0.5504300000000  0.4306240000000  0.5161550000000 1.0
C      1  0.4572850000000  0.5393370000000  0.3922710000000 1.0
C      1  0.4180440000000  0.4487070000000  0.5119200000000 1.0
C      1  0.5966370000000  0.4495430000000  0.5059480000000 1.0
C      1  0.4272860000000  0.4943470000000  0.5293410000000 1.0
C      1  0.5422950000000  0.4228280000000  0.4465070000000 1.0
C      1  0.4151810000000  0.5085300000000  0.4419100000000 1.0
C      1  0.4879450000000  0.4524640000000  0.5047000000000 1.0
C      1  0.4311010000000  0.4597510000000  0.4436690000000 1.0
C      1  0.5855250000000  0.5316600000000  0.5099160000000 1.0
C      1  0.5896310000000  0.4934020000000  0.4777400000000 1.0
C      1  0.5791130000000  0.4249420000000  0.5055320000000 1.0
C      1  0.4642420000000  0.5078200000000  0.4503430000000 1.0
C      1  0.4900710000000  0.5060950000000  0.4868250000000 1.0
C      1  0.4511150000000  0.4431480000000  0.5581430000000 1.0
C      1  0.4511860000000  0.5320500000000  0.4927230000000 1.0
C      1  0.5346810000000  0.5542810000000  0.4341770000000 1.0
C      1  0.5154600000000  0.4458560000000  0.4195080000000 1.0
C      1  0.4429240000000  0.5793220000000  0.4547510000000 1.0
C      1  0.5591910000000  0.5748550000000  0.4996440000000 1.0
C      1  0.4340590000000  0.4640510000000  0.5707630000000 1.0
C      1  0.4423990000000  0.4837980000000  0.4295840000000 1.0
C      1  0.5469900000000  0.4248790000000  0.5458390000000 1.0
C      1  0.5961680000000  0.4625280000000  0.4783900000000 1.0
C      1  0.5468360000000  0.4883870000000  0.6123160000000 1.0
C      1  0.4630690000000  0.5563440000000  0.5822530000000 1.0
C      1  0.4592920000000  0.5818100000000  0.5235550000000 1.0
C      1  0.4895090000000  0.4912350000000  0.5890170000000 1.0
C      1  0.5212980000000  0.4631070000000  0.4712390000000 1.0
C      1  0.5160070000000  0.5556580000000  0.5062970000000 1.0
C      1  0.5646160000000  0.5224420000000  0.4354460000000 1.0
C      1  0.4507260000000  0.4139240000000  0.4591710000000 1.0
C      1  0.5220440000000  0.4628850000000  0.5956210000000 1.0
C      1  0.5307900000000  0.5845120000000  0.5458710000000 1.0
C      1  0.4249520000000  0.5274760000000  0.5722630000000 1.0
C      1  0.3765810000000  0.5192800000000  0.5104890000000 1.0
C      1  0.4463780000000  0.4214170000000  0.4868480000000 1.0
C      1  0.4955020000000  0.4272650000000  0.4577850000000 1.0
C      1  0.4932880000000  0.5172010000000  0.6041690000000 1.0
C      1  0.5972640000000  0.4936150000000  0.5313070000000 1.0
C      1  0.5483170000000  0.5167860000000  0.4916490000000 1.0
C      1  0.4476180000000  0.4756230000000  0.4878040000000 1.0
C      1  0.4518950000000  0.5101180000000  0.5416960000000 1.0
C      1  0.5149370000000  0.4225620000000  0.4358610000000 1.0
C      1  0.4748220000000  0.5470500000000  0.4797440000000 1.0
END
