TITL C-950523-3027-47 2.64566129106316e-06 125000 -927.021822311924 0 0 149 (C1) n - 1
REM
REM in /home/bkarasulu/work/CARBON/AIRSS/Generating-Clusters/EDIP-Nigel-Params/with-SteepDescent/Only-C1/SD-CG/HFTN-CG
REM
REM
REM
REM
REM
REM ./C.cell (11c1c37f851c82e70ff6c80c92926a4b)
REM
REM compiler GCC version 9.2.1 20190827 (Red Hat 9.2.1-1)
REM options -cpp -mtune=generic -march=x86-64 -g -O0 -fpre-include=/usr/include/finclude/math-vector-fortran.h
REM seed -1775197245 -1526474642 1510477640 1824590805 1293854243 1912663913 91551607 -489907407 157004015 1141624590 -1375722835 -1189473238 1422800057 -1881180706 -648542414 -1922537828 1570476662 1718247789 1128332064 -1547043297 1316192892 -1638669639 -297228518 -325231177 -745696749 130542973 112281201 2038362586 185524970 -275621686 1268047236 1906448192 39485202
REM
CELL 1.54180   50.00000   50.00000   50.00000   90.00000   90.00000   90.00000
LATT -1
SFAC C  
C      1  0.5795130000000  0.5652250000000  0.5333520000000 1.0
C      1  0.4229070000000  0.5384840000000  0.4574880000000 1.0
C      1  0.5628490000000  0.5530300000000  0.4352340000000 1.0
C      1  0.4076660000000  0.5328290000000  0.5056170000000 1.0
C      1  0.5226460000000  0.5794470000000  0.4272250000000 1.0
C      1  0.4331710000000  0.5270670000000  0.5206880000000 1.0
C      1  0.5281350000000  0.4454260000000  0.5627080000000 1.0
C      1  0.5018370000000  0.4324940000000  0.5749590000000 1.0
C      1  0.4487930000000  0.4556730000000  0.4940000000000 1.0
C      1  0.5073500000000  0.4681800000000  0.6003520000000 1.0
C      1  0.4747960000000  0.5062980000000  0.5970750000000 1.0
C      1  0.4837040000000  0.5497590000000  0.4131560000000 1.0
C      1  0.4803060000000  0.5178140000000  0.5032350000000 1.0
C      1  0.4457580000000  0.5883010000000  0.4778350000000 1.0
C      1  0.5213720000000  0.5508070000000  0.5019550000000 1.0
C      1  0.4782880000000  0.4046610000000  0.5287580000000 1.0
C      1  0.4327720000000  0.4229880000000  0.4614130000000 1.0
C      1  0.4959890000000  0.4012480000000  0.4846040000000 1.0
C      1  0.5272560000000  0.4486240000000  0.5311030000000 1.0
C      1  0.4971000000000  0.4414090000000  0.6019730000000 1.0
C      1  0.4697630000000  0.5131570000000  0.5496870000000 1.0
C      1  0.4096340000000  0.4964360000000  0.4750680000000 1.0
C      1  0.5779450000000  0.5036550000000  0.4407680000000 1.0
C      1  0.4955080000000  0.5675720000000  0.4345970000000 1.0
C      1  0.5945240000000  0.4993010000000  0.5257830000000 1.0
C      1  0.4496470000000  0.5787770000000  0.4505900000000 1.0
C      1  0.4985240000000  0.5604440000000  0.4848560000000 1.0
C      1  0.4108730000000  0.5122490000000  0.4495620000000 1.0
C      1  0.4394410000000  0.4964670000000  0.4820440000000 1.0
C      1  0.5290900000000  0.5598370000000  0.5887370000000 1.0
C      1  0.4985760000000  0.4941460000000  0.6119390000000 1.0
C      1  0.4749230000000  0.5467530000000  0.4997820000000 1.0
C      1  0.5317160000000  0.4698590000000  0.4916000000000 1.0
C      1  0.5750160000000  0.4577360000000  0.5304470000000 1.0
C      1  0.5543600000000  0.5612970000000  0.5528770000000 1.0
C      1  0.4579970000000  0.5601250000000  0.5470970000000 1.0
C      1  0.4758710000000  0.5895380000000  0.4448810000000 1.0
C      1  0.5367870000000  0.4788950000000  0.5216770000000 1.0
C      1  0.4498140000000  0.3838110000000  0.5003370000000 1.0
C      1  0.5208560000000  0.5141000000000  0.6082190000000 1.0
C      1  0.4551910000000  0.4464660000000  0.5801080000000 1.0
C      1  0.4949980000000  0.5017450000000  0.4010860000000 1.0
C      1  0.5474400000000  0.4905270000000  0.4700380000000 1.0
C      1  0.5879000000000  0.5377130000000  0.5248050000000 1.0
C      1  0.5165200000000  0.4810710000000  0.3994810000000 1.0
C      1  0.4203950000000  0.4909180000000  0.4293010000000 1.0
C      1  0.4311980000000  0.4238150000000  0.5192100000000 1.0
C      1  0.5523880000000  0.4271070000000  0.4752380000000 1.0
C      1  0.5725220000000  0.5643900000000  0.4830900000000 1.0
C      1  0.5831580000000  0.4722860000000  0.4823630000000 1.0
C      1  0.5276100000000  0.4072230000000  0.5222930000000 1.0
C      1  0.4143540000000  0.5512710000000  0.4834080000000 1.0
C      1  0.5314940000000  0.4209200000000  0.4525930000000 1.0
C      1  0.4782200000000  0.5764110000000  0.5552600000000 1.0
C      1  0.5107560000000  0.4914340000000  0.5345560000000 1.0
C      1  0.4872720000000  0.4639330000000  0.4965890000000 1.0
C      1  0.5055920000000  0.5942320000000  0.4830160000000 1.0
C      1  0.4577920000000  0.4086690000000  0.4581680000000 1.0
C      1  0.5918330000000  0.4932540000000  0.5549240000000 1.0
C      1  0.4324290000000  0.4693710000000  0.5453240000000 1.0
C      1  0.4111390000000  0.4915240000000  0.5437610000000 1.0
C      1  0.4671230000000  0.4960030000000  0.4038310000000 1.0
C      1  0.5526710000000  0.4751820000000  0.5931840000000 1.0
C      1  0.5124390000000  0.5431210000000  0.5308600000000 1.0
C      1  0.5115010000000  0.4556660000000  0.4137780000000 1.0
C      1  0.4596970000000  0.5362430000000  0.5652520000000 1.0
C      1  0.5355540000000  0.4415830000000  0.4310740000000 1.0
C      1  0.5613160000000  0.5274620000000  0.5193430000000 1.0
C      1  0.4790870000000  0.4610640000000  0.5399250000000 1.0
C      1  0.3940140000000  0.5079340000000  0.4980190000000 1.0
C      1  0.5413710000000  0.4947690000000  0.4100110000000 1.0
C      1  0.5884260000000  0.5128150000000  0.5747900000000 1.0
C      1  0.3930570000000  0.4877710000000  0.5204810000000 1.0
C      1  0.5037240000000  0.6038900000000  0.5316040000000 1.0
C      1  0.4673510000000  0.3966610000000  0.4820620000000 1.0
C      1  0.4737250000000  0.4469600000000  0.4743880000000 1.0
C      1  0.4936930000000  0.5165720000000  0.5304410000000 1.0
C      1  0.4795840000000  0.4223710000000  0.4438140000000 1.0
C      1  0.5291090000000  0.5247330000000  0.4895180000000 1.0
C      1  0.4128790000000  0.4645420000000  0.4410650000000 1.0
C      1  0.5272090000000  0.4720930000000  0.5786690000000 1.0
C      1  0.5193260000000  0.5995890000000  0.5096810000000 1.0
C      1  0.5909500000000  0.4963550000000  0.4671170000000 1.0
C      1  0.5579830000000  0.5255160000000  0.4449170000000 1.0
C      1  0.4514560000000  0.5033850000000  0.5083500000000 1.0
C      1  0.4747030000000  0.5087540000000  0.4396400000000 1.0
C      1  0.5044280000000  0.5784510000000  0.5456460000000 1.0
C      1  0.5309240000000  0.5368500000000  0.4008920000000 1.0
C      1  0.5609590000000  0.4447790000000  0.5701570000000 1.0
C      1  0.5936430000000  0.5460020000000  0.4824440000000 1.0
C      1  0.4596010000000  0.4519440000000  0.4278820000000 1.0
C      1  0.5228270000000  0.4956390000000  0.5606290000000 1.0
C      1  0.5420780000000  0.5605270000000  0.4145560000000 1.0
C      1  0.4504700000000  0.4009580000000  0.5227580000000 1.0
C      1  0.4804500000000  0.5356540000000  0.5906070000000 1.0
C      1  0.5086400000000  0.4681410000000  0.4414280000000 1.0
C      1  0.4002500000000  0.4489900000000  0.4885810000000 1.0
C      1  0.4540640000000  0.4730270000000  0.5240960000000 1.0
C      1  0.5011170000000  0.5179800000000  0.4527170000000 1.0
C      1  0.5613640000000  0.5209270000000  0.5814690000000 1.0
C      1  0.5011950000000  0.5486230000000  0.4571360000000 1.0
C      1  0.4697520000000  0.4915120000000  0.5708640000000 1.0
C      1  0.5573400000000  0.5238300000000  0.4755230000000 1.0
C      1  0.5033100000000  0.5094680000000  0.4824690000000 1.0
C      1  0.5014400000000  0.4077590000000  0.5122460000000 1.0
C      1  0.5066000000000  0.4804420000000  0.4834860000000 1.0
C      1  0.5661760000000  0.5780460000000  0.5088820000000 1.0
C      1  0.5248840000000  0.5796780000000  0.5669850000000 1.0
C      1  0.5362880000000  0.5875550000000  0.4516070000000 1.0
C      1  0.5256580000000  0.4955150000000  0.4449130000000 1.0
C      1  0.5028830000000  0.5298340000000  0.4033270000000 1.0
C      1  0.5253560000000  0.6077700000000  0.4664200000000 1.0
C      1  0.4576790000000  0.4966330000000  0.4600000000000 1.0
C      1  0.5037190000000  0.4181820000000  0.4617250000000 1.0
C      1  0.5637760000000  0.4822920000000  0.4261980000000 1.0
C      1  0.4264890000000  0.4346120000000  0.4904230000000 1.0
C      1  0.5987120000000  0.5191880000000  0.4818420000000 1.0
C      1  0.4506190000000  0.5538350000000  0.5173840000000 1.0
C      1  0.4212360000000  0.5194360000000  0.5473940000000 1.0
C      1  0.5497210000000  0.5034580000000  0.6032080000000 1.0
C      1  0.5921740000000  0.4714700000000  0.5110960000000 1.0
C      1  0.5105660000000  0.5367910000000  0.5920130000000 1.0
C      1  0.4241960000000  0.4418010000000  0.5402790000000 1.0
C      1  0.4763890000000  0.4407770000000  0.5616240000000 1.0
C      1  0.5494950000000  0.5172000000000  0.3937120000000 1.0
C      1  0.5599210000000  0.4995670000000  0.5081820000000 1.0
C      1  0.4774110000000  0.4656160000000  0.4495140000000 1.0
C      1  0.4325180000000  0.5284110000000  0.5720590000000 1.0
C      1  0.5445200000000  0.5141060000000  0.5582620000000 1.0
C      1  0.4586200000000  0.5380660000000  0.4219160000000 1.0
C      1  0.4423520000000  0.5521980000000  0.4412060000000 1.0
C      1  0.5582140000000  0.5513410000000  0.5834450000000 1.0
C      1  0.5681730000000  0.4516080000000  0.4668040000000 1.0
C      1  0.4332270000000  0.4435610000000  0.4403590000000 1.0
C      1  0.5419690000000  0.5362660000000  0.5401150000000 1.0
C      1  0.5769010000000  0.4682020000000  0.5567330000000 1.0
C      1  0.4797810000000  0.6036400000000  0.4713550000000 1.0
C      1  0.5283460000000  0.4372720000000  0.4926160000000 1.0
C      1  0.3907640000000  0.4610850000000  0.5118680000000 1.0
C      1  0.4490890000000  0.4755190000000  0.4119500000000 1.0
C      1  0.5600340000000  0.5719310000000  0.4575180000000 1.0
C      1  0.4324040000000  0.5711600000000  0.4973880000000 1.0
C      1  0.5527330000000  0.4172550000000  0.5135980000000 1.0
C      1  0.4978070000000  0.4508430000000  0.5214090000000 1.0
C      1  0.5671590000000  0.4308970000000  0.5346960000000 1.0
C      1  0.4468810000000  0.4720980000000  0.5715010000000 1.0
C      1  0.5570750000000  0.4588740000000  0.4412290000000 1.0
C      1  0.3996280000000  0.4691770000000  0.4670560000000 1.0
C      1  0.5367840000000  0.5765020000000  0.5148980000000 1.0
END
