TITL C-951339-9237-114 1.13658749019868e-06 125000 -160.887479936497 0 0 28 (C1) n - 1
REM
REM in /home/bkarasulu/work/CARBON/AIRSS/Generating-Clusters/EDIP-Nigel-Params/with-SteepDescent/Only-C1/SD-CG/HFTN-CG
REM
REM
REM
REM
REM
REM ./C.cell (11c1c37f851c82e70ff6c80c92926a4b)
REM
REM compiler GCC version 9.2.1 20190827 (Red Hat 9.2.1-1)
REM options -cpp -mtune=generic -march=x86-64 -g -O0 -fpre-include=/usr/include/finclude/math-vector-fortran.h
REM seed 757116766 -2030504606 -30046642 1144300885 -1239561481 -1811046033 323486491 660741040 -2021007134 1683440274 1659224880 -93431493 146480845 -64195093 -589849045 -1777018182 2040352301 798792796 881905494 1168753414 -821876626 -1709495471 -1494369481 -469580088 748163518 -1668800383 1965915097 1158171574 192451273 813672081 835167654 1771732895 -1308745454
REM
CELL 1.54180   50.00000   50.00000   50.00000   90.00000   90.00000   90.00000
LATT -1
SFAC C  
C      1  0.4905450000000  0.4281140000000  0.5035540000000 1.0
C      1  0.4846300000000  0.5498060000000  0.5422400000000 1.0
C      1  0.4905700000000  0.4952430000000  0.5233560000000 1.0
C      1  0.5183610000000  0.5172000000000  0.5603120000000 1.0
C      1  0.5247520000000  0.4443450000000  0.4675330000000 1.0
C      1  0.5258160000000  0.4832480000000  0.4654340000000 1.0
C      1  0.5177700000000  0.5253260000000  0.4917250000000 1.0
C      1  0.4732230000000  0.5350230000000  0.4491080000000 1.0
C      1  0.5207320000000  0.4903060000000  0.5610350000000 1.0
C      1  0.4664160000000  0.4871830000000  0.5110960000000 1.0
C      1  0.5102170000000  0.5363580000000  0.5418990000000 1.0
C      1  0.4660140000000  0.5486450000000  0.5216440000000 1.0
C      1  0.5067550000000  0.4304980000000  0.4826070000000 1.0
C      1  0.4939740000000  0.4523780000000  0.5436710000000 1.0
C      1  0.5294310000000  0.4611880000000  0.4231370000000 1.0
C      1  0.5119190000000  0.5078410000000  0.4681680000000 1.0
C      1  0.4990710000000  0.5227850000000  0.5170780000000 1.0
C      1  0.4585400000000  0.4606430000000  0.5140060000000 1.0
C      1  0.5286320000000  0.5541690000000  0.4852530000000 1.0
C      1  0.4774470000000  0.5420330000000  0.4754270000000 1.0
C      1  0.5483290000000  0.5311690000000  0.4970010000000 1.0
C      1  0.5029320000000  0.4787380000000  0.5430440000000 1.0
C      1  0.4774740000000  0.4422030000000  0.5233960000000 1.0
C      1  0.5184970000000  0.4629430000000  0.4471560000000 1.0
C      1  0.4612030000000  0.5348260000000  0.4977110000000 1.0
C      1  0.4527810000000  0.5081200000000  0.4990450000000 1.0
C      1  0.5560330000000  0.5575930000000  0.4909070000000 1.0
C      1  0.4879360000000  0.5120760000000  0.4534570000000 1.0
END
