TITL C-951342-2639-53 -1.77676966673255e-06 125000 -608.096669545264 0 0 98 (C1) n - 1
REM
REM in /home/bkarasulu/work/CARBON/AIRSS/Generating-Clusters/EDIP-Nigel-Params/with-SteepDescent/Only-C1/SD-CG/HFTN-CG
REM
REM
REM
REM
REM
REM ./C.cell (11c1c37f851c82e70ff6c80c92926a4b)
REM
REM compiler GCC version 9.2.1 20190827 (Red Hat 9.2.1-1)
REM options -cpp -mtune=generic -march=x86-64 -g -O0 -fpre-include=/usr/include/finclude/math-vector-fortran.h
REM seed -848337340 813044544 370444815 2099593139 -462266142 2135658676 -50556719 -63351099 -294455607 -2014261814 -1796835187 -2054413284 1817165881 -1143412582 127567433 1038509041 -1532006588 -945562031 -1825677484 1788128414 -823472763 -1324777617 842959906 -2080180946 1532370069 1681461684 -486529201 256587858 1600556177 -833775462 -430533978 1222286040 -274696044
REM
CELL 1.54180   50.00000   50.00000   50.00000   90.00000   90.00000   90.00000
LATT -1
SFAC C  
C      1  0.5124170000000  0.4664440000000  0.5556230000000 1.0
C      1  0.5711550000000  0.5504020000000  0.5188170000000 1.0
C      1  0.4543710000000  0.5171960000000  0.5619030000000 1.0
C      1  0.4504460000000  0.4746850000000  0.5164990000000 1.0
C      1  0.4855920000000  0.4868370000000  0.4587910000000 1.0
C      1  0.5540780000000  0.4896410000000  0.5745350000000 1.0
C      1  0.4696520000000  0.5001070000000  0.4790330000000 1.0
C      1  0.4333550000000  0.5192320000000  0.5398390000000 1.0
C      1  0.4685770000000  0.4463050000000  0.5533500000000 1.0
C      1  0.4664330000000  0.5410040000000  0.5683280000000 1.0
C      1  0.5027670000000  0.5275280000000  0.4355460000000 1.0
C      1  0.5726770000000  0.5129550000000  0.5499810000000 1.0
C      1  0.5495340000000  0.5532680000000  0.4528800000000 1.0
C      1  0.5336960000000  0.4191450000000  0.5269050000000 1.0
C      1  0.4587050000000  0.4351520000000  0.4839260000000 1.0
C      1  0.4916000000000  0.4996060000000  0.5254560000000 1.0
C      1  0.4075700000000  0.4847030000000  0.5124070000000 1.0
C      1  0.5180090000000  0.5378550000000  0.5123750000000 1.0
C      1  0.4548610000000  0.5321840000000  0.4262100000000 1.0
C      1  0.4296010000000  0.4764150000000  0.4948760000000 1.0
C      1  0.5333090000000  0.4902010000000  0.4927370000000 1.0
C      1  0.5228910000000  0.4622530000000  0.4226680000000 1.0
C      1  0.4933020000000  0.4156140000000  0.4584140000000 1.0
C      1  0.4319970000000  0.4498700000000  0.4784430000000 1.0
C      1  0.5647970000000  0.5418960000000  0.5480960000000 1.0
C      1  0.4535700000000  0.4684770000000  0.5679910000000 1.0
C      1  0.5297430000000  0.5664870000000  0.4382200000000 1.0
C      1  0.4688830000000  0.4884100000000  0.4352210000000 1.0
C      1  0.5283990000000  0.4291460000000  0.4991780000000 1.0
C      1  0.4597010000000  0.5668310000000  0.5150780000000 1.0
C      1  0.5521520000000  0.4535430000000  0.4624860000000 1.0
C      1  0.4722900000000  0.4635490000000  0.4177060000000 1.0
C      1  0.5638120000000  0.5262290000000  0.5020870000000 1.0
C      1  0.4698310000000  0.4938050000000  0.5721750000000 1.0
C      1  0.5587240000000  0.4796090000000  0.4768170000000 1.0
C      1  0.4444370000000  0.5230140000000  0.5122180000000 1.0
C      1  0.5039210000000  0.5307590000000  0.4687570000000 1.0
C      1  0.5294530000000  0.5226200000000  0.4889770000000 1.0
C      1  0.4424630000000  0.5678930000000  0.4891440000000 1.0
C      1  0.5498660000000  0.4429500000000  0.5355130000000 1.0
C      1  0.4412920000000  0.5440050000000  0.4477550000000 1.0
C      1  0.4401560000000  0.4859440000000  0.4456150000000 1.0
C      1  0.5139720000000  0.5310470000000  0.5690040000000 1.0
C      1  0.5059020000000  0.5035610000000  0.5799370000000 1.0
C      1  0.5268280000000  0.5666210000000  0.5156550000000 1.0
C      1  0.5299380000000  0.4646680000000  0.5309020000000 1.0
C      1  0.4829960000000  0.3983160000000  0.4780630000000 1.0
C      1  0.4590700000000  0.4442750000000  0.4366170000000 1.0
C      1  0.4595490000000  0.4065310000000  0.4897100000000 1.0
C      1  0.5404760000000  0.4901700000000  0.5211660000000 1.0
C      1  0.4912420000000  0.5438380000000  0.5542320000000 1.0
C      1  0.5266760000000  0.4812160000000  0.5780220000000 1.0
C      1  0.4702040000000  0.5379150000000  0.5088930000000 1.0
C      1  0.4766200000000  0.5153070000000  0.4238360000000 1.0
C      1  0.4269600000000  0.5266150000000  0.4680510000000 1.0
C      1  0.5505030000000  0.4299080000000  0.4802260000000 1.0
C      1  0.4289800000000  0.4744050000000  0.5549610000000 1.0
C      1  0.5108150000000  0.4201740000000  0.5435520000000 1.0
C      1  0.4984690000000  0.4567180000000  0.4110270000000 1.0
C      1  0.5296460000000  0.5150180000000  0.4290280000000 1.0
C      1  0.5669490000000  0.5032070000000  0.5222550000000 1.0
C      1  0.4927630000000  0.5293290000000  0.5262540000000 1.0
C      1  0.5311050000000  0.4885420000000  0.4209350000000 1.0
C      1  0.5211060000000  0.4225740000000  0.4559050000000 1.0
C      1  0.4988520000000  0.5854470000000  0.4774950000000 1.0
C      1  0.4982980000000  0.4403030000000  0.5591620000000 1.0
C      1  0.4166110000000  0.4935080000000  0.5382710000000 1.0
C      1  0.4393850000000  0.4984360000000  0.4723090000000 1.0
C      1  0.5060270000000  0.5855500000000  0.5042980000000 1.0
C      1  0.5845800000000  0.5175620000000  0.4822040000000 1.0
C      1  0.5816380000000  0.4534940000000  0.5168950000000 1.0
C      1  0.4557960000000  0.5657670000000  0.4620950000000 1.0
C      1  0.4397930000000  0.5639470000000  0.5365090000000 1.0
C      1  0.5373670000000  0.5486870000000  0.5591980000000 1.0
C      1  0.5485390000000  0.5240070000000  0.4493720000000 1.0
C      1  0.4867520000000  0.4572620000000  0.4987360000000 1.0
C      1  0.5683460000000  0.5048380000000  0.4606080000000 1.0
C      1  0.4840260000000  0.5838370000000  0.5239290000000 1.0
C      1  0.5029520000000  0.5584240000000  0.4358180000000 1.0
C      1  0.4754980000000  0.4852200000000  0.5048640000000 1.0
C      1  0.4273210000000  0.5408270000000  0.4937970000000 1.0
C      1  0.5782000000000  0.4775150000000  0.5645230000000 1.0
C      1  0.4344010000000  0.4569620000000  0.4488460000000 1.0
C      1  0.5276960000000  0.4496580000000  0.4479200000000 1.0
C      1  0.5970460000000  0.4968520000000  0.4988350000000 1.0
C      1  0.4870170000000  0.5657850000000  0.4611190000000 1.0
C      1  0.4206400000000  0.5454340000000  0.5445830000000 1.0
C      1  0.5167280000000  0.4563450000000  0.5039930000000 1.0
C      1  0.4967460000000  0.5734130000000  0.5493620000000 1.0
C      1  0.4899670000000  0.4850200000000  0.5503250000000 1.0
C      1  0.5544460000000  0.5698900000000  0.5045330000000 1.0
C      1  0.4762150000000  0.4389320000000  0.4600420000000 1.0
C      1  0.5825740000000  0.4726380000000  0.4949760000000 1.0
C      1  0.5262850000000  0.5723800000000  0.5452780000000 1.0
C      1  0.4776420000000  0.5278880000000  0.4815610000000 1.0
C      1  0.4605690000000  0.4481490000000  0.5252380000000 1.0
C      1  0.5567570000000  0.5653790000000  0.4769300000000 1.0
C      1  0.5844390000000  0.4569250000000  0.5455680000000 1.0
END
