TITL C-950521-2237-631 -4.17254645061586e-07 125000 -439.309376702237 0 0 71 (C1) n - 1
REM
REM in /home/bkarasulu/work/CARBON/AIRSS/Generating-Clusters/EDIP-Nigel-Params/with-SteepDescent/Only-C1/SD-CG/HFTN-CG
REM
REM
REM
REM
REM
REM ./C.cell (11c1c37f851c82e70ff6c80c92926a4b)
REM
REM compiler GCC version 9.2.1 20190827 (Red Hat 9.2.1-1)
REM options -cpp -mtune=generic -march=x86-64 -g -O0 -fpre-include=/usr/include/finclude/math-vector-fortran.h
REM seed 1982373294 -800843658 987474871 768906424 1401032652 738604334 2127440743 -861964741 -913634509 1990801353 1725547520 1937370278 -645699434 765506189 1796019423 429507389 259179689 -254702444 -1033825197 -311926051 954929892 -474080926 1806638594 1483820198 1174375467 2008708828 1351899725 -465791462 -1681533314 800740809 -57362486 -1743229888 -613865015
REM
CELL 1.54180   50.00000   50.00000   50.00000   90.00000   90.00000   90.00000
LATT -1
SFAC C  
C      1  0.4731440000000  0.4645630000000  0.4305280000000 1.0
C      1  0.5244450000000  0.5538360000000  0.4508940000000 1.0
C      1  0.5516280000000  0.5182950000000  0.5236150000000 1.0
C      1  0.5100090000000  0.5760050000000  0.4774530000000 1.0
C      1  0.5452530000000  0.5379760000000  0.5004230000000 1.0
C      1  0.4302500000000  0.4669610000000  0.5028330000000 1.0
C      1  0.4518780000000  0.4482920000000  0.4976850000000 1.0
C      1  0.4295920000000  0.4930000000000  0.4881980000000 1.0
C      1  0.5260270000000  0.4446890000000  0.5496230000000 1.0
C      1  0.5740110000000  0.4856730000000  0.5479200000000 1.0
C      1  0.5389140000000  0.4588630000000  0.4710280000000 1.0
C      1  0.5346710000000  0.4357450000000  0.5216020000000 1.0
C      1  0.4550030000000  0.5101240000000  0.5539190000000 1.0
C      1  0.4949100000000  0.5501160000000  0.4823960000000 1.0
C      1  0.5000950000000  0.5100960000000  0.4472060000000 1.0
C      1  0.5520740000000  0.4855280000000  0.5654530000000 1.0
C      1  0.4304040000000  0.4720290000000  0.5322270000000 1.0
C      1  0.5088460000000  0.5916670000000  0.5006520000000 1.0
C      1  0.4784830000000  0.4930860000000  0.5617310000000 1.0
C      1  0.4942620000000  0.5756490000000  0.5187910000000 1.0
C      1  0.5395870000000  0.4611580000000  0.5672300000000 1.0
C      1  0.5491570000000  0.5335880000000  0.5493360000000 1.0
C      1  0.4749480000000  0.5462860000000  0.4498690000000 1.0
C      1  0.5462980000000  0.5648610000000  0.5124610000000 1.0
C      1  0.5074700000000  0.5596320000000  0.5393660000000 1.0
C      1  0.5343540000000  0.5104440000000  0.5649550000000 1.0
C      1  0.4325410000000  0.5139920000000  0.5082340000000 1.0
C      1  0.4663680000000  0.5754020000000  0.5187190000000 1.0
C      1  0.5121980000000  0.4734190000000  0.4718130000000 1.0
C      1  0.5036920000000  0.5150930000000  0.5154110000000 1.0
C      1  0.5756840000000  0.5006610000000  0.5241980000000 1.0
C      1  0.4486640000000  0.4961240000000  0.4646750000000 1.0
C      1  0.4492030000000  0.5302600000000  0.4520280000000 1.0
C      1  0.5164750000000  0.5281680000000  0.4910000000000 1.0
C      1  0.4854260000000  0.4314940000000  0.4631970000000 1.0
C      1  0.5012550000000  0.5386490000000  0.4404670000000 1.0
C      1  0.5011800000000  0.4203930000000  0.4835970000000 1.0
C      1  0.4505390000000  0.4527610000000  0.5449470000000 1.0
C      1  0.4535940000000  0.4678820000000  0.4518670000000 1.0
C      1  0.5503110000000  0.4631560000000  0.4989640000000 1.0
C      1  0.4932460000000  0.5348760000000  0.5475860000000 1.0
C      1  0.5060820000000  0.4930710000000  0.4234120000000 1.0
C      1  0.4352820000000  0.5458250000000  0.4724540000000 1.0
C      1  0.4331940000000  0.5016280000000  0.5355330000000 1.0
C      1  0.5643650000000  0.5349870000000  0.4777540000000 1.0
C      1  0.5097730000000  0.4217400000000  0.5102690000000 1.0
C      1  0.5478210000000  0.4730580000000  0.4456380000000 1.0
C      1  0.4537410000000  0.5502870000000  0.5228440000000 1.0
C      1  0.4641890000000  0.5367840000000  0.5469440000000 1.0
C      1  0.4757560000000  0.4636890000000  0.5572850000000 1.0
C      1  0.5030720000000  0.5110450000000  0.5635210000000 1.0
C      1  0.4593770000000  0.4339230000000  0.5227180000000 1.0
C      1  0.4853270000000  0.4953280000000  0.5031560000000 1.0
C      1  0.4878140000000  0.4262510000000  0.5297230000000 1.0
C      1  0.5200750000000  0.5037620000000  0.4676930000000 1.0
C      1  0.4677860000000  0.5341470000000  0.4904640000000 1.0
C      1  0.4258790000000  0.5404570000000  0.4989830000000 1.0
C      1  0.5256070000000  0.4727420000000  0.5162870000000 1.0
C      1  0.4962550000000  0.4522350000000  0.4443620000000 1.0
C      1  0.5017520000000  0.4721360000000  0.4990610000000 1.0
C      1  0.5366580000000  0.5589070000000  0.5387640000000 1.0
C      1  0.5250430000000  0.4708080000000  0.4273720000000 1.0
C      1  0.5711100000000  0.4867060000000  0.4986780000000 1.0
C      1  0.5266830000000  0.5009770000000  0.5279630000000 1.0
C      1  0.5700050000000  0.5055530000000  0.4749960000000 1.0
C      1  0.4603940000000  0.4454150000000  0.4702370000000 1.0
C      1  0.5477360000000  0.5022470000000  0.4541230000000 1.0
C      1  0.4969570000000  0.4430400000000  0.5519910000000 1.0
C      1  0.4805500000000  0.4861230000000  0.4138950000000 1.0
C      1  0.5501160000000  0.5405050000000  0.4524510000000 1.0
C      1  0.4755110000000  0.5061300000000  0.4773290000000 1.0
END
