TITL C-950532-2784-542 -1.2744994428606e-06 125000 -748.083534049723 0 0 119 (C1) n - 1
REM
REM in /home/bkarasulu/work/CARBON/AIRSS/Generating-Clusters/EDIP-Nigel-Params/with-SteepDescent/Only-C1/SD-CG/HFTN-CG
REM
REM
REM
REM
REM
REM ./C.cell (11c1c37f851c82e70ff6c80c92926a4b)
REM
REM compiler GCC version 9.2.1 20190827 (Red Hat 9.2.1-1)
REM options -cpp -mtune=generic -march=x86-64 -g -O0 -fpre-include=/usr/include/finclude/math-vector-fortran.h
REM seed 489456273 -500154788 1250707130 -1847958133 448101550 -1232737558 -579586948 1623691140 1690410541 685032907 -1047883493 649330748 222035829 1344177947 -560865113 206622124 159735427 648433228 286179888 108666217 -1806390728 -1331786683 1532457765 -1035280530 -1375324478 903713821 -795681891 1550957147 544785630 -905283200 1250790105 -503878370 -718353418
REM
CELL 1.54180   50.00000   50.00000   50.00000   90.00000   90.00000   90.00000
LATT -1
SFAC C  
C      1  0.5765840000000  0.5284270000000  0.5487390000000 1.0
C      1  0.4785570000000  0.5145110000000  0.5835500000000 1.0
C      1  0.4520790000000  0.4701980000000  0.5718060000000 1.0
C      1  0.5628770000000  0.5748920000000  0.4970340000000 1.0
C      1  0.4088730000000  0.5189300000000  0.4946870000000 1.0
C      1  0.4290560000000  0.4775040000000  0.5530060000000 1.0
C      1  0.5918620000000  0.5198360000000  0.4943340000000 1.0
C      1  0.5664000000000  0.4318700000000  0.4842390000000 1.0
C      1  0.4814270000000  0.5098930000000  0.4828410000000 1.0
C      1  0.4648970000000  0.4508020000000  0.4233490000000 1.0
C      1  0.5154240000000  0.5003350000000  0.5378130000000 1.0
C      1  0.5223520000000  0.5518260000000  0.5123810000000 1.0
C      1  0.4919600000000  0.4558990000000  0.5291870000000 1.0
C      1  0.4747720000000  0.4181870000000  0.5143440000000 1.0
C      1  0.4713480000000  0.5147550000000  0.4553500000000 1.0
C      1  0.5378500000000  0.5299780000000  0.4716100000000 1.0
C      1  0.5651320000000  0.4527680000000  0.5390110000000 1.0
C      1  0.4559020000000  0.5235230000000  0.5646190000000 1.0
C      1  0.5704740000000  0.5322160000000  0.4512130000000 1.0
C      1  0.4914430000000  0.5163770000000  0.5308310000000 1.0
C      1  0.4276400000000  0.4602080000000  0.4518800000000 1.0
C      1  0.4437270000000  0.5083800000000  0.4446250000000 1.0
C      1  0.4749230000000  0.5539210000000  0.4276060000000 1.0
C      1  0.4940430000000  0.5746580000000  0.4291200000000 1.0
C      1  0.4127170000000  0.4922090000000  0.4845970000000 1.0
C      1  0.5037740000000  0.4889910000000  0.4781990000000 1.0
C      1  0.5471650000000  0.5331180000000  0.5563010000000 1.0
C      1  0.5333730000000  0.5091810000000  0.5175950000000 1.0
C      1  0.5341860000000  0.5066540000000  0.4277400000000 1.0
C      1  0.4979100000000  0.5896180000000  0.4836460000000 1.0
C      1  0.5117990000000  0.5540540000000  0.5769530000000 1.0
C      1  0.4304280000000  0.5154480000000  0.5761960000000 1.0
C      1  0.4976290000000  0.5106250000000  0.4159700000000 1.0
C      1  0.4722170000000  0.5590910000000  0.5075030000000 1.0
C      1  0.5538840000000  0.4471300000000  0.4615810000000 1.0
C      1  0.5021740000000  0.4319230000000  0.4823730000000 1.0
C      1  0.4501830000000  0.5730720000000  0.4670320000000 1.0
C      1  0.5228970000000  0.5800020000000  0.4697760000000 1.0
C      1  0.5225010000000  0.4642260000000  0.5681000000000 1.0
C      1  0.5655190000000  0.4699440000000  0.4478840000000 1.0
C      1  0.5488520000000  0.4796990000000  0.4250810000000 1.0
C      1  0.5875320000000  0.5142340000000  0.4659520000000 1.0
C      1  0.4446110000000  0.5477500000000  0.5088770000000 1.0
C      1  0.5300290000000  0.4560230000000  0.4210060000000 1.0
C      1  0.5076370000000  0.5244780000000  0.5833100000000 1.0
C      1  0.4471870000000  0.5590680000000  0.4404300000000 1.0
C      1  0.4134000000000  0.5241770000000  0.5303230000000 1.0
C      1  0.5492350000000  0.4742870000000  0.4961810000000 1.0
C      1  0.4518690000000  0.4182410000000  0.5326540000000 1.0
C      1  0.4291000000000  0.4352190000000  0.5229090000000 1.0
C      1  0.4707580000000  0.4117610000000  0.4862790000000 1.0
C      1  0.4990840000000  0.5616080000000  0.5519550000000 1.0
C      1  0.4764650000000  0.5690660000000  0.4799820000000 1.0
C      1  0.4885980000000  0.5291160000000  0.4376560000000 1.0
C      1  0.4726530000000  0.5846100000000  0.5246150000000 1.0
C      1  0.4594560000000  0.4286430000000  0.4660620000000 1.0
C      1  0.4941260000000  0.5356540000000  0.5080570000000 1.0
C      1  0.5883250000000  0.4429270000000  0.5257980000000 1.0
C      1  0.4746850000000  0.4946510000000  0.4050560000000 1.0
C      1  0.4502200000000  0.5526590000000  0.5561560000000 1.0
C      1  0.5322150000000  0.5003640000000  0.4890720000000 1.0
C      1  0.4476600000000  0.5154290000000  0.5142810000000 1.0
C      1  0.4494740000000  0.4998120000000  0.4174680000000 1.0
C      1  0.4294030000000  0.5520970000000  0.5347270000000 1.0
C      1  0.5355400000000  0.4359420000000  0.4424910000000 1.0
C      1  0.5404730000000  0.5595800000000  0.5687450000000 1.0
C      1  0.4664430000000  0.4742560000000  0.5306490000000 1.0
C      1  0.4344190000000  0.4411630000000  0.4711230000000 1.0
C      1  0.4821800000000  0.4041510000000  0.5662870000000 1.0
C      1  0.5452430000000  0.5343960000000  0.5253640000000 1.0
C      1  0.5016630000000  0.4619680000000  0.4316540000000 1.0
C      1  0.5912210000000  0.4965140000000  0.5116440000000 1.0
C      1  0.5402910000000  0.5586620000000  0.4257330000000 1.0
C      1  0.5423310000000  0.5791030000000  0.5456150000000 1.0
C      1  0.5107490000000  0.4256650000000  0.4534980000000 1.0
C      1  0.5376380000000  0.5603450000000  0.4872330000000 1.0
C      1  0.4150830000000  0.5395650000000  0.4735500000000 1.0
C      1  0.5439270000000  0.4843870000000  0.5724160000000 1.0
C      1  0.5883440000000  0.4472790000000  0.4978780000000 1.0
C      1  0.5200770000000  0.4214620000000  0.5041000000000 1.0
C      1  0.4689450000000  0.4272400000000  0.4388720000000 1.0
C      1  0.4649910000000  0.5066120000000  0.5373630000000 1.0
C      1  0.4998300000000  0.4697970000000  0.5835950000000 1.0
C      1  0.4924160000000  0.4612470000000  0.4916290000000 1.0
C      1  0.5485210000000  0.4213860000000  0.5049620000000 1.0
C      1  0.5174940000000  0.4686050000000  0.5383260000000 1.0
C      1  0.5878170000000  0.5670210000000  0.4858690000000 1.0
C      1  0.5808120000000  0.5004650000000  0.5389930000000 1.0
C      1  0.5176630000000  0.5646150000000  0.4434720000000 1.0
C      1  0.4762070000000  0.4850300000000  0.5836230000000 1.0
C      1  0.4930350000000  0.4136670000000  0.4351670000000 1.0
C      1  0.5857250000000  0.5515090000000  0.5312020000000 1.0
C      1  0.4301650000000  0.5608870000000  0.4858400000000 1.0
C      1  0.4600880000000  0.4207240000000  0.5609580000000 1.0
C      1  0.4826840000000  0.4663160000000  0.4073950000000 1.0
C      1  0.5013930000000  0.4130880000000  0.5245830000000 1.0
C      1  0.4341430000000  0.4526340000000  0.4984450000000 1.0
C      1  0.5680690000000  0.4781510000000  0.5546000000000 1.0
C      1  0.4560740000000  0.4974860000000  0.4927280000000 1.0
C      1  0.5659140000000  0.5735830000000  0.5268700000000 1.0
C      1  0.5164150000000  0.5742250000000  0.5312220000000 1.0
C      1  0.4170690000000  0.5043150000000  0.5543940000000 1.0
C      1  0.5412900000000  0.4561210000000  0.5200810000000 1.0
C      1  0.4725140000000  0.5721290000000  0.5513580000000 1.0
C      1  0.5793370000000  0.4754840000000  0.4931820000000 1.0
C      1  0.5961720000000  0.5465770000000  0.5039040000000 1.0
C      1  0.4604380000000  0.4696900000000  0.5013750000000 1.0
C      1  0.4152240000000  0.4562630000000  0.5388630000000 1.0
C      1  0.5055550000000  0.4884590000000  0.4463290000000 1.0
C      1  0.5284760000000  0.5099960000000  0.5643910000000 1.0
C      1  0.5048490000000  0.4059040000000  0.5514440000000 1.0
C      1  0.4109870000000  0.4705430000000  0.5031180000000 1.0
C      1  0.4282270000000  0.4869700000000  0.4601230000000 1.0
C      1  0.4287730000000  0.5347250000000  0.4462970000000 1.0
C      1  0.5510510000000  0.5322370000000  0.4299950000000 1.0
C      1  0.4696850000000  0.4484240000000  0.5598950000000 1.0
C      1  0.5133820000000  0.5367300000000  0.4530410000000 1.0
C      1  0.5827290000000  0.4854440000000  0.4653820000000 1.0
C      1  0.4996840000000  0.5945160000000  0.5146250000000 1.0
END
