TITL C-951347-9520-734 -1.45408382497537e-06 125000 -224.122187018731 0 0 38 (C1) n - 1
REM
REM in /home/bkarasulu/work/CARBON/AIRSS/Generating-Clusters/EDIP-Nigel-Params/with-SteepDescent/Only-C1/SD-CG/HFTN-CG
REM
REM
REM
REM
REM
REM ./C.cell (11c1c37f851c82e70ff6c80c92926a4b)
REM
REM compiler GCC version 9.2.1 20190827 (Red Hat 9.2.1-1)
REM options -cpp -mtune=generic -march=x86-64 -g -O0 -fpre-include=/usr/include/finclude/math-vector-fortran.h
REM seed -1836720573 2064852868 -1922871832 2079632956 1425822287 -1893570821 1491564676 2011282666 662166610 -881918635 -1726342763 1642271988 -1277112319 -1429347520 -1096599699 -813120655 274167699 81716422 1768808298 856847590 136498636 2029301138 -227796384 -141643158 -860528133 341960090 -317478507 -247601668 1847780207 1875877504 1247422331 1200941487 1813988183
REM
CELL 1.54180   50.00000   50.00000   50.00000   90.00000   90.00000   90.00000
LATT -1
SFAC C  
C      1  0.4672380000000  0.4526120000000  0.5012530000000 1.0
C      1  0.4546920000000  0.5203310000000  0.5449240000000 1.0
C      1  0.4831200000000  0.5412900000000  0.4984350000000 1.0
C      1  0.4422540000000  0.4917190000000  0.4894140000000 1.0
C      1  0.4656350000000  0.5221560000000  0.4818960000000 1.0
C      1  0.4324720000000  0.5164740000000  0.5308210000000 1.0
C      1  0.4995100000000  0.4365740000000  0.4631260000000 1.0
C      1  0.4629770000000  0.4439850000000  0.5274430000000 1.0
C      1  0.4971290000000  0.4923840000000  0.4858350000000 1.0
C      1  0.5269680000000  0.4686460000000  0.4856940000000 1.0
C      1  0.4810960000000  0.5436400000000  0.4403390000000 1.0
C      1  0.4733400000000  0.5191000000000  0.4522990000000 1.0
C      1  0.4977040000000  0.4664520000000  0.5502420000000 1.0
C      1  0.5584120000000  0.5108150000000  0.5317660000000 1.0
C      1  0.4932120000000  0.4937150000000  0.5534510000000 1.0
C      1  0.5607250000000  0.4624720000000  0.5187780000000 1.0
C      1  0.5052420000000  0.4794750000000  0.4421370000000 1.0
C      1  0.5167830000000  0.4586330000000  0.5316240000000 1.0
C      1  0.5519560000000  0.5479830000000  0.4877910000000 1.0
C      1  0.4750630000000  0.4503150000000  0.5506370000000 1.0
C      1  0.5141160000000  0.4601540000000  0.4609510000000 1.0
C      1  0.4846450000000  0.4378180000000  0.4854610000000 1.0
C      1  0.5348660000000  0.4564140000000  0.5106260000000 1.0
C      1  0.4972340000000  0.5317400000000  0.5232450000000 1.0
C      1  0.4251310000000  0.5123020000000  0.5044850000000 1.0
C      1  0.4987400000000  0.5032940000000  0.4571850000000 1.0
C      1  0.4981350000000  0.5578010000000  0.4813920000000 1.0
C      1  0.5047510000000  0.5500200000000  0.4549480000000 1.0
C      1  0.4371660000000  0.5302070000000  0.4851090000000 1.0
C      1  0.5199280000000  0.5093760000000  0.5009110000000 1.0
C      1  0.4693450000000  0.4819190000000  0.4979670000000 1.0
C      1  0.5693470000000  0.4851950000000  0.5302790000000 1.0
C      1  0.5714330000000  0.5313740000000  0.5166640000000 1.0
C      1  0.5601700000000  0.5562380000000  0.5129160000000 1.0
C      1  0.5297460000000  0.5110330000000  0.5288420000000 1.0
C      1  0.4820250000000  0.5173340000000  0.5438650000000 1.0
C      1  0.5209570000000  0.5247170000000  0.4561660000000 1.0
C      1  0.5367380000000  0.5242950000000  0.4810840000000 1.0
END
