TITL C-950536-5891-683 -2.21246193963316e-06 125000 -855.733978307072 0 0 138 (C1) n - 1
REM
REM in /home/bkarasulu/work/CARBON/AIRSS/Generating-Clusters/EDIP-Nigel-Params/with-SteepDescent/Only-C1/SD-CG/HFTN-CG
REM
REM
REM
REM
REM
REM ./C.cell (11c1c37f851c82e70ff6c80c92926a4b)
REM
REM compiler GCC version 9.2.1 20190827 (Red Hat 9.2.1-1)
REM options -cpp -mtune=generic -march=x86-64 -g -O0 -fpre-include=/usr/include/finclude/math-vector-fortran.h
REM seed -1540846101 1120445921 -998433438 -1106084761 1914704075 990884099 374475236 1860669830 -968911600 1412789976 37282522 599806069 -916054671 -1229776539 -1543707431 -2068419203 710466381 1867009323 1806058342 -1454966312 1598548421 478602356 180960582 -452488830 -1180628215 573009701 -639704679 -302366674 849352364 -673073046 230695196 860221657 -1165535532
REM
CELL 1.54180   50.00000   50.00000   50.00000   90.00000   90.00000   90.00000
LATT -1
SFAC C  
C      1  0.4240120000000  0.5178910000000  0.5527360000000 1.0
C      1  0.5027950000000  0.5642760000000  0.5633990000000 1.0
C      1  0.4688230000000  0.4895950000000  0.4624190000000 1.0
C      1  0.5899930000000  0.4830640000000  0.5578490000000 1.0
C      1  0.4786500000000  0.5721410000000  0.5497180000000 1.0
C      1  0.5296550000000  0.5218480000000  0.5658930000000 1.0
C      1  0.5268920000000  0.5791320000000  0.4384110000000 1.0
C      1  0.5322230000000  0.4351000000000  0.4236510000000 1.0
C      1  0.4439930000000  0.4689240000000  0.4408610000000 1.0
C      1  0.4599120000000  0.4964640000000  0.5401630000000 1.0
C      1  0.4727860000000  0.5416630000000  0.4730160000000 1.0
C      1  0.4692220000000  0.4875670000000  0.4027620000000 1.0
C      1  0.5318090000000  0.5629730000000  0.5234350000000 1.0
C      1  0.5006140000000  0.5344590000000  0.5638680000000 1.0
C      1  0.4746200000000  0.4422180000000  0.5319920000000 1.0
C      1  0.5513600000000  0.5178950000000  0.5420240000000 1.0
C      1  0.5803750000000  0.5148870000000  0.4644730000000 1.0
C      1  0.5626610000000  0.5656230000000  0.5142550000000 1.0
C      1  0.5240780000000  0.5916920000000  0.4912560000000 1.0
C      1  0.4838100000000  0.4839290000000  0.5548410000000 1.0
C      1  0.4884470000000  0.5269430000000  0.5904320000000 1.0
C      1  0.5267090000000  0.5762760000000  0.5505500000000 1.0
C      1  0.4167620000000  0.5334580000000  0.5311560000000 1.0
C      1  0.5513650000000  0.5794060000000  0.4881660000000 1.0
C      1  0.5570440000000  0.5597990000000  0.4669890000000 1.0
C      1  0.5475100000000  0.4373170000000  0.4723670000000 1.0
C      1  0.4269870000000  0.5088790000000  0.4178710000000 1.0
C      1  0.5107220000000  0.4366730000000  0.4431700000000 1.0
C      1  0.4175440000000  0.4899150000000  0.5506490000000 1.0
C      1  0.4010520000000  0.5352440000000  0.4808350000000 1.0
C      1  0.5174910000000  0.5377690000000  0.5171410000000 1.0
C      1  0.4614630000000  0.5166820000000  0.5881990000000 1.0
C      1  0.4807000000000  0.5238610000000  0.3995100000000 1.0
C      1  0.4370370000000  0.5661610000000  0.4693670000000 1.0
C      1  0.4774560000000  0.5176170000000  0.4515160000000 1.0
C      1  0.4573810000000  0.5873970000000  0.4811260000000 1.0
C      1  0.5031110000000  0.5044010000000  0.6035950000000 1.0
C      1  0.4333850000000  0.5523800000000  0.4424850000000 1.0
C      1  0.5358970000000  0.4913290000000  0.5096470000000 1.0
C      1  0.4325740000000  0.4415270000000  0.4791830000000 1.0
C      1  0.4915350000000  0.4707500000000  0.4119160000000 1.0
C      1  0.5076760000000  0.4515220000000  0.5836610000000 1.0
C      1  0.4777450000000  0.5643360000000  0.4240290000000 1.0
C      1  0.4424860000000  0.4847670000000  0.4156990000000 1.0
C      1  0.5127410000000  0.4192980000000  0.5093210000000 1.0
C      1  0.4660650000000  0.4037450000000  0.5442430000000 1.0
C      1  0.5521630000000  0.5651430000000  0.4388790000000 1.0
C      1  0.5193330000000  0.5394860000000  0.4236740000000 1.0
C      1  0.4839510000000  0.5652730000000  0.4535590000000 1.0
C      1  0.3994430000000  0.4822930000000  0.4997650000000 1.0
C      1  0.5300950000000  0.4183980000000  0.4836740000000 1.0
C      1  0.4866400000000  0.4028820000000  0.5004700000000 1.0
C      1  0.5272820000000  0.4336500000000  0.5419510000000 1.0
C      1  0.5669750000000  0.4540650000000  0.5085720000000 1.0
C      1  0.4793420000000  0.5295040000000  0.5375100000000 1.0
C      1  0.4627590000000  0.5229020000000  0.4239780000000 1.0
C      1  0.5970160000000  0.5021740000000  0.4862490000000 1.0
C      1  0.4203930000000  0.4643540000000  0.4598290000000 1.0
C      1  0.4789810000000  0.5949850000000  0.4610560000000 1.0
C      1  0.4498440000000  0.5591290000000  0.4201050000000 1.0
C      1  0.5298320000000  0.5068440000000  0.4068520000000 1.0
C      1  0.4015650000000  0.4512220000000  0.5231100000000 1.0
C      1  0.4919170000000  0.4734730000000  0.4729930000000 1.0
C      1  0.4608360000000  0.5475110000000  0.5107340000000 1.0
C      1  0.4182930000000  0.5555950000000  0.4892060000000 1.0
C      1  0.4076790000000  0.5142900000000  0.4637910000000 1.0
C      1  0.5695250000000  0.4514410000000  0.4610630000000 1.0
C      1  0.4517320000000  0.4640870000000  0.5318130000000 1.0
C      1  0.4611670000000  0.5058840000000  0.5088220000000 1.0
C      1  0.5306550000000  0.4645050000000  0.5475250000000 1.0
C      1  0.5684790000000  0.5446050000000  0.5469740000000 1.0
C      1  0.4893800000000  0.3973010000000  0.4702740000000 1.0
C      1  0.5128230000000  0.5961030000000  0.5200740000000 1.0
C      1  0.4099630000000  0.4780290000000  0.5255110000000 1.0
C      1  0.5149360000000  0.4094230000000  0.4601680000000 1.0
C      1  0.5204260000000  0.5350680000000  0.4705050000000 1.0
C      1  0.4502230000000  0.4266110000000  0.4594440000000 1.0
C      1  0.5300780000000  0.4694410000000  0.5766730000000 1.0
C      1  0.5576040000000  0.5445230000000  0.4190050000000 1.0
C      1  0.5400630000000  0.4619610000000  0.4220170000000 1.0
C      1  0.4550130000000  0.5548500000000  0.5539900000000 1.0
C      1  0.5910250000000  0.5015120000000  0.5366290000000 1.0
C      1  0.5108300000000  0.6017260000000  0.4656450000000 1.0
C      1  0.5080030000000  0.4275310000000  0.5651810000000 1.0
C      1  0.4207860000000  0.4323960000000  0.5332100000000 1.0
C      1  0.5676140000000  0.5318900000000  0.5905430000000 1.0
C      1  0.4309790000000  0.5502610000000  0.5142630000000 1.0
C      1  0.5098790000000  0.5199580000000  0.4468590000000 1.0
C      1  0.5555880000000  0.5154610000000  0.4180360000000 1.0
C      1  0.5441430000000  0.4799900000000  0.4819300000000 1.0
C      1  0.5508570000000  0.5646270000000  0.5634320000000 1.0
C      1  0.5729880000000  0.4402090000000  0.5329840000000 1.0
C      1  0.4996610000000  0.5340290000000  0.4933520000000 1.0
C      1  0.5181970000000  0.4676920000000  0.4606550000000 1.0
C      1  0.4812530000000  0.4664870000000  0.5796390000000 1.0
C      1  0.5779070000000  0.5408800000000  0.5038650000000 1.0
C      1  0.4855210000000  0.4457850000000  0.4269220000000 1.0
C      1  0.4223780000000  0.5248750000000  0.4413960000000 1.0
C      1  0.4361030000000  0.4215410000000  0.5102460000000 1.0
C      1  0.5401810000000  0.5202410000000  0.5143220000000 1.0
C      1  0.4211110000000  0.4708650000000  0.5705960000000 1.0
C      1  0.4895310000000  0.5073280000000  0.5010420000000 1.0
C      1  0.4782860000000  0.4264130000000  0.5571860000000 1.0
C      1  0.4957160000000  0.5475040000000  0.4075120000000 1.0
C      1  0.4602870000000  0.4431900000000  0.5746900000000 1.0
C      1  0.4803460000000  0.4514150000000  0.4879320000000 1.0
C      1  0.5832110000000  0.4601470000000  0.4852570000000 1.0
C      1  0.4784270000000  0.4860630000000  0.6020570000000 1.0
C      1  0.5299700000000  0.4982270000000  0.5871170000000 1.0
C      1  0.5790780000000  0.5434370000000  0.4745230000000 1.0
C      1  0.5858830000000  0.4568950000000  0.5505790000000 1.0
C      1  0.5908590000000  0.5150990000000  0.5116310000000 1.0
C      1  0.5536660000000  0.4799420000000  0.5333460000000 1.0
C      1  0.4363980000000  0.4501960000000  0.5565490000000 1.0
C      1  0.4468170000000  0.5292580000000  0.5663400000000 1.0
C      1  0.4566290000000  0.4428830000000  0.4353550000000 1.0
C      1  0.6061980000000  0.4760490000000  0.4849390000000 1.0
C      1  0.5301780000000  0.4962790000000  0.4487320000000 1.0
C      1  0.5129560000000  0.5633160000000  0.4594630000000 1.0
C      1  0.5596100000000  0.5039450000000  0.5964290000000 1.0
C      1  0.4595870000000  0.4039250000000  0.5164840000000 1.0
C      1  0.4722640000000  0.5741120000000  0.5029190000000 1.0
C      1  0.4169900000000  0.4887970000000  0.4771790000000 1.0
C      1  0.5202670000000  0.4794510000000  0.4095560000000 1.0
C      1  0.5499070000000  0.5102300000000  0.4722820000000 1.0
C      1  0.5867080000000  0.5359180000000  0.5688260000000 1.0
C      1  0.5425140000000  0.5442350000000  0.5826450000000 1.0
C      1  0.4522140000000  0.4604580000000  0.4967040000000 1.0
C      1  0.5076700000000  0.4874000000000  0.5120420000000 1.0
C      1  0.4485150000000  0.4889970000000  0.4864040000000 1.0
C      1  0.5536800000000  0.4230410000000  0.5437050000000 1.0
C      1  0.5794380000000  0.4897730000000  0.5827010000000 1.0
C      1  0.5722230000000  0.4987680000000  0.4362520000000 1.0
C      1  0.5043090000000  0.4736830000000  0.5368660000000 1.0
C      1  0.4769960000000  0.4265430000000  0.4706950000000 1.0
C      1  0.4964280000000  0.4447510000000  0.5118570000000 1.0
C      1  0.5636370000000  0.4699930000000  0.4378670000000 1.0
C      1  0.4840360000000  0.5885830000000  0.5249740000000 1.0
END
