TITL C-950525-1983-380 0.0178232901193221 125000 -194.53289405812 0 0 34 (C1) n - 1
REM
REM in /home/bkarasulu/work/CARBON/AIRSS/Generating-Clusters/EDIP-Nigel-Params/with-SteepDescent/Only-C1/SD-CG/HFTN-CG
REM
REM
REM
REM
REM
REM ./C.cell (11c1c37f851c82e70ff6c80c92926a4b)
REM
REM compiler GCC version 9.2.1 20190827 (Red Hat 9.2.1-1)
REM options -cpp -mtune=generic -march=x86-64 -g -O0 -fpre-include=/usr/include/finclude/math-vector-fortran.h
REM seed -131571164 1332106597 606509060 -55450124 245640412 -1688454689 282218351 -1958617759 1363192887 1507161352 921596633 -1498978492 -934858947 2099325170 1004135081 2025402414 -1213222359 310917719 -642953022 -1152231706 928679265 2004019579 -491585780 221811359 1173292021 -672708868 1845063098 97455751 227960954 -1545590482 -1379902555 -1244895531 -63986086
REM
CELL 1.54180   50.00000   50.00000   50.00000   90.00000   90.00000   90.00000
LATT -1
SFAC C  
C      1  0.5008060000000  0.5144030000000  0.5009120000000 1.0
C      1  0.4431240000000  0.5099110000000  0.5347570000000 1.0
C      1  0.5015410000000  0.5007990000000  0.5517260000000 1.0
C      1  0.5150990000000  0.4676160000000  0.5671510000000 1.0
C      1  0.4597990000000  0.5760420000000  0.5083300000000 1.0
C      1  0.4578460000000  0.5987110000000  0.4966600000000 1.0
C      1  0.4578970000000  0.4469840000000  0.4942230000000 1.0
C      1  0.5458040000000  0.5546670000000  0.4726020000000 1.0
C      1  0.4539880000000  0.4877900000000  0.5208270000000 1.0
C      1  0.5088510000000  0.4815540000000  0.4346320000000 1.0
C      1  0.4578950000000  0.4589270000000  0.5207830000000 1.0
C      1  0.5234880000000  0.5315700000000  0.5029790000000 1.0
C      1  0.5225550000000  0.4728420000000  0.4804960000000 1.0
C      1  0.4990260000000  0.4935090000000  0.4790020000000 1.0
C      1  0.4993450000000  0.4558380000000  0.4384770000000 1.0
C      1  0.5016640000000  0.5040090000000  0.4510550000000 1.0
C      1  0.5395940000000  0.5656220000000  0.4972090000000 1.0
C      1  0.4724250000000  0.4804270000000  0.4814570000000 1.0
C      1  0.5471770000000  0.4866850000000  0.4753280000000 1.0
C      1  0.4878060000000  0.4655480000000  0.5595500000000 1.0
C      1  0.5293040000000  0.4870200000000  0.5505630000000 1.0
C      1  0.5032550000000  0.4457490000000  0.5179730000000 1.0
C      1  0.5182520000000  0.4533180000000  0.4585720000000 1.0
C      1  0.4570630000000  0.4604390000000  0.4699590000000 1.0
C      1  0.4818790000000  0.4504950000000  0.5356710000000 1.0
C      1  0.4641780000000  0.5288050000000  0.5335380000000 1.0
C      1  0.5370240000000  0.4764580000000  0.5260350000000 1.0
C      1  0.5566740000000  0.5096710000000  0.4651850000000 1.0
C      1  0.4857050000000  0.5085430000000  0.5263180000000 1.0
C      1  0.4612240000000  0.5518600000000  0.5188810000000 1.0
C      1  0.5175770000000  0.5265930000000  0.4478200000000 1.0
C      1  0.5434240000000  0.5323930000000  0.4562800000000 1.0
C      1  0.5242100000000  0.5549330000000  0.5176240000000 1.0
C      1  0.5245010000000  0.4602690000000  0.5074220000000 1.0
END
