TITL C-950522-5749-308 1.79360913517368e-06 125000 -192.920766288945 0 0 32 (C1) n - 1
REM
REM in /home/bkarasulu/work/CARBON/AIRSS/Generating-Clusters/EDIP-Nigel-Params/with-SteepDescent/Only-C1/SD-CG/HFTN-CG
REM
REM
REM
REM
REM
REM ./C.cell (11c1c37f851c82e70ff6c80c92926a4b)
REM
REM compiler GCC version 9.2.1 20190827 (Red Hat 9.2.1-1)
REM options -cpp -mtune=generic -march=x86-64 -g -O0 -fpre-include=/usr/include/finclude/math-vector-fortran.h
REM seed -387672708 1025256711 -716542200 2107212890 -1446561905 600543648 -483035266 -1508800661 1419203768 1664599241 2114404609 121117349 -765351904 329798042 1254999148 1452519005 1587427145 -446364068 -886350407 1485809905 -1129811013 -358576563 655510290 -395299551 820072316 -1874337971 -650551707 422930618 640115137 1456646470 942740795 -1658403422 -771420770
REM
CELL 1.54180   50.00000   50.00000   50.00000   90.00000   90.00000   90.00000
LATT -1
SFAC C  
C      1  0.4862620000000  0.5346800000000  0.4371520000000 1.0
C      1  0.5012900000000  0.4583890000000  0.5132720000000 1.0
C      1  0.5123720000000  0.5382700000000  0.4786280000000 1.0
C      1  0.5118320000000  0.5323850000000  0.4493230000000 1.0
C      1  0.4908020000000  0.5094380000000  0.5690610000000 1.0
C      1  0.4922420000000  0.4894840000000  0.4915160000000 1.0
C      1  0.4671070000000  0.4709920000000  0.5594880000000 1.0
C      1  0.4932260000000  0.5291800000000  0.5232480000000 1.0
C      1  0.5177230000000  0.5404350000000  0.5308720000000 1.0
C      1  0.5116660000000  0.4805270000000  0.4484250000000 1.0
C      1  0.4684950000000  0.5402080000000  0.4567590000000 1.0
C      1  0.4905990000000  0.5225250000000  0.4944510000000 1.0
C      1  0.4643190000000  0.5313590000000  0.4828260000000 1.0
C      1  0.5402970000000  0.4840990000000  0.4875350000000 1.0
C      1  0.4629440000000  0.4888490000000  0.5376030000000 1.0
C      1  0.5242200000000  0.4656950000000  0.4714410000000 1.0
C      1  0.5406490000000  0.5296030000000  0.5183020000000 1.0
C      1  0.4484010000000  0.4845750000000  0.4866910000000 1.0
C      1  0.4795090000000  0.5127850000000  0.5429110000000 1.0
C      1  0.5065960000000  0.4507000000000  0.4873560000000 1.0
C      1  0.4916890000000  0.4806630000000  0.5704880000000 1.0
C      1  0.4618680000000  0.4771310000000  0.5111290000000 1.0
C      1  0.5145940000000  0.4706550000000  0.5575390000000 1.0
C      1  0.5291880000000  0.5069230000000  0.4464780000000 1.0
C      1  0.5535130000000  0.5066410000000  0.5291410000000 1.0
C      1  0.4854150000000  0.4856790000000  0.4625580000000 1.0
C      1  0.4443640000000  0.5121900000000  0.4854830000000 1.0
C      1  0.4597950000000  0.4729990000000  0.4628570000000 1.0
C      1  0.5399340000000  0.5322290000000  0.4883030000000 1.0
C      1  0.5400000000000  0.4852950000000  0.5168590000000 1.0
C      1  0.5474950000000  0.5077210000000  0.4716920000000 1.0
C      1  0.5215960000000  0.4676940000000  0.5306140000000 1.0
END
