TITL C-950529-3362-723 5.68506729531032e-07 125000 -962.29196016593 0 0 154 (C1) n - 1
REM
REM in /home/bkarasulu/work/CARBON/AIRSS/Generating-Clusters/EDIP-Nigel-Params/with-SteepDescent/Only-C1/SD-CG/HFTN-CG
REM
REM
REM
REM
REM
REM ./C.cell (11c1c37f851c82e70ff6c80c92926a4b)
REM
REM compiler GCC version 9.2.1 20190827 (Red Hat 9.2.1-1)
REM options -cpp -mtune=generic -march=x86-64 -g -O0 -fpre-include=/usr/include/finclude/math-vector-fortran.h
REM seed 1330098123 1105538918 -2043235671 1419045473 584764540 -868370517 -1395140244 2122837182 -1718264822 -109697117 761649724 -1134600563 136491563 -1942181560 491529521 -2030941702 903948970 1330197871 -1383749340 818683764 1001499597 -1482305576 219248598 1557360516 958875465 299604254 555685334 1339187288 -1664619546 419372111 1652218955 677597175 -401040963
REM
CELL 1.54180   50.00000   50.00000   50.00000   90.00000   90.00000   90.00000
LATT -1
SFAC C  
C      1  0.5327850000000  0.5286170000000  0.5461070000000 1.0
C      1  0.4522300000000  0.4075040000000  0.5188740000000 1.0
C      1  0.4656630000000  0.5047070000000  0.5287170000000 1.0
C      1  0.4209430000000  0.4832860000000  0.4102430000000 1.0
C      1  0.4220000000000  0.5296060000000  0.5408850000000 1.0
C      1  0.5828960000000  0.5315010000000  0.4413420000000 1.0
C      1  0.4738600000000  0.5109950000000  0.5010020000000 1.0
C      1  0.5321730000000  0.4994980000000  0.5396610000000 1.0
C      1  0.5089250000000  0.5555310000000  0.4316650000000 1.0
C      1  0.4651940000000  0.5720790000000  0.4467090000000 1.0
C      1  0.5544470000000  0.4008630000000  0.4903840000000 1.0
C      1  0.5058030000000  0.6045960000000  0.5341740000000 1.0
C      1  0.4898610000000  0.5176510000000  0.5416670000000 1.0
C      1  0.4223000000000  0.4834590000000  0.5166640000000 1.0
C      1  0.5916310000000  0.5265800000000  0.5132300000000 1.0
C      1  0.5480370000000  0.5472830000000  0.4974800000000 1.0
C      1  0.5088890000000  0.4654170000000  0.6036580000000 1.0
C      1  0.5330070000000  0.4731270000000  0.5845960000000 1.0
C      1  0.4936680000000  0.4997230000000  0.5665290000000 1.0
C      1  0.4913440000000  0.5154660000000  0.4495060000000 1.0
C      1  0.4360850000000  0.4800890000000  0.5913790000000 1.0
C      1  0.4846830000000  0.5099140000000  0.4117470000000 1.0
C      1  0.5618290000000  0.5484140000000  0.4329960000000 1.0
C      1  0.3986290000000  0.5382480000000  0.4422900000000 1.0
C      1  0.5041880000000  0.4155710000000  0.4121700000000 1.0
C      1  0.4985680000000  0.5144800000000  0.6009630000000 1.0
C      1  0.5440510000000  0.5194100000000  0.5926860000000 1.0
C      1  0.4618920000000  0.5101810000000  0.4569100000000 1.0
C      1  0.5924550000000  0.4547220000000  0.5097900000000 1.0
C      1  0.4032050000000  0.4797760000000  0.4918610000000 1.0
C      1  0.4182200000000  0.4882180000000  0.4391590000000 1.0
C      1  0.5368310000000  0.4515690000000  0.4079080000000 1.0
C      1  0.4710260000000  0.4614220000000  0.5672210000000 1.0
C      1  0.5084080000000  0.4551700000000  0.5444730000000 1.0
C      1  0.5569920000000  0.5894530000000  0.5259630000000 1.0
C      1  0.4446570000000  0.4490940000000  0.4339860000000 1.0
C      1  0.5146040000000  0.5115090000000  0.4066610000000 1.0
C      1  0.5826300000000  0.4447190000000  0.4806140000000 1.0
C      1  0.5165640000000  0.5085060000000  0.4895020000000 1.0
C      1  0.5557980000000  0.4785080000000  0.5036320000000 1.0
C      1  0.4872640000000  0.4772300000000  0.4726860000000 1.0
C      1  0.5155390000000  0.4042000000000  0.4604490000000 1.0
C      1  0.4938420000000  0.4475380000000  0.5851400000000 1.0
C      1  0.4531680000000  0.5666430000000  0.5509330000000 1.0
C      1  0.5982720000000  0.5053330000000  0.5313750000000 1.0
C      1  0.5625380000000  0.5009400000000  0.4821480000000 1.0
C      1  0.4704700000000  0.4148780000000  0.5680230000000 1.0
C      1  0.4048340000000  0.5061500000000  0.4775360000000 1.0
C      1  0.5117040000000  0.4482620000000  0.4955560000000 1.0
C      1  0.5780270000000  0.4461010000000  0.4330920000000 1.0
C      1  0.5669410000000  0.5412540000000  0.5223830000000 1.0
C      1  0.5560590000000  0.4294720000000  0.4791810000000 1.0
C      1  0.4449590000000  0.5050400000000  0.4317450000000 1.0
C      1  0.4115450000000  0.5070500000000  0.5598540000000 1.0
C      1  0.5764380000000  0.4894520000000  0.5728410000000 1.0
C      1  0.4263980000000  0.4618920000000  0.5695010000000 1.0
C      1  0.4636250000000  0.4537900000000  0.5183020000000 1.0
C      1  0.4931350000000  0.6071580000000  0.5088730000000 1.0
C      1  0.4857360000000  0.4310080000000  0.5012300000000 1.0
C      1  0.5266760000000  0.3893970000000  0.4833190000000 1.0
C      1  0.4859870000000  0.4037960000000  0.4566530000000 1.0
C      1  0.5427590000000  0.4472190000000  0.5005580000000 1.0
C      1  0.5781930000000  0.5043520000000  0.4378240000000 1.0
C      1  0.5077110000000  0.4954950000000  0.4645410000000 1.0
C      1  0.5583350000000  0.5685290000000  0.4531290000000 1.0
C      1  0.4118430000000  0.4552860000000  0.4755630000000 1.0
C      1  0.5224320000000  0.4545960000000  0.4533840000000 1.0
C      1  0.5698520000000  0.4647840000000  0.5535440000000 1.0
C      1  0.4937700000000  0.4517680000000  0.4614050000000 1.0
C      1  0.5398850000000  0.5234420000000  0.4799980000000 1.0
C      1  0.5531280000000  0.4354760000000  0.4267050000000 1.0
C      1  0.4141620000000  0.5529060000000  0.4965090000000 1.0
C      1  0.5748520000000  0.5676260000000  0.5347120000000 1.0
C      1  0.4449320000000  0.5401820000000  0.5562310000000 1.0
C      1  0.4744150000000  0.4422660000000  0.4364280000000 1.0
C      1  0.4303910000000  0.5080390000000  0.5833750000000 1.0
C      1  0.5243040000000  0.5393730000000  0.4111460000000 1.0
C      1  0.4628780000000  0.4910450000000  0.4810410000000 1.0
C      1  0.4152920000000  0.5570790000000  0.5260390000000 1.0
C      1  0.4770230000000  0.5769730000000  0.5635340000000 1.0
C      1  0.5194620000000  0.5614390000000  0.5055230000000 1.0
C      1  0.4738780000000  0.5410460000000  0.4953130000000 1.0
C      1  0.5824610000000  0.4614990000000  0.4560840000000 1.0
C      1  0.5328110000000  0.5842890000000  0.5658640000000 1.0
C      1  0.4216570000000  0.5246440000000  0.4927170000000 1.0
C      1  0.4897060000000  0.4088540000000  0.5218870000000 1.0
C      1  0.5889720000000  0.5163190000000  0.4862350000000 1.0
C      1  0.4722220000000  0.4815240000000  0.4072700000000 1.0
C      1  0.5579260000000  0.5928230000000  0.4971550000000 1.0
C      1  0.4701680000000  0.4194460000000  0.4775730000000 1.0
C      1  0.4135080000000  0.4792780000000  0.5480980000000 1.0
C      1  0.4875820000000  0.6010920000000  0.5547700000000 1.0
C      1  0.5185320000000  0.5829520000000  0.4339650000000 1.0
C      1  0.5332760000000  0.4818310000000  0.4458030000000 1.0
C      1  0.4973890000000  0.5556700000000  0.4822660000000 1.0
C      1  0.4844900000000  0.4212360000000  0.5922800000000 1.0
C      1  0.5304640000000  0.5883590000000  0.4861380000000 1.0
C      1  0.5112290000000  0.4966040000000  0.5167230000000 1.0
C      1  0.5173150000000  0.3937630000000  0.5133100000000 1.0
C      1  0.4390100000000  0.5634640000000  0.4538600000000 1.0
C      1  0.5303120000000  0.5892620000000  0.5386360000000 1.0
C      1  0.4814480000000  0.4140900000000  0.4291830000000 1.0
C      1  0.4959170000000  0.6072190000000  0.4633390000000 1.0
C      1  0.5107790000000  0.6104800000000  0.4870700000000 1.0
C      1  0.5092110000000  0.4425250000000  0.4037770000000 1.0
C      1  0.4693410000000  0.4751430000000  0.5388250000000 1.0
C      1  0.3895610000000  0.5169110000000  0.4563060000000 1.0
C      1  0.5784110000000  0.4420500000000  0.5327820000000 1.0
C      1  0.5720390000000  0.5417910000000  0.5611240000000 1.0
C      1  0.4956220000000  0.5550350000000  0.5713430000000 1.0
C      1  0.4450590000000  0.4670880000000  0.4100630000000 1.0
C      1  0.5502370000000  0.4319860000000  0.5261970000000 1.0
C      1  0.5893140000000  0.5401040000000  0.4689250000000 1.0
C      1  0.5170550000000  0.4822310000000  0.5602790000000 1.0
C      1  0.4464470000000  0.4334030000000  0.5316880000000 1.0
C      1  0.5643820000000  0.4864020000000  0.4552940000000 1.0
C      1  0.4898380000000  0.4601510000000  0.4180630000000 1.0
C      1  0.4299540000000  0.5732470000000  0.4803610000000 1.0
C      1  0.4810660000000  0.5346000000000  0.5889270000000 1.0
C      1  0.5343700000000  0.5819540000000  0.4568710000000 1.0
C      1  0.5472670000000  0.4029480000000  0.5198000000000 1.0
C      1  0.4658940000000  0.4827420000000  0.5875920000000 1.0
C      1  0.4886910000000  0.4876740000000  0.6082430000000 1.0
C      1  0.5103100000000  0.5395780000000  0.4590400000000 1.0
C      1  0.4920100000000  0.4222550000000  0.5484790000000 1.0
C      1  0.5244230000000  0.5617490000000  0.5792070000000 1.0
C      1  0.4814570000000  0.5819340000000  0.4699270000000 1.0
C      1  0.4556640000000  0.5241000000000  0.5768640000000 1.0
C      1  0.4331410000000  0.5786750000000  0.5345940000000 1.0
C      1  0.4230280000000  0.5494370000000  0.4340370000000 1.0
C      1  0.5432630000000  0.5388660000000  0.5719490000000 1.0
C      1  0.5309540000000  0.4879190000000  0.4160940000000 1.0
C      1  0.5512120000000  0.5462380000000  0.4071920000000 1.0
C      1  0.5482300000000  0.4512390000000  0.5702000000000 1.0
C      1  0.5385620000000  0.4306180000000  0.4526650000000 1.0
C      1  0.4388480000000  0.5307810000000  0.4164950000000 1.0
C      1  0.4798050000000  0.5578140000000  0.4258720000000 1.0
C      1  0.4632920000000  0.5888550000000  0.4935910000000 1.0
C      1  0.5536530000000  0.4935550000000  0.5917450000000 1.0
C      1  0.4548380000000  0.5624520000000  0.5073810000000 1.0
C      1  0.4327310000000  0.5124620000000  0.5178670000000 1.0
C      1  0.4283050000000  0.4646170000000  0.4531740000000 1.0
C      1  0.5328120000000  0.4383090000000  0.5492990000000 1.0
C      1  0.4487060000000  0.4367290000000  0.5615690000000 1.0
C      1  0.5581760000000  0.4866110000000  0.5324620000000 1.0
C      1  0.6034650000000  0.4798920000000  0.5187170000000 1.0
C      1  0.5696490000000  0.5631950000000  0.4794500000000 1.0
C      1  0.5061350000000  0.4670580000000  0.5168940000000 1.0
C      1  0.4261080000000  0.4360200000000  0.4922610000000 1.0
C      1  0.4677010000000  0.5361260000000  0.4100770000000 1.0
C      1  0.4453880000000  0.4687040000000  0.4999260000000 1.0
C      1  0.5842480000000  0.5129360000000  0.5567550000000 1.0
C      1  0.4442170000000  0.4128370000000  0.4907550000000 1.0
C      1  0.5091100000000  0.5437930000000  0.5364480000000 1.0
END
