TITL C-951346-9544-156 -3.16201419628561e-08 125000 -46.8107192516261 0 0 10 (Cs) n - 1
REM
REM in /home/bkarasulu/work/CARBON/AIRSS/Generating-Clusters/EDIP-Nigel-Params/with-SteepDescent/Only-C1/SD-CG/HFTN-CG
REM
REM
REM
REM
REM
REM ./C.cell (11c1c37f851c82e70ff6c80c92926a4b)
REM
REM compiler GCC version 9.2.1 20190827 (Red Hat 9.2.1-1)
REM options -cpp -mtune=generic -march=x86-64 -g -O0 -fpre-include=/usr/include/finclude/math-vector-fortran.h
REM seed 360622598 1644207156 -1246841500 401355482 -239942487 -356705115 -510157593 -1773566657 -1639141996 -619509836 -301404131 -1594548272 1835695058 -625907508 -58115664 -732731742 -515453678 1464134413 -322701667 1992333576 -833751724 -433584663 1183262621 -1455924860 -302562188 -1013278312 879654441 -1509643108 198843986 1155614789 -683778861 679913108 -1725855439
REM
CELL 1.54180   50.00000   50.00000   50.00000   90.00000   90.00000   90.00000
LATT -1
SFAC C  
C      1  0.4984800000000  0.5115490000000  0.5039110000000 1.0
C      1  0.4993270000000  0.5379680000000  0.5110820000000 1.0
C      1  0.4742360000000  0.4697180000000  0.5019600000000 1.0
C      1  0.5620330000000  0.4795770000000  0.4687170000000 1.0
C      1  0.4727460000000  0.4449680000000  0.4955270000000 1.0
C      1  0.4543230000000  0.5073380000000  0.5208430000000 1.0
C      1  0.5201200000000  0.4999980000000  0.4917380000000 1.0
C      1  0.5019470000000  0.5627390000000  0.5170570000000 1.0
C      1  0.5416270000000  0.4900030000000  0.4800630000000 1.0
C      1  0.4751590000000  0.4961420000000  0.5091010000000 1.0
END
