TITL C-950521-2237-105 -4.00174324325493e-06 125000 -397.459634567578 0 0 65 (C1) n - 1
REM
REM in /home/bkarasulu/work/CARBON/AIRSS/Generating-Clusters/EDIP-Nigel-Params/with-SteepDescent/Only-C1/SD-CG/HFTN-CG
REM
REM
REM
REM
REM
REM ./C.cell (11c1c37f851c82e70ff6c80c92926a4b)
REM
REM compiler GCC version 9.2.1 20190827 (Red Hat 9.2.1-1)
REM options -cpp -mtune=generic -march=x86-64 -g -O0 -fpre-include=/usr/include/finclude/math-vector-fortran.h
REM seed -1708443232 777569296 -819173108 -1342028833 -1448527282 717000787 1714811291 -484830708 -1429987806 1652975816 -1956497568 -789374929 -606381038 -292704318 -1216143646 -43458005 -1470724682 149903657 1823592331 909756245 -738172694 -1139384575 260252527 18220526 -418004674 -935720104 -1831973370 715166132 -1640096875 1769498933 1261212518 -1377926911 2103540513
REM
CELL 1.54180   50.00000   50.00000   50.00000   90.00000   90.00000   90.00000
LATT -1
SFAC C  
C      1  0.5621340000000  0.4569960000000  0.4885850000000 1.0
C      1  0.4734820000000  0.5164790000000  0.4254360000000 1.0
C      1  0.4911930000000  0.4339880000000  0.4724130000000 1.0
C      1  0.4596800000000  0.4567920000000  0.5419620000000 1.0
C      1  0.4430150000000  0.5029850000000  0.4628420000000 1.0
C      1  0.5026430000000  0.5068090000000  0.4211760000000 1.0
C      1  0.4848260000000  0.5621200000000  0.5098790000000 1.0
C      1  0.5185930000000  0.4443860000000  0.4728160000000 1.0
C      1  0.4744100000000  0.5017430000000  0.5034840000000 1.0
C      1  0.4360420000000  0.5242480000000  0.5063820000000 1.0
C      1  0.5613440000000  0.5041280000000  0.4844750000000 1.0
C      1  0.4685140000000  0.5639070000000  0.4615960000000 1.0
C      1  0.4774070000000  0.4716200000000  0.4430230000000 1.0
C      1  0.5048350000000  0.5548230000000  0.4309840000000 1.0
C      1  0.4736360000000  0.4519430000000  0.5661170000000 1.0
C      1  0.4712000000000  0.4540380000000  0.4654140000000 1.0
C      1  0.4801730000000  0.4196090000000  0.5175870000000 1.0
C      1  0.4967200000000  0.5676610000000  0.4553630000000 1.0
C      1  0.5036860000000  0.5222860000000  0.5687210000000 1.0
C      1  0.4591210000000  0.5009790000000  0.5563620000000 1.0
C      1  0.5011930000000  0.5629980000000  0.5339500000000 1.0
C      1  0.4570050000000  0.4933460000000  0.4372120000000 1.0
C      1  0.5025940000000  0.4309240000000  0.5317160000000 1.0
C      1  0.5195060000000  0.5166620000000  0.4781430000000 1.0
C      1  0.4468900000000  0.4830800000000  0.5382940000000 1.0
C      1  0.4452990000000  0.5304390000000  0.4781300000000 1.0
C      1  0.4420990000000  0.5455410000000  0.5235530000000 1.0
C      1  0.5307030000000  0.4308790000000  0.5229590000000 1.0
C      1  0.5433830000000  0.5572730000000  0.5084770000000 1.0
C      1  0.5280850000000  0.5369900000000  0.4570290000000 1.0
C      1  0.4403940000000  0.4385150000000  0.5000410000000 1.0
C      1  0.5140290000000  0.5023860000000  0.5862890000000 1.0
C      1  0.4463260000000  0.4958590000000  0.5098280000000 1.0
C      1  0.4948870000000  0.5069800000000  0.5224730000000 1.0
C      1  0.5548180000000  0.4722320000000  0.5333740000000 1.0
C      1  0.5539430000000  0.5291810000000  0.5130580000000 1.0
C      1  0.5039210000000  0.4858620000000  0.4444910000000 1.0
C      1  0.4844230000000  0.4136890000000  0.4905950000000 1.0
C      1  0.5277010000000  0.4848980000000  0.5689670000000 1.0
C      1  0.5445100000000  0.4471750000000  0.5439660000000 1.0
C      1  0.5480350000000  0.4943570000000  0.5506140000000 1.0
C      1  0.4838490000000  0.5127290000000  0.5489670000000 1.0
C      1  0.4965940000000  0.5046780000000  0.4659180000000 1.0
C      1  0.5285050000000  0.5693220000000  0.5303660000000 1.0
C      1  0.5742320000000  0.4718240000000  0.5116820000000 1.0
C      1  0.4790690000000  0.5274580000000  0.4541250000000 1.0
C      1  0.5246760000000  0.4553590000000  0.5655420000000 1.0
C      1  0.5266680000000  0.4684970000000  0.4577440000000 1.0
C      1  0.5170030000000  0.5773060000000  0.4724460000000 1.0
C      1  0.4827330000000  0.5365520000000  0.4926850000000 1.0
C      1  0.5206770000000  0.5304700000000  0.4260860000000 1.0
C      1  0.5159220000000  0.5227920000000  0.5074330000000 1.0
C      1  0.4989260000000  0.4429200000000  0.5576700000000 1.0
C      1  0.5823330000000  0.4976560000000  0.5022570000000 1.0
C      1  0.4558670000000  0.5667620000000  0.5106830000000 1.0
C      1  0.5450940000000  0.5213900000000  0.5404500000000 1.0
C      1  0.5424870000000  0.5696020000000  0.4816540000000 1.0
C      1  0.5241990000000  0.5387230000000  0.5533000000000 1.0
C      1  0.5524140000000  0.4789430000000  0.4705280000000 1.0
C      1  0.5384760000000  0.4386790000000  0.4941460000000 1.0
C      1  0.4556970000000  0.4346290000000  0.5230510000000 1.0
C      1  0.5532550000000  0.5516030000000  0.4624580000000 1.0
C      1  0.4352960000000  0.4821630000000  0.4831950000000 1.0
C      1  0.4492670000000  0.5685580000000  0.4823340000000 1.0
C      1  0.4443640000000  0.4545810000000  0.4775030000000 1.0
END
