TITL C-951334-9093-399 1.37444839731319e-06 125000 -1085.18395322195 0 0 172 (C1) n - 1
REM
REM in /home/bkarasulu/work/CARBON/AIRSS/Generating-Clusters/EDIP-Nigel-Params/with-SteepDescent/Only-C1/SD-CG/HFTN-CG
REM
REM
REM
REM
REM
REM ./C.cell (11c1c37f851c82e70ff6c80c92926a4b)
REM
REM compiler GCC version 9.2.1 20190827 (Red Hat 9.2.1-1)
REM options -cpp -mtune=generic -march=x86-64 -g -O0 -fpre-include=/usr/include/finclude/math-vector-fortran.h
REM seed 1800930141 1231898243 317706280 -1477318857 756123440 -271587714 1437775482 7227611 -1796809226 -440691233 2027812082 -1154103823 -1074263350 -1167192575 -1487140321 -546874224 1922384492 1736653119 105228214 -975032265 2073924131 -863307146 -1601241334 -958798177 -820720810 -916840309 -34185508 -957942910 -230931619 147472758 -398672151 487393287 930292720
REM
CELL 1.54180   50.00000   50.00000   50.00000   90.00000   90.00000   90.00000
LATT -1
SFAC C  
C      1  0.4010210000000  0.5300510000000  0.5125710000000 1.0
C      1  0.5256480000000  0.5912830000000  0.4726840000000 1.0
C      1  0.5839060000000  0.5491980000000  0.5436110000000 1.0
C      1  0.5120470000000  0.4713960000000  0.5973270000000 1.0
C      1  0.6040590000000  0.5082770000000  0.5588410000000 1.0
C      1  0.5874830000000  0.4337150000000  0.4946180000000 1.0
C      1  0.5951600000000  0.5371030000000  0.4556060000000 1.0
C      1  0.4117700000000  0.4629110000000  0.4310330000000 1.0
C      1  0.5728580000000  0.4593650000000  0.5361040000000 1.0
C      1  0.5533650000000  0.5255670000000  0.5018240000000 1.0
C      1  0.6010290000000  0.4452760000000  0.4715680000000 1.0
C      1  0.5584310000000  0.4732320000000  0.5909120000000 1.0
C      1  0.4766520000000  0.5311490000000  0.6098010000000 1.0
C      1  0.4563430000000  0.4842430000000  0.4538700000000 1.0
C      1  0.4992170000000  0.4448540000000  0.4066590000000 1.0
C      1  0.5845340000000  0.4671540000000  0.5844830000000 1.0
C      1  0.5194180000000  0.3832160000000  0.5168080000000 1.0
C      1  0.4690760000000  0.5551600000000  0.5236470000000 1.0
C      1  0.5315460000000  0.5130250000000  0.5500000000000 1.0
C      1  0.5661380000000  0.4410070000000  0.4567640000000 1.0
C      1  0.4532210000000  0.4294700000000  0.5667040000000 1.0
C      1  0.4254040000000  0.4389920000000  0.4725410000000 1.0
C      1  0.3940550000000  0.5227180000000  0.5577130000000 1.0
C      1  0.4502720000000  0.5062270000000  0.5434100000000 1.0
C      1  0.5129210000000  0.5149220000000  0.5741670000000 1.0
C      1  0.5105000000000  0.4366680000000  0.4836760000000 1.0
C      1  0.4819640000000  0.4651450000000  0.5967760000000 1.0
C      1  0.4656820000000  0.5628150000000  0.4170390000000 1.0
C      1  0.5209800000000  0.5582550000000  0.5235530000000 1.0
C      1  0.4818080000000  0.5963610000000  0.5462760000000 1.0
C      1  0.5478600000000  0.4046470000000  0.4831850000000 1.0
C      1  0.4028890000000  0.4772180000000  0.4547910000000 1.0
C      1  0.4103140000000  0.4358120000000  0.5264370000000 1.0
C      1  0.4593360000000  0.4036690000000  0.4827980000000 1.0
C      1  0.6106370000000  0.4845190000000  0.5462800000000 1.0
C      1  0.4797350000000  0.5032120000000  0.5421600000000 1.0
C      1  0.4518080000000  0.5823890000000  0.4621900000000 1.0
C      1  0.4352460000000  0.5290220000000  0.5869130000000 1.0
C      1  0.4378840000000  0.5133390000000  0.4142020000000 1.0
C      1  0.5889950000000  0.4936900000000  0.4385660000000 1.0
C      1  0.5712410000000  0.5433850000000  0.4742020000000 1.0
C      1  0.4714050000000  0.4685750000000  0.4756600000000 1.0
C      1  0.5113880000000  0.5989070000000  0.5493010000000 1.0
C      1  0.5209530000000  0.4638120000000  0.4017700000000 1.0
C      1  0.5723760000000  0.5736510000000  0.5054730000000 1.0
C      1  0.5286440000000  0.4859680000000  0.5373520000000 1.0
C      1  0.4983340000000  0.4293030000000  0.4308400000000 1.0
C      1  0.4332940000000  0.5836460000000  0.4850200000000 1.0
C      1  0.4733290000000  0.5086620000000  0.4441720000000 1.0
C      1  0.5443660000000  0.4627010000000  0.4197250000000 1.0
C      1  0.5458800000000  0.4392990000000  0.4371720000000 1.0
C      1  0.5512630000000  0.5777060000000  0.4340790000000 1.0
C      1  0.5149280000000  0.4112200000000  0.5648330000000 1.0
C      1  0.4755110000000  0.5735770000000  0.5894670000000 1.0
C      1  0.5927220000000  0.4650100000000  0.5579850000000 1.0
C      1  0.4480940000000  0.5302890000000  0.5025600000000 1.0
C      1  0.5300710000000  0.5323480000000  0.4848510000000 1.0
C      1  0.4139960000000  0.5205360000000  0.4675540000000 1.0
C      1  0.5218480000000  0.4999230000000  0.5983360000000 1.0
C      1  0.4764620000000  0.4617750000000  0.5271070000000 1.0
C      1  0.5573290000000  0.4843640000000  0.5282280000000 1.0
C      1  0.5731440000000  0.5813590000000  0.4774630000000 1.0
C      1  0.5042370000000  0.4555750000000  0.5408470000000 1.0
C      1  0.4199510000000  0.4622180000000  0.5321580000000 1.0
C      1  0.5507400000000  0.5012270000000  0.5945600000000 1.0
C      1  0.4878220000000  0.5025700000000  0.5684790000000 1.0
C      1  0.5651870000000  0.5097730000000  0.4047930000000 1.0
C      1  0.3869570000000  0.4975480000000  0.5424750000000 1.0
C      1  0.5266000000000  0.5891240000000  0.5251360000000 1.0
C      1  0.5927310000000  0.4525940000000  0.5154440000000 1.0
C      1  0.4459040000000  0.4833910000000  0.5640100000000 1.0
C      1  0.5027480000000  0.5915170000000  0.4552220000000 1.0
C      1  0.4740820000000  0.4812930000000  0.5038070000000 1.0
C      1  0.4356520000000  0.4765020000000  0.3834070000000 1.0
C      1  0.4194570000000  0.5372570000000  0.4910330000000 1.0
C      1  0.5228980000000  0.4212110000000  0.4436430000000 1.0
C      1  0.4673050000000  0.4898970000000  0.5854150000000 1.0
C      1  0.4766740000000  0.5405160000000  0.4035020000000 1.0
C      1  0.5338520000000  0.4494620000000  0.4971810000000 1.0
C      1  0.4998590000000  0.5456700000000  0.3889500000000 1.0
C      1  0.4332340000000  0.4216540000000  0.5197960000000 1.0
C      1  0.5358270000000  0.4543910000000  0.5927680000000 1.0
C      1  0.4640470000000  0.5338720000000  0.4562770000000 1.0
C      1  0.4648240000000  0.5813810000000  0.5650810000000 1.0
C      1  0.4500280000000  0.4354360000000  0.4255040000000 1.0
C      1  0.4797750000000  0.5862380000000  0.4738290000000 1.0
C      1  0.4264440000000  0.4933790000000  0.4658980000000 1.0
C      1  0.5299820000000  0.4799100000000  0.4913140000000 1.0
C      1  0.4186760000000  0.4819430000000  0.5075720000000 1.0
C      1  0.4718680000000  0.4484760000000  0.3962050000000 1.0
C      1  0.5288940000000  0.5700180000000  0.4185960000000 1.0
C      1  0.4016130000000  0.4741110000000  0.5534900000000 1.0
C      1  0.6029300000000  0.5317450000000  0.4999110000000 1.0
C      1  0.4803470000000  0.5861000000000  0.4133570000000 1.0
C      1  0.4948920000000  0.5213620000000  0.5269780000000 1.0
C      1  0.5429750000000  0.5792570000000  0.5852070000000 1.0
C      1  0.5470520000000  0.3897140000000  0.5088280000000 1.0
C      1  0.4804000000000  0.4919720000000  0.3980630000000 1.0
C      1  0.5877260000000  0.5502690000000  0.5147320000000 1.0
C      1  0.5039570000000  0.5822740000000  0.4280890000000 1.0
C      1  0.5679160000000  0.3899230000000  0.5279400000000 1.0
C      1  0.4542210000000  0.4160790000000  0.5399720000000 1.0
C      1  0.4257880000000  0.4392350000000  0.4427060000000 1.0
C      1  0.4041170000000  0.5326200000000  0.4442060000000 1.0
C      1  0.5199140000000  0.4097620000000  0.4724230000000 1.0
C      1  0.4548010000000  0.4681720000000  0.4255280000000 1.0
C      1  0.5051740000000  0.3985830000000  0.5388660000000 1.0
C      1  0.4473250000000  0.4999960000000  0.5118460000000 1.0
C      1  0.4563720000000  0.5131740000000  0.6025300000000 1.0
C      1  0.5148950000000  0.5546680000000  0.4951530000000 1.0
C      1  0.5567210000000  0.5863990000000  0.5273220000000 1.0
C      1  0.5516860000000  0.5888700000000  0.4600950000000 1.0
C      1  0.5166640000000  0.6021720000000  0.4992580000000 1.0
C      1  0.4677990000000  0.5139580000000  0.4135340000000 1.0
C      1  0.4269330000000  0.5373970000000  0.4288300000000 1.0
C      1  0.4772160000000  0.3933110000000  0.5021690000000 1.0
C      1  0.6124320000000  0.4731410000000  0.5098790000000 1.0
C      1  0.5097450000000  0.5444170000000  0.5762780000000 1.0
C      1  0.4706160000000  0.5355570000000  0.4839070000000 1.0
C      1  0.4104140000000  0.5126170000000  0.5818760000000 1.0
C      1  0.4694540000000  0.5986770000000  0.5194940000000 1.0
C      1  0.4088490000000  0.4620790000000  0.4812970000000 1.0
C      1  0.4420250000000  0.5883490000000  0.5128950000000 1.0
C      1  0.6084880000000  0.5200210000000  0.4748630000000 1.0
C      1  0.4379790000000  0.4202250000000  0.4912790000000 1.0
C      1  0.5437950000000  0.5372870000000  0.5311450000000 1.0
C      1  0.5028890000000  0.4400530000000  0.5679120000000 1.0
C      1  0.5613550000000  0.5660810000000  0.5476980000000 1.0
C      1  0.5597020000000  0.5272780000000  0.5810580000000 1.0
C      1  0.4311490000000  0.4830620000000  0.4112610000000 1.0
C      1  0.5996170000000  0.4935350000000  0.4664920000000 1.0
C      1  0.5666690000000  0.4832520000000  0.4205040000000 1.0
C      1  0.5285410000000  0.5039420000000  0.4182600000000 1.0
C      1  0.4500710000000  0.4596810000000  0.5445970000000 1.0
C      1  0.5156690000000  0.4806890000000  0.4639350000000 1.0
C      1  0.4971730000000  0.4570180000000  0.4655700000000 1.0
C      1  0.4855360000000  0.5601770000000  0.4913000000000 1.0
C      1  0.3958750000000  0.5012540000000  0.5146350000000 1.0
C      1  0.5265900000000  0.5493330000000  0.3963890000000 1.0
C      1  0.5285430000000  0.4429760000000  0.5262460000000 1.0
C      1  0.4905420000000  0.5520090000000  0.5975960000000 1.0
C      1  0.5358400000000  0.4267860000000  0.5818200000000 1.0
C      1  0.5196100000000  0.5223300000000  0.4396280000000 1.0
C      1  0.4181690000000  0.4842300000000  0.5755110000000 1.0
C      1  0.5018380000000  0.5051940000000  0.4538850000000 1.0
C      1  0.5593170000000  0.4321230000000  0.4842630000000 1.0
C      1  0.4495340000000  0.5564290000000  0.4414960000000 1.0
C      1  0.5556900000000  0.4951570000000  0.5007520000000 1.0
C      1  0.5647360000000  0.4123430000000  0.5424510000000 1.0
C      1  0.5029990000000  0.3850070000000  0.4922910000000 1.0
C      1  0.4863510000000  0.6047250000000  0.4967380000000 1.0
C      1  0.4496790000000  0.5614540000000  0.5475840000000 1.0
C      1  0.4766810000000  0.4383420000000  0.5827890000000 1.0
C      1  0.5902170000000  0.5217360000000  0.4316570000000 1.0
C      1  0.5838450000000  0.5272280000000  0.5624000000000 1.0
C      1  0.5086940000000  0.4885520000000  0.5121410000000 1.0
C      1  0.5387300000000  0.5513150000000  0.5825490000000 1.0
C      1  0.4718930000000  0.4189100000000  0.4366700000000 1.0
C      1  0.5390470000000  0.5324810000000  0.4578680000000 1.0
C      1  0.5108440000000  0.4911340000000  0.3945890000000 1.0
C      1  0.4659640000000  0.4008170000000  0.4564060000000 1.0
C      1  0.4137770000000  0.5644280000000  0.4836680000000 1.0
C      1  0.5532900000000  0.4379490000000  0.5426740000000 1.0
C      1  0.5241500000000  0.5950380000000  0.5737790000000 1.0
C      1  0.4973260000000  0.5480880000000  0.5397530000000 1.0
C      1  0.4045680000000  0.5434590000000  0.5381560000000 1.0
C      1  0.4426320000000  0.5332420000000  0.5579020000000 1.0
C      1  0.5372990000000  0.5202380000000  0.3927560000000 1.0
C      1  0.4779630000000  0.4030090000000  0.5292910000000 1.0
C      1  0.6119610000000  0.4710540000000  0.4800260000000 1.0
C      1  0.4639030000000  0.4731540000000  0.3828300000000 1.0
C      1  0.4262540000000  0.5738890000000  0.5341140000000 1.0
END
