TITL C-950528-5794-46 7.14098897207147e-07 125000 -961.279856536282 0 0 153 (C1) n - 1
REM
REM in /home/bkarasulu/work/CARBON/AIRSS/Generating-Clusters/EDIP-Nigel-Params/with-SteepDescent/Only-C1/SD-CG/HFTN-CG
REM
REM
REM
REM
REM
REM ./C.cell (11c1c37f851c82e70ff6c80c92926a4b)
REM
REM compiler GCC version 9.2.1 20190827 (Red Hat 9.2.1-1)
REM options -cpp -mtune=generic -march=x86-64 -g -O0 -fpre-include=/usr/include/finclude/math-vector-fortran.h
REM seed -1592851160 1719991715 704966657 1530081742 -1358165152 1888215454 84263032 -1648545267 -1301768188 912352655 -720434878 -2037326677 668649817 -542256153 -1893630458 -1254437779 -1207386851 -91020819 1284944413 -22805715 -914635212 454371462 1060806238 681771582 787721887 -671267914 -831833290 -303733676 892710662 -1900603887 -551697802 -1836477913 -2031608867
REM
CELL 1.54180   50.00000   50.00000   50.00000   90.00000   90.00000   90.00000
LATT -1
SFAC C  
C      1  0.4953190000000  0.4525610000000  0.4054270000000 1.0
C      1  0.5450340000000  0.5603780000000  0.5699550000000 1.0
C      1  0.5222210000000  0.5001980000000  0.6119720000000 1.0
C      1  0.5126750000000  0.5995310000000  0.5100210000000 1.0
C      1  0.5737340000000  0.5665980000000  0.4919220000000 1.0
C      1  0.4612970000000  0.5861010000000  0.5069490000000 1.0
C      1  0.4592910000000  0.4238260000000  0.5669730000000 1.0
C      1  0.5123020000000  0.4977420000000  0.4841610000000 1.0
C      1  0.4504540000000  0.5111640000000  0.5703100000000 1.0
C      1  0.4126420000000  0.5294810000000  0.5453850000000 1.0
C      1  0.5617190000000  0.4725540000000  0.4459540000000 1.0
C      1  0.4844890000000  0.4875040000000  0.4971580000000 1.0
C      1  0.4345180000000  0.4192190000000  0.4659420000000 1.0
C      1  0.5784670000000  0.4491620000000  0.4387270000000 1.0
C      1  0.4704950000000  0.4735640000000  0.4504850000000 1.0
C      1  0.5485650000000  0.5081230000000  0.5751070000000 1.0
C      1  0.5488330000000  0.6054780000000  0.4795820000000 1.0
C      1  0.4934130000000  0.3955210000000  0.5395950000000 1.0
C      1  0.4494140000000  0.4160990000000  0.5395500000000 1.0
C      1  0.5196860000000  0.6053890000000  0.4827010000000 1.0
C      1  0.4733780000000  0.4100170000000  0.4961510000000 1.0
C      1  0.5607090000000  0.5917690000000  0.5033550000000 1.0
C      1  0.5324910000000  0.4755290000000  0.6010560000000 1.0
C      1  0.6047610000000  0.4667700000000  0.4805850000000 1.0
C      1  0.5364430000000  0.5821070000000  0.5519320000000 1.0
C      1  0.5550630000000  0.4793960000000  0.5824900000000 1.0
C      1  0.5820690000000  0.5078980000000  0.4947870000000 1.0
C      1  0.5384870000000  0.5032360000000  0.5473350000000 1.0
C      1  0.4148010000000  0.4738980000000  0.5466890000000 1.0
C      1  0.3954090000000  0.5082940000000  0.4920690000000 1.0
C      1  0.5666570000000  0.4419200000000  0.4859240000000 1.0
C      1  0.4839640000000  0.5273870000000  0.5221160000000 1.0
C      1  0.5552930000000  0.5175270000000  0.4869370000000 1.0
C      1  0.4370010000000  0.4829840000000  0.4966710000000 1.0
C      1  0.5235930000000  0.5663520000000  0.4232810000000 1.0
C      1  0.4658820000000  0.4390830000000  0.5008150000000 1.0
C      1  0.5036370000000  0.4026510000000  0.4937220000000 1.0
C      1  0.4173580000000  0.5351470000000  0.4557630000000 1.0
C      1  0.4898270000000  0.5802260000000  0.5125120000000 1.0
C      1  0.4672250000000  0.3977210000000  0.5245410000000 1.0
C      1  0.5337880000000  0.5011180000000  0.5033900000000 1.0
C      1  0.5774770000000  0.4977110000000  0.4469920000000 1.0
C      1  0.4903900000000  0.4944170000000  0.4387760000000 1.0
C      1  0.4291910000000  0.4945260000000  0.5242000000000 1.0
C      1  0.4885810000000  0.4457310000000  0.4540950000000 1.0
C      1  0.4608170000000  0.4920510000000  0.4790600000000 1.0
C      1  0.4750730000000  0.4186740000000  0.4476840000000 1.0
C      1  0.5275890000000  0.5510760000000  0.5917620000000 1.0
C      1  0.5141860000000  0.4580180000000  0.5868810000000 1.0
C      1  0.4119310000000  0.4863740000000  0.4498420000000 1.0
C      1  0.3869800000000  0.5193060000000  0.5397740000000 1.0
C      1  0.4590740000000  0.4059250000000  0.4691200000000 1.0
C      1  0.5971680000000  0.5105650000000  0.5647900000000 1.0
C      1  0.5052450000000  0.4504850000000  0.4789300000000 1.0
C      1  0.5643120000000  0.5481590000000  0.4454040000000 1.0
C      1  0.5146780000000  0.5226150000000  0.4659380000000 1.0
C      1  0.5027010000000  0.5370710000000  0.5421480000000 1.0
C      1  0.4739370000000  0.5569760000000  0.5835260000000 1.0
C      1  0.4729630000000  0.5465660000000  0.3940250000000 1.0
C      1  0.5267230000000  0.4065280000000  0.4487370000000 1.0
C      1  0.5233320000000  0.4412180000000  0.5646540000000 1.0
C      1  0.5518700000000  0.4668000000000  0.4733660000000 1.0
C      1  0.4838410000000  0.5000070000000  0.4092610000000 1.0
C      1  0.4928300000000  0.5280070000000  0.4013700000000 1.0
C      1  0.5528180000000  0.5485820000000  0.5282850000000 1.0
C      1  0.5153760000000  0.4012900000000  0.5202020000000 1.0
C      1  0.5894890000000  0.5374230000000  0.5270910000000 1.0
C      1  0.4412110000000  0.5659890000000  0.5457010000000 1.0
C      1  0.5029730000000  0.6204170000000  0.4663760000000 1.0
C      1  0.5414520000000  0.4727470000000  0.5155930000000 1.0
C      1  0.4811900000000  0.4997510000000  0.5245790000000 1.0
C      1  0.5899300000000  0.4414010000000  0.4655120000000 1.0
C      1  0.5306640000000  0.4902000000000  0.4068640000000 1.0
C      1  0.4987140000000  0.5893870000000  0.4271010000000 1.0
C      1  0.5307660000000  0.5278560000000  0.5316740000000 1.0
C      1  0.5747230000000  0.5231910000000  0.5760070000000 1.0
C      1  0.4794960000000  0.5720180000000  0.4636030000000 1.0
C      1  0.4554040000000  0.4932710000000  0.5400810000000 1.0
C      1  0.5862310000000  0.5586680000000  0.5450430000000 1.0
C      1  0.4245650000000  0.5256520000000  0.5709090000000 1.0
C      1  0.5386970000000  0.5656150000000  0.4496290000000 1.0
C      1  0.5718270000000  0.5510950000000  0.5684650000000 1.0
C      1  0.5315740000000  0.4271990000000  0.4309810000000 1.0
C      1  0.5086270000000  0.5838640000000  0.5606320000000 1.0
C      1  0.4173260000000  0.4619250000000  0.4883870000000 1.0
C      1  0.4666690000000  0.5682590000000  0.5567010000000 1.0
C      1  0.5555540000000  0.5191230000000  0.4499640000000 1.0
C      1  0.5276350000000  0.4487840000000  0.5309710000000 1.0
C      1  0.3977160000000  0.4832770000000  0.4757620000000 1.0
C      1  0.4732980000000  0.5271590000000  0.5844250000000 1.0
C      1  0.4927620000000  0.4911170000000  0.5669820000000 1.0
C      1  0.5589640000000  0.4321930000000  0.4276460000000 1.0
C      1  0.4469610000000  0.4414430000000  0.5234420000000 1.0
C      1  0.5032440000000  0.5684640000000  0.5865110000000 1.0
C      1  0.4965110000000  0.5613860000000  0.4876280000000 1.0
C      1  0.4347510000000  0.4926740000000  0.5874590000000 1.0
C      1  0.4519820000000  0.4683330000000  0.4264310000000 1.0
C      1  0.4503570000000  0.5366500000000  0.4356310000000 1.0
C      1  0.5952920000000  0.4949400000000  0.4717900000000 1.0
C      1  0.5592550000000  0.4833650000000  0.5355370000000 1.0
C      1  0.4624640000000  0.4207350000000  0.4225840000000 1.0
C      1  0.4118920000000  0.5320260000000  0.4839800000000 1.0
C      1  0.5227340000000  0.4729390000000  0.4701360000000 1.0
C      1  0.5580250000000  0.5909090000000  0.4554910000000 1.0
C      1  0.4871150000000  0.5612490000000  0.4354690000000 1.0
C      1  0.4636330000000  0.5564860000000  0.4183410000000 1.0
C      1  0.5507910000000  0.5467540000000  0.4963580000000 1.0
C      1  0.4659000000000  0.4461290000000  0.4107560000000 1.0
C      1  0.4613060000000  0.4626850000000  0.5417530000000 1.0
C      1  0.4269990000000  0.4462420000000  0.4645990000000 1.0
C      1  0.4535630000000  0.4931500000000  0.4093400000000 1.0
C      1  0.5483450000000  0.4189610000000  0.4920570000000 1.0
C      1  0.5252890000000  0.4114150000000  0.4761460000000 1.0
C      1  0.4663520000000  0.5238110000000  0.4734180000000 1.0
C      1  0.5401010000000  0.4201340000000  0.5212240000000 1.0
C      1  0.5181730000000  0.4777730000000  0.4401030000000 1.0
C      1  0.4219280000000  0.5523540000000  0.5314350000000 1.0
C      1  0.5239800000000  0.5203690000000  0.5905890000000 1.0
C      1  0.3918650000000  0.5005920000000  0.5197850000000 1.0
C      1  0.4882030000000  0.5212000000000  0.4529760000000 1.0
C      1  0.5998530000000  0.5124660000000  0.5370940000000 1.0
C      1  0.4574120000000  0.4547700000000  0.5694790000000 1.0
C      1  0.5098670000000  0.4491550000000  0.4314190000000 1.0
C      1  0.5037890000000  0.4864910000000  0.5406730000000 1.0
C      1  0.5246150000000  0.5511420000000  0.4756400000000 1.0
C      1  0.5806460000000  0.5699530000000  0.4628140000000 1.0
C      1  0.6006370000000  0.4665050000000  0.5110780000000 1.0
C      1  0.4923800000000  0.5676440000000  0.5416140000000 1.0
C      1  0.4362680000000  0.5159260000000  0.4180560000000 1.0
C      1  0.5694670000000  0.4374360000000  0.5394770000000 1.0
C      1  0.4420010000000  0.5712730000000  0.4918150000000 1.0
C      1  0.4986760000000  0.4571990000000  0.5313070000000 1.0
C      1  0.5109220000000  0.4153770000000  0.5674470000000 1.0
C      1  0.4180460000000  0.4448800000000  0.5136920000000 1.0
C      1  0.5031680000000  0.4807230000000  0.3970760000000 1.0
C      1  0.4012410000000  0.4522220000000  0.5346760000000 1.0
C      1  0.4136020000000  0.5125090000000  0.4372930000000 1.0
C      1  0.5370030000000  0.5872910000000  0.5219950000000 1.0
C      1  0.5814200000000  0.4443160000000  0.5131350000000 1.0
C      1  0.4788990000000  0.4703250000000  0.5835240000000 1.0
C      1  0.4257100000000  0.4623350000000  0.4400450000000 1.0
C      1  0.5862740000000  0.4920980000000  0.5203040000000 1.0
C      1  0.5618110000000  0.4613460000000  0.5562600000000 1.0
C      1  0.4986600000000  0.5194400000000  0.5721510000000 1.0
C      1  0.4240250000000  0.5516010000000  0.5027650000000 1.0
C      1  0.5349210000000  0.5148780000000  0.4237130000000 1.0
C      1  0.4870780000000  0.6018540000000  0.4528010000000 1.0
C      1  0.4519420000000  0.5595850000000  0.4671660000000 1.0
C      1  0.4885900000000  0.4576670000000  0.5020620000000 1.0
C      1  0.4838870000000  0.4100820000000  0.5743790000000 1.0
C      1  0.4837990000000  0.5358290000000  0.4948930000000 1.0
C      1  0.4298210000000  0.4679300000000  0.5729780000000 1.0
C      1  0.5176110000000  0.5370980000000  0.4147170000000 1.0
END
