TITL C-950533-5798-234 -4.54710338848732e-06 125000 -618.758277210559 0 0 101 (C1) n - 1
REM
REM in /home/bkarasulu/work/CARBON/AIRSS/Generating-Clusters/EDIP-Nigel-Params/with-SteepDescent/Only-C1/SD-CG/HFTN-CG
REM
REM
REM
REM
REM
REM ./C.cell (11c1c37f851c82e70ff6c80c92926a4b)
REM
REM compiler GCC version 9.2.1 20190827 (Red Hat 9.2.1-1)
REM options -cpp -mtune=generic -march=x86-64 -g -O0 -fpre-include=/usr/include/finclude/math-vector-fortran.h
REM seed -1895944409 -1269178010 -1219534697 -1881287554 -175240460 -1111222747 598349562 -779104015 1959579023 2115029100 1607794052 -332175921 2053914426 1818508850 1992301150 1052733452 -1386808386 344378535 -757865167 -628362543 1902615342 969424573 -1931922114 -1844071302 1018156158 1046508837 19181682 -1461348777 -1862707930 1618637482 -647221822 1575876519 -1792353563
REM
CELL 1.54180   50.00000   50.00000   50.00000   90.00000   90.00000   90.00000
LATT -1
SFAC C  
C      1  0.5031620000000  0.5670610000000  0.4760160000000 1.0
C      1  0.5139290000000  0.4020660000000  0.4970460000000 1.0
C      1  0.5800440000000  0.5510070000000  0.4874700000000 1.0
C      1  0.4194430000000  0.4941970000000  0.4469620000000 1.0
C      1  0.4764230000000  0.5642560000000  0.5510290000000 1.0
C      1  0.5807870000000  0.4851020000000  0.5286490000000 1.0
C      1  0.4829570000000  0.4591170000000  0.4344430000000 1.0
C      1  0.4401190000000  0.4752100000000  0.4496960000000 1.0
C      1  0.5616190000000  0.4377500000000  0.5285890000000 1.0
C      1  0.4221260000000  0.5412610000000  0.5035650000000 1.0
C      1  0.5304940000000  0.4851340000000  0.5847940000000 1.0
C      1  0.4634030000000  0.4214070000000  0.4605070000000 1.0
C      1  0.5439480000000  0.4846580000000  0.5042940000000 1.0
C      1  0.4450530000000  0.4719260000000  0.5597510000000 1.0
C      1  0.5327430000000  0.5257800000000  0.4859980000000 1.0
C      1  0.5854680000000  0.5114690000000  0.5143320000000 1.0
C      1  0.5257380000000  0.5843480000000  0.5263700000000 1.0
C      1  0.5601070000000  0.5656440000000  0.4713420000000 1.0
C      1  0.5209920000000  0.4277130000000  0.5556510000000 1.0
C      1  0.5591860000000  0.4376370000000  0.4894340000000 1.0
C      1  0.4137090000000  0.4707470000000  0.5135790000000 1.0
C      1  0.5661140000000  0.4596640000000  0.4699300000000 1.0
C      1  0.4079840000000  0.4657140000000  0.4852380000000 1.0
C      1  0.5528370000000  0.5123320000000  0.4658290000000 1.0
C      1  0.5233520000000  0.5133500000000  0.5880190000000 1.0
C      1  0.5423680000000  0.5714710000000  0.5042650000000 1.0
C      1  0.5516130000000  0.5198780000000  0.5483510000000 1.0
C      1  0.5652150000000  0.4873450000000  0.4830610000000 1.0
C      1  0.4777350000000  0.5516920000000  0.4280690000000 1.0
C      1  0.4730640000000  0.4445100000000  0.5599050000000 1.0
C      1  0.4572280000000  0.4464530000000  0.5341470000000 1.0
C      1  0.5150460000000  0.5324170000000  0.4464750000000 1.0
C      1  0.5688170000000  0.5573250000000  0.5140890000000 1.0
C      1  0.5779020000000  0.4584380000000  0.5161300000000 1.0
C      1  0.4845790000000  0.5818950000000  0.4940980000000 1.0
C      1  0.5267810000000  0.5067800000000  0.5061400000000 1.0
C      1  0.5404370000000  0.5323290000000  0.5736830000000 1.0
C      1  0.4867970000000  0.5239000000000  0.5813690000000 1.0
C      1  0.4707560000000  0.4724470000000  0.5759510000000 1.0
C      1  0.4221570000000  0.5127950000000  0.5403680000000 1.0
C      1  0.5156750000000  0.5321830000000  0.4164760000000 1.0
C      1  0.5237360000000  0.5537000000000  0.5633540000000 1.0
C      1  0.5464740000000  0.5529020000000  0.4497200000000 1.0
C      1  0.5460200000000  0.4443430000000  0.5528620000000 1.0
C      1  0.5584840000000  0.5286420000000  0.4393670000000 1.0
C      1  0.4556630000000  0.5247980000000  0.5721900000000 1.0
C      1  0.4961670000000  0.5498970000000  0.4063740000000 1.0
C      1  0.5228630000000  0.5171590000000  0.5332760000000 1.0
C      1  0.4477070000000  0.5017700000000  0.5510690000000 1.0
C      1  0.4502630000000  0.4326260000000  0.4828410000000 1.0
C      1  0.4638990000000  0.5612790000000  0.4953250000000 1.0
C      1  0.4498550000000  0.5492540000000  0.5554020000000 1.0
C      1  0.4356070000000  0.5610360000000  0.4861170000000 1.0
C      1  0.5532300000000  0.4596300000000  0.4432550000000 1.0
C      1  0.4958610000000  0.5491350000000  0.5670630000000 1.0
C      1  0.5514950000000  0.4857460000000  0.4311700000000 1.0
C      1  0.5167550000000  0.4477410000000  0.4921850000000 1.0
C      1  0.4886540000000  0.4961950000000  0.5672800000000 1.0
C      1  0.4566330000000  0.5303200000000  0.4259580000000 1.0
C      1  0.5277010000000  0.4232620000000  0.4811210000000 1.0
C      1  0.4302930000000  0.5403500000000  0.5329460000000 1.0
C      1  0.4067540000000  0.4939110000000  0.4724370000000 1.0
C      1  0.4115180000000  0.4988420000000  0.5170940000000 1.0
C      1  0.4676410000000  0.4314000000000  0.5094640000000 1.0
C      1  0.5085780000000  0.4693100000000  0.5338690000000 1.0
C      1  0.5134220000000  0.4930110000000  0.5508450000000 1.0
C      1  0.4653330000000  0.5039390000000  0.4194420000000 1.0
C      1  0.5287330000000  0.4436580000000  0.4351800000000 1.0
C      1  0.4371480000000  0.4604620000000  0.4759770000000 1.0
C      1  0.5143030000000  0.4253760000000  0.4538440000000 1.0
C      1  0.5437420000000  0.5197070000000  0.4144680000000 1.0
C      1  0.5222030000000  0.4905620000000  0.4288140000000 1.0
C      1  0.5725180000000  0.5328450000000  0.5304480000000 1.0
C      1  0.4469450000000  0.4818560000000  0.4969930000000 1.0
C      1  0.5049910000000  0.5452200000000  0.5240880000000 1.0
C      1  0.4830290000000  0.4978980000000  0.4635130000000 1.0
C      1  0.5485410000000  0.4718110000000  0.5658310000000 1.0
C      1  0.5097100000000  0.4632850000000  0.4232890000000 1.0
C      1  0.4863060000000  0.4388340000000  0.4568230000000 1.0
C      1  0.5321880000000  0.4595770000000  0.5142310000000 1.0
C      1  0.4163970000000  0.5134820000000  0.4932070000000 1.0
C      1  0.4697460000000  0.5250350000000  0.4703580000000 1.0
C      1  0.4838830000000  0.4789130000000  0.5199940000000 1.0
C      1  0.5145080000000  0.4077450000000  0.5351650000000 1.0
C      1  0.4588350000000  0.5177770000000  0.5027970000000 1.0
C      1  0.4686290000000  0.5022510000000  0.5284330000000 1.0
C      1  0.4894410000000  0.4520670000000  0.4842970000000 1.0
C      1  0.4717740000000  0.5442900000000  0.5181100000000 1.0
C      1  0.5639540000000  0.4920540000000  0.5520440000000 1.0
C      1  0.4447600000000  0.5300630000000  0.4528970000000 1.0
C      1  0.5851710000000  0.5206200000000  0.4855760000000 1.0
C      1  0.5205760000000  0.5519760000000  0.4960280000000 1.0
C      1  0.4913550000000  0.4091930000000  0.5156200000000 1.0
C      1  0.4957210000000  0.5827190000000  0.5227660000000 1.0
C      1  0.4801150000000  0.4796280000000  0.4897830000000 1.0
C      1  0.4311600000000  0.5543280000000  0.4591150000000 1.0
C      1  0.5342430000000  0.5766810000000  0.5515630000000 1.0
C      1  0.4674110000000  0.4840460000000  0.4407160000000 1.0
C      1  0.5016790000000  0.4491580000000  0.5542030000000 1.0
C      1  0.4901750000000  0.5469650000000  0.4563160000000 1.0
C      1  0.5115970000000  0.5033120000000  0.4543750000000 1.0
END
