TITL C-951343-2256-260 7.62796405721583e-05 125000 -228.525114972069 0 0 38 (C1) n - 1
REM
REM in /home/bkarasulu/work/CARBON/AIRSS/Generating-Clusters/EDIP-Nigel-Params/with-SteepDescent/Only-C1/SD-CG/HFTN-CG
REM
REM
REM
REM
REM
REM ./C.cell (11c1c37f851c82e70ff6c80c92926a4b)
REM
REM compiler GCC version 9.2.1 20190827 (Red Hat 9.2.1-1)
REM options -cpp -mtune=generic -march=x86-64 -g -O0 -fpre-include=/usr/include/finclude/math-vector-fortran.h
REM seed -899710483 1186002777 1692662926 -1217722318 -374732047 -889028666 177567926 1393807478 448235289 -130539247 837676193 1783330052 147458672 2044026818 -259034873 536002356 899641166 1349851365 -100408880 1896495622 1396556334 -399490652 250403057 701255995 1020645574 1469985309 1048712542 -1915172791 442844150 -1030778978 311992208 1175417596 -546959963
REM
CELL 1.54180   50.00000   50.00000   50.00000   90.00000   90.00000   90.00000
LATT -1
SFAC C  
C      1  0.4446940000000  0.5201810000000  0.5283820000000 1.0
C      1  0.5449890000000  0.5127170000000  0.5132270000000 1.0
C      1  0.4789030000000  0.4578250000000  0.5111650000000 1.0
C      1  0.4593980000000  0.5210990000000  0.5041570000000 1.0
C      1  0.4377430000000  0.4729840000000  0.5167660000000 1.0
C      1  0.4848340000000  0.4701940000000  0.4597550000000 1.0
C      1  0.4667590000000  0.5154720000000  0.4605320000000 1.0
C      1  0.5114920000000  0.4603420000000  0.4519620000000 1.0
C      1  0.5239830000000  0.4862200000000  0.4444200000000 1.0
C      1  0.4870250000000  0.5355910000000  0.4722500000000 1.0
C      1  0.4838760000000  0.5632060000000  0.4772280000000 1.0
C      1  0.5023210000000  0.4983890000000  0.4980350000000 1.0
C      1  0.5410060000000  0.4973160000000  0.4662990000000 1.0
C      1  0.5254320000000  0.4441240000000  0.4698330000000 1.0
C      1  0.5307620000000  0.5327180000000  0.5553730000000 1.0
C      1  0.5385170000000  0.4655410000000  0.5065230000000 1.0
C      1  0.5246390000000  0.4850800000000  0.5479960000000 1.0
C      1  0.5382640000000  0.5095770000000  0.5412770000000 1.0
C      1  0.4866640000000  0.5147120000000  0.5546760000000 1.0
C      1  0.4890850000000  0.5258590000000  0.5007100000000 1.0
C      1  0.5051730000000  0.5037520000000  0.4319000000000 1.0
C      1  0.5293540000000  0.4617310000000  0.5331180000000 1.0
C      1  0.4975760000000  0.5552540000000  0.5281490000000 1.0
C      1  0.5657460000000  0.5393450000000  0.4773790000000 1.0
C      1  0.4916670000000  0.4679990000000  0.5367260000000 1.0
C      1  0.5320750000000  0.4927570000000  0.4952760000000 1.0
C      1  0.4929150000000  0.5668050000000  0.5032200000000 1.0
C      1  0.4525780000000  0.4490780000000  0.5159930000000 1.0
C      1  0.4804320000000  0.4950930000000  0.4432620000000 1.0
C      1  0.4811970000000  0.4790810000000  0.4891420000000 1.0
C      1  0.4746980000000  0.4897300000000  0.5488450000000 1.0
C      1  0.4479920000000  0.4932020000000  0.5364700000000 1.0
C      1  0.5423000000000  0.4433070000000  0.4904610000000 1.0
C      1  0.5551780000000  0.5207560000000  0.4609960000000 1.0
C      1  0.4308640000000  0.4843600000000  0.4914070000000 1.0
C      1  0.4563160000000  0.4983540000000  0.4853380000000 1.0
C      1  0.5036640000000  0.5363710000000  0.5486550000000 1.0
C      1  0.5598900000000  0.5338750000000  0.5030970000000 1.0
END
