TITL C-951341-1326-523 -1.57538128531057e-07 125000 -1068.79091828527 0 0 170 (C1) n - 1
REM
REM in /home/bkarasulu/work/CARBON/AIRSS/Generating-Clusters/EDIP-Nigel-Params/with-SteepDescent/Only-C1/SD-CG/HFTN-CG
REM
REM
REM
REM
REM
REM ./C.cell (11c1c37f851c82e70ff6c80c92926a4b)
REM
REM compiler GCC version 9.2.1 20190827 (Red Hat 9.2.1-1)
REM options -cpp -mtune=generic -march=x86-64 -g -O0 -fpre-include=/usr/include/finclude/math-vector-fortran.h
REM seed -1368040258 -642201881 -1337133791 -877178454 -266890084 -37924668 -606756892 -1248329888 -1537060097 1368733871 -192715747 1608214566 -74218321 -364053750 -1296527691 -1828907136 109203869 597349271 554585843 1071835354 -2125952870 -2066847824 -1152185220 1450296221 1705622503 652720653 1309668004 122960318 -634073345 995903132 -774588634 -2145200794 -798043472
REM
CELL 1.54180   50.00000   50.00000   50.00000   90.00000   90.00000   90.00000
LATT -1
SFAC C  
C      1  0.5045950000000  0.4862230000000  0.3944860000000 1.0
C      1  0.4410660000000  0.4758910000000  0.5819900000000 1.0
C      1  0.4499370000000  0.5999330000000  0.5351520000000 1.0
C      1  0.5200750000000  0.5107310000000  0.3957910000000 1.0
C      1  0.4694820000000  0.5009660000000  0.5592470000000 1.0
C      1  0.5143580000000  0.3804880000000  0.5378420000000 1.0
C      1  0.5153170000000  0.4316080000000  0.4939530000000 1.0
C      1  0.4523170000000  0.4626790000000  0.5393460000000 1.0
C      1  0.4819910000000  0.4796700000000  0.4695120000000 1.0
C      1  0.5519620000000  0.5167500000000  0.5805490000000 1.0
C      1  0.5630510000000  0.5306050000000  0.4148620000000 1.0
C      1  0.5239600000000  0.6154700000000  0.4818960000000 1.0
C      1  0.5535880000000  0.5116620000000  0.4637880000000 1.0
C      1  0.4283520000000  0.5294420000000  0.5008150000000 1.0
C      1  0.4817940000000  0.4078890000000  0.4273950000000 1.0
C      1  0.5764750000000  0.5622760000000  0.4834070000000 1.0
C      1  0.5200620000000  0.4560940000000  0.4759870000000 1.0
C      1  0.3898630000000  0.5069880000000  0.4985340000000 1.0
C      1  0.4595430000000  0.5478250000000  0.6048240000000 1.0
C      1  0.4767180000000  0.4895690000000  0.4003400000000 1.0
C      1  0.4549410000000  0.4964940000000  0.4401140000000 1.0
C      1  0.4134000000000  0.4588460000000  0.4967450000000 1.0
C      1  0.4587580000000  0.4435660000000  0.4671160000000 1.0
C      1  0.4100640000000  0.4603510000000  0.4676120000000 1.0
C      1  0.5875570000000  0.4834330000000  0.4624870000000 1.0
C      1  0.5408350000000  0.5916110000000  0.4406610000000 1.0
C      1  0.4215830000000  0.5465830000000  0.4552360000000 1.0
C      1  0.5078680000000  0.5625960000000  0.4510180000000 1.0
C      1  0.4602140000000  0.5681290000000  0.4302170000000 1.0
C      1  0.4806680000000  0.4601570000000  0.6078090000000 1.0
C      1  0.4878470000000  0.4037540000000  0.4656520000000 1.0
C      1  0.5570030000000  0.4749120000000  0.5029230000000 1.0
C      1  0.5450950000000  0.4862550000000  0.4519100000000 1.0
C      1  0.5134680000000  0.5215450000000  0.6103530000000 1.0
C      1  0.5081810000000  0.5136240000000  0.4473340000000 1.0
C      1  0.4417470000000  0.4152340000000  0.4866930000000 1.0
C      1  0.4419670000000  0.5522080000000  0.5612860000000 1.0
C      1  0.5428040000000  0.4572910000000  0.5887490000000 1.0
C      1  0.4832330000000  0.5668130000000  0.5309800000000 1.0
C      1  0.5150500000000  0.4616350000000  0.4052040000000 1.0
C      1  0.4196850000000  0.4954980000000  0.5358540000000 1.0
C      1  0.4970660000000  0.4826020000000  0.5161250000000 1.0
C      1  0.5486230000000  0.5129120000000  0.5354060000000 1.0
C      1  0.5691780000000  0.4954160000000  0.5703260000000 1.0
C      1  0.5738570000000  0.4485850000000  0.5513020000000 1.0
C      1  0.4825030000000  0.5641310000000  0.4104390000000 1.0
C      1  0.4709410000000  0.5219630000000  0.5984840000000 1.0
C      1  0.4934850000000  0.6115820000000  0.5197030000000 1.0
C      1  0.5824540000000  0.4341800000000  0.4608190000000 1.0
C      1  0.4776040000000  0.6113010000000  0.4941090000000 1.0
C      1  0.4598250000000  0.4998650000000  0.4718590000000 1.0
C      1  0.5231300000000  0.6104530000000  0.5109210000000 1.0
C      1  0.5893790000000  0.5142060000000  0.4782570000000 1.0
C      1  0.5103520000000  0.5331080000000  0.3820270000000 1.0
C      1  0.5380700000000  0.5549330000000  0.4634360000000 1.0
C      1  0.4911940000000  0.4293760000000  0.5112750000000 1.0
C      1  0.5012070000000  0.4764020000000  0.6160780000000 1.0
C      1  0.5369290000000  0.5174830000000  0.4880790000000 1.0
C      1  0.4987050000000  0.5125540000000  0.5278920000000 1.0
C      1  0.4858110000000  0.5626740000000  0.5006230000000 1.0
C      1  0.5228110000000  0.4795360000000  0.5952350000000 1.0
C      1  0.5579650000000  0.5841190000000  0.4897210000000 1.0
C      1  0.4717470000000  0.4391660000000  0.4077950000000 1.0
C      1  0.4834250000000  0.4734940000000  0.5602740000000 1.0
C      1  0.5696540000000  0.4480450000000  0.4409100000000 1.0
C      1  0.4673050000000  0.5309890000000  0.4711060000000 1.0
C      1  0.4819600000000  0.3990930000000  0.5109760000000 1.0
C      1  0.5366290000000  0.5056010000000  0.6027030000000 1.0
C      1  0.4084500000000  0.5175140000000  0.5527640000000 1.0
C      1  0.5534350000000  0.5846780000000  0.5415600000000 1.0
C      1  0.5452040000000  0.4585980000000  0.5267550000000 1.0
C      1  0.4919590000000  0.4847400000000  0.4412290000000 1.0
C      1  0.5507330000000  0.4632980000000  0.4713900000000 1.0
C      1  0.5049090000000  0.4833650000000  0.4870960000000 1.0
C      1  0.5757340000000  0.5563980000000  0.4557730000000 1.0
C      1  0.5100230000000  0.4855230000000  0.5686120000000 1.0
C      1  0.5656570000000  0.4264550000000  0.5337290000000 1.0
C      1  0.5068440000000  0.3822950000000  0.5095220000000 1.0
C      1  0.5001670000000  0.5293010000000  0.5840730000000 1.0
C      1  0.5220740000000  0.5748320000000  0.4274030000000 1.0
C      1  0.5436130000000  0.4606430000000  0.4074390000000 1.0
C      1  0.5629450000000  0.4215410000000  0.4783470000000 1.0
C      1  0.4505180000000  0.5060060000000  0.5804460000000 1.0
C      1  0.5512290000000  0.5460750000000  0.5710860000000 1.0
C      1  0.5867710000000  0.4802200000000  0.5066090000000 1.0
C      1  0.3998000000000  0.5414120000000  0.5365600000000 1.0
C      1  0.4582290000000  0.5239270000000  0.4270840000000 1.0
C      1  0.4999440000000  0.4372100000000  0.4003910000000 1.0
C      1  0.5383140000000  0.4108490000000  0.4621740000000 1.0
C      1  0.4401420000000  0.5749440000000  0.4938000000000 1.0
C      1  0.4652800000000  0.5460700000000  0.5434940000000 1.0
C      1  0.4405010000000  0.4359750000000  0.5334180000000 1.0
C      1  0.5026800000000  0.5592760000000  0.5827890000000 1.0
C      1  0.4551090000000  0.5669110000000  0.5843870000000 1.0
C      1  0.4818640000000  0.4318790000000  0.4504480000000 1.0
C      1  0.5153640000000  0.4054690000000  0.4804930000000 1.0
C      1  0.5031580000000  0.5835840000000  0.4085560000000 1.0
C      1  0.5073630000000  0.4510870000000  0.4475610000000 1.0
C      1  0.4936910000000  0.5036470000000  0.6228540000000 1.0
C      1  0.5300300000000  0.4269080000000  0.5510110000000 1.0
C      1  0.4703050000000  0.4284050000000  0.5726380000000 1.0
C      1  0.5314510000000  0.5880850000000  0.5596670000000 1.0
C      1  0.4687340000000  0.5823380000000  0.4550170000000 1.0
C      1  0.4337260000000  0.4536580000000  0.4510070000000 1.0
C      1  0.5650920000000  0.5579260000000  0.5465150000000 1.0
C      1  0.5447600000000  0.5905640000000  0.5147100000000 1.0
C      1  0.4298660000000  0.5263010000000  0.5712480000000 1.0
C      1  0.5438210000000  0.5983530000000  0.4682090000000 1.0
C      1  0.4910660000000  0.3872650000000  0.5557880000000 1.0
C      1  0.4630670000000  0.4210330000000  0.5448890000000 1.0
C      1  0.5545350000000  0.4853190000000  0.4220430000000 1.0
C      1  0.5911710000000  0.5323620000000  0.4536530000000 1.0
C      1  0.5279170000000  0.4266650000000  0.4365550000000 1.0
C      1  0.5952760000000  0.4521200000000  0.5012270000000 1.0
C      1  0.5307400000000  0.5667780000000  0.5787570000000 1.0
C      1  0.5844970000000  0.4889000000000  0.4321580000000 1.0
C      1  0.4995170000000  0.4386650000000  0.5414400000000 1.0
C      1  0.4705920000000  0.4473170000000  0.4971830000000 1.0
C      1  0.5395310000000  0.5295630000000  0.4439890000000 1.0
C      1  0.5108720000000  0.5626790000000  0.5395490000000 1.0
C      1  0.4317370000000  0.5826910000000  0.5223070000000 1.0
C      1  0.4002790000000  0.5281940000000  0.4557370000000 1.0
C      1  0.5425090000000  0.4992200000000  0.5096240000000 1.0
C      1  0.4601410000000  0.4658740000000  0.4084670000000 1.0
C      1  0.4920580000000  0.5977500000000  0.4504040000000 1.0
C      1  0.4773950000000  0.5950490000000  0.5413250000000 1.0
C      1  0.3932010000000  0.4804250000000  0.4582630000000 1.0
C      1  0.5995110000000  0.4557430000000  0.4722320000000 1.0
C      1  0.4393450000000  0.5470210000000  0.4796290000000 1.0
C      1  0.5147770000000  0.4629710000000  0.5312070000000 1.0
C      1  0.4806640000000  0.5783380000000  0.5754960000000 1.0
C      1  0.4873880000000  0.5365180000000  0.4447870000000 1.0
C      1  0.4023460000000  0.4831800000000  0.5132980000000 1.0
C      1  0.4685270000000  0.5182660000000  0.5355790000000 1.0
C      1  0.5837390000000  0.5384550000000  0.5000740000000 1.0
C      1  0.4675270000000  0.5828940000000  0.4860250000000 1.0
C      1  0.4861280000000  0.5394370000000  0.3947860000000 1.0
C      1  0.5131190000000  0.4163990000000  0.5954320000000 1.0
C      1  0.4381550000000  0.5471310000000  0.4305380000000 1.0
C      1  0.4297670000000  0.4737200000000  0.5539610000000 1.0
C      1  0.3895660000000  0.5058000000000  0.4688450000000 1.0
C      1  0.4419490000000  0.5094360000000  0.5186190000000 1.0
C      1  0.4672190000000  0.5178760000000  0.4001970000000 1.0
C      1  0.4197050000000  0.5642810000000  0.5434970000000 1.0
C      1  0.4671940000000  0.4718180000000  0.5131810000000 1.0
C      1  0.5779700000000  0.5062600000000  0.5458600000000 1.0
C      1  0.5176810000000  0.5403730000000  0.5223270000000 1.0
C      1  0.5161870000000  0.5122590000000  0.5556510000000 1.0
C      1  0.5386860000000  0.5457870000000  0.4998050000000 1.0
C      1  0.4679370000000  0.4576980000000  0.5824600000000 1.0
C      1  0.5620240000000  0.5400240000000  0.5219370000000 1.0
C      1  0.5596570000000  0.4676300000000  0.5673690000000 1.0
C      1  0.5093890000000  0.5132650000000  0.4791170000000 1.0
C      1  0.4000020000000  0.5345650000000  0.5069640000000 1.0
C      1  0.5470560000000  0.5088670000000  0.4057030000000 1.0
C      1  0.4293060000000  0.4344870000000  0.5059390000000 1.0
C      1  0.5730950000000  0.4319760000000  0.5050610000000 1.0
C      1  0.4653670000000  0.3976750000000  0.4860320000000 1.0
C      1  0.5336210000000  0.3989890000000  0.5447930000000 1.0
C      1  0.5514550000000  0.4377120000000  0.4226160000000 1.0
C      1  0.5327840000000  0.4306510000000  0.5807880000000 1.0
C      1  0.4683780000000  0.3932290000000  0.5371310000000 1.0
C      1  0.4964990000000  0.6169650000000  0.4713510000000 1.0
C      1  0.4936570000000  0.4109880000000  0.5753000000000 1.0
C      1  0.5870040000000  0.5189820000000  0.4279080000000 1.0
C      1  0.5948750000000  0.4897530000000  0.5313590000000 1.0
C      1  0.4504860000000  0.4907690000000  0.4988080000000 1.0
C      1  0.4391470000000  0.4729900000000  0.4286260000000 1.0
C      1  0.5095950000000  0.4132340000000  0.4159180000000 1.0
C      1  0.4876480000000  0.5343980000000  0.4910250000000 1.0
END
