TITL C-951334-9093-434 -1.85845293735013e-06 125000 -430.646353759192 0 0 70 (C1) n - 1
REM
REM in /home/bkarasulu/work/CARBON/AIRSS/Generating-Clusters/EDIP-Nigel-Params/with-SteepDescent/Only-C1/SD-CG/HFTN-CG
REM
REM
REM
REM
REM
REM ./C.cell (11c1c37f851c82e70ff6c80c92926a4b)
REM
REM compiler GCC version 9.2.1 20190827 (Red Hat 9.2.1-1)
REM options -cpp -mtune=generic -march=x86-64 -g -O0 -fpre-include=/usr/include/finclude/math-vector-fortran.h
REM seed -2059111721 -1976136875 -2086267562 1683150705 -1400640001 686679957 -1002021087 -564708594 -1609247021 1414065372 1574848766 65449413 -784812437 -1241114347 662587958 -1826654317 -1102333058 893765725 -2076664495 -533727443 760143252 1755443007 844978921 -198070261 1903759936 569163343 286162964 587053070 989297484 -2102950424 1161303783 -1679620322 677874659
REM
CELL 1.54180   50.00000   50.00000   50.00000   90.00000   90.00000   90.00000
LATT -1
SFAC C  
C      1  0.4613170000000  0.5588350000000  0.5285400000000 1.0
C      1  0.4723590000000  0.5367790000000  0.4609710000000 1.0
C      1  0.4771110000000  0.4963840000000  0.5734780000000 1.0
C      1  0.4876160000000  0.4171500000000  0.5037110000000 1.0
C      1  0.5252600000000  0.4800750000000  0.4976700000000 1.0
C      1  0.4980640000000  0.5499920000000  0.5615780000000 1.0
C      1  0.4414800000000  0.5445290000000  0.5121410000000 1.0
C      1  0.5802490000000  0.4838090000000  0.4679190000000 1.0
C      1  0.4637100000000  0.5142590000000  0.5534810000000 1.0
C      1  0.4620860000000  0.4243820000000  0.4607170000000 1.0
C      1  0.5781770000000  0.4551470000000  0.5091710000000 1.0
C      1  0.4301190000000  0.5264770000000  0.4723990000000 1.0
C      1  0.5025730000000  0.5248380000000  0.5058940000000 1.0
C      1  0.5044840000000  0.5048250000000  0.5835300000000 1.0
C      1  0.4788940000000  0.4464010000000  0.4479590000000 1.0
C      1  0.5852710000000  0.4635400000000  0.4846670000000 1.0
C      1  0.5597650000000  0.5452790000000  0.5035620000000 1.0
C      1  0.5571440000000  0.4609510000000  0.5270480000000 1.0
C      1  0.5220500000000  0.4871050000000  0.5669160000000 1.0
C      1  0.4792970000000  0.4830560000000  0.4874480000000 1.0
C      1  0.5315470000000  0.5017170000000  0.5420000000000 1.0
C      1  0.4715870000000  0.5426100000000  0.5516690000000 1.0
C      1  0.4288700000000  0.4600400000000  0.4813800000000 1.0
C      1  0.4360330000000  0.5540020000000  0.4841350000000 1.0
C      1  0.4619130000000  0.5629790000000  0.4701070000000 1.0
C      1  0.4957220000000  0.5079420000000  0.4364790000000 1.0
C      1  0.4491150000000  0.5208880000000  0.4501790000000 1.0
C      1  0.5117240000000  0.5652560000000  0.4760420000000 1.0
C      1  0.4511330000000  0.5172850000000  0.5034490000000 1.0
C      1  0.5480270000000  0.5515090000000  0.5301750000000 1.0
C      1  0.4844440000000  0.5745540000000  0.4854490000000 1.0
C      1  0.5675800000000  0.5492480000000  0.4448220000000 1.0
C      1  0.4339170000000  0.4622210000000  0.4528980000000 1.0
C      1  0.4641570000000  0.4285010000000  0.4904980000000 1.0
C      1  0.5070970000000  0.4759820000000  0.4741890000000 1.0
C      1  0.4347340000000  0.4329060000000  0.4543020000000 1.0
C      1  0.4671790000000  0.4976920000000  0.4402300000000 1.0
C      1  0.4560750000000  0.4998170000000  0.5284080000000 1.0
C      1  0.4940310000000  0.4288300000000  0.5280840000000 1.0
C      1  0.4327200000000  0.4823220000000  0.5315840000000 1.0
C      1  0.4785490000000  0.5774380000000  0.5138680000000 1.0
C      1  0.5717880000000  0.5205490000000  0.4972660000000 1.0
C      1  0.4532220000000  0.4558680000000  0.4978990000000 1.0
C      1  0.4446480000000  0.4572330000000  0.5267980000000 1.0
C      1  0.5847180000000  0.5291330000000  0.4522460000000 1.0
C      1  0.5160460000000  0.4968450000000  0.4546980000000 1.0
C      1  0.4825750000000  0.4806900000000  0.5195220000000 1.0
C      1  0.5419180000000  0.5373900000000  0.4437110000000 1.0
C      1  0.5057890000000  0.4489200000000  0.4600060000000 1.0
C      1  0.4621490000000  0.4538730000000  0.5482530000000 1.0
C      1  0.5407370000000  0.5124580000000  0.4585130000000 1.0
C      1  0.5697630000000  0.5104910000000  0.4690660000000 1.0
C      1  0.5158960000000  0.4249360000000  0.4704270000000 1.0
C      1  0.5118030000000  0.5330590000000  0.5802750000000 1.0
C      1  0.5171480000000  0.5537930000000  0.4486110000000 1.0
C      1  0.4791220000000  0.4666250000000  0.5670300000000 1.0
C      1  0.5345570000000  0.5715220000000  0.4923570000000 1.0
C      1  0.5276460000000  0.5700590000000  0.5203370000000 1.0
C      1  0.4785000000000  0.5168360000000  0.4884490000000 1.0
C      1  0.5584260000000  0.4895370000000  0.5350310000000 1.0
C      1  0.4934710000000  0.5382050000000  0.4392690000000 1.0
C      1  0.5052420000000  0.4550240000000  0.5312980000000 1.0
C      1  0.5076910000000  0.4057360000000  0.4876560000000 1.0
C      1  0.4616740000000  0.4704670000000  0.4493400000000 1.0
C      1  0.5306660000000  0.4566140000000  0.5142520000000 1.0
C      1  0.5114120000000  0.4984730000000  0.5176730000000 1.0
C      1  0.5758810000000  0.5037950000000  0.5187770000000 1.0
C      1  0.5324330000000  0.5319760000000  0.5483470000000 1.0
C      1  0.5075900000000  0.4618850000000  0.5607060000000 1.0
C      1  0.5043090000000  0.5504570000000  0.5234390000000 1.0
END
