TITL C-950532-2784-57 -3.07034164882417e-06 125000 -871.431911335399 0 0 139 (C1) n - 1
REM
REM in /home/bkarasulu/work/CARBON/AIRSS/Generating-Clusters/EDIP-Nigel-Params/with-SteepDescent/Only-C1/SD-CG/HFTN-CG
REM
REM
REM
REM
REM
REM ./C.cell (11c1c37f851c82e70ff6c80c92926a4b)
REM
REM compiler GCC version 9.2.1 20190827 (Red Hat 9.2.1-1)
REM options -cpp -mtune=generic -march=x86-64 -g -O0 -fpre-include=/usr/include/finclude/math-vector-fortran.h
REM seed -1750434127 -106400387 345495392 1114135300 1557659031 -377795881 -802910107 -212453356 2799921 818012976 -269772041 1010180081 146631812 -628298478 -1925409268 1009579823 541974190 -382247664 1122513114 1269576805 -1983264526 1887616103 2030969032 934054586 -447659015 -733282324 -142529226 1277085561 -1377114404 -1973056716 1995073313 1262477974 1363857555
REM
CELL 1.54180   50.00000   50.00000   50.00000   90.00000   90.00000   90.00000
LATT -1
SFAC C  
C      1  0.5594350000000  0.5618830000000  0.5052110000000 1.0
C      1  0.4347020000000  0.5532640000000  0.4964560000000 1.0
C      1  0.5300090000000  0.3979580000000  0.5217110000000 1.0
C      1  0.4956710000000  0.4272400000000  0.4908950000000 1.0
C      1  0.4264060000000  0.4777900000000  0.4120070000000 1.0
C      1  0.4488310000000  0.5212660000000  0.4062440000000 1.0
C      1  0.4551050000000  0.5234480000000  0.4623250000000 1.0
C      1  0.5240340000000  0.5172630000000  0.5690250000000 1.0
C      1  0.5287610000000  0.5851960000000  0.4669890000000 1.0
C      1  0.5788460000000  0.5299260000000  0.4811700000000 1.0
C      1  0.4799400000000  0.5268810000000  0.5349250000000 1.0
C      1  0.4562650000000  0.5854720000000  0.4681610000000 1.0
C      1  0.5954260000000  0.4400940000000  0.5190250000000 1.0
C      1  0.5396630000000  0.5810020000000  0.5166120000000 1.0
C      1  0.6035630000000  0.4730740000000  0.4810850000000 1.0
C      1  0.4727610000000  0.4820700000000  0.3890170000000 1.0
C      1  0.4381850000000  0.4443070000000  0.5360150000000 1.0
C      1  0.4299790000000  0.5060740000000  0.4240620000000 1.0
C      1  0.4624920000000  0.4833910000000  0.5535450000000 1.0
C      1  0.5418940000000  0.4859790000000  0.5746300000000 1.0
C      1  0.4871710000000  0.4161280000000  0.5410530000000 1.0
C      1  0.5964660000000  0.5375180000000  0.5044780000000 1.0
C      1  0.5123290000000  0.4425100000000  0.5773350000000 1.0
C      1  0.4111520000000  0.5019040000000  0.5069850000000 1.0
C      1  0.4883080000000  0.5590560000000  0.4981320000000 1.0
C      1  0.4637580000000  0.5871660000000  0.5394610000000 1.0
C      1  0.4678740000000  0.4562970000000  0.5927710000000 1.0
C      1  0.4807010000000  0.4883290000000  0.4792390000000 1.0
C      1  0.5029500000000  0.4847920000000  0.4063590000000 1.0
C      1  0.5934490000000  0.5158420000000  0.4559490000000 1.0
C      1  0.4825660000000  0.4618940000000  0.6162230000000 1.0
C      1  0.5095780000000  0.5302640000000  0.5918410000000 1.0
C      1  0.4780710000000  0.5806000000000  0.4501370000000 1.0
C      1  0.5205010000000  0.5892250000000  0.4953030000000 1.0
C      1  0.5522830000000  0.4608250000000  0.5266170000000 1.0
C      1  0.4428950000000  0.5032830000000  0.5089240000000 1.0
C      1  0.4967790000000  0.4245040000000  0.4435810000000 1.0
C      1  0.5522180000000  0.5052530000000  0.4463190000000 1.0
C      1  0.5922010000000  0.4856620000000  0.4555270000000 1.0
C      1  0.5056300000000  0.5142230000000  0.3982350000000 1.0
C      1  0.5207370000000  0.4688020000000  0.5874720000000 1.0
C      1  0.5525320000000  0.5587880000000  0.5598340000000 1.0
C      1  0.4834080000000  0.5653630000000  0.5363460000000 1.0
C      1  0.4418360000000  0.4411470000000  0.4405610000000 1.0
C      1  0.4807860000000  0.5307200000000  0.5041450000000 1.0
C      1  0.5143190000000  0.4894010000000  0.5317050000000 1.0
C      1  0.5667000000000  0.5011840000000  0.4885300000000 1.0
C      1  0.5939870000000  0.4455570000000  0.4885930000000 1.0
C      1  0.5499250000000  0.4615840000000  0.4295490000000 1.0
C      1  0.4321290000000  0.5658700000000  0.4677400000000 1.0
C      1  0.4841260000000  0.5339230000000  0.3974400000000 1.0
C      1  0.5403780000000  0.5696970000000  0.4442690000000 1.0
C      1  0.5525000000000  0.4749030000000  0.4715990000000 1.0
C      1  0.5901820000000  0.4882620000000  0.5040770000000 1.0
C      1  0.5221120000000  0.5513020000000  0.4264490000000 1.0
C      1  0.4706850000000  0.6010310000000  0.5136040000000 1.0
C      1  0.4955250000000  0.5548340000000  0.5818070000000 1.0
C      1  0.4748750000000  0.5580220000000  0.4334520000000 1.0
C      1  0.4498080000000  0.5308580000000  0.5822750000000 1.0
C      1  0.4611080000000  0.5071280000000  0.5960550000000 1.0
C      1  0.4596440000000  0.5074570000000  0.3837770000000 1.0
C      1  0.5581520000000  0.5115890000000  0.5372200000000 1.0
C      1  0.4552170000000  0.4811010000000  0.5816080000000 1.0
C      1  0.4824840000000  0.4400680000000  0.5701910000000 1.0
C      1  0.4335200000000  0.5413460000000  0.4506810000000 1.0
C      1  0.4107080000000  0.4796290000000  0.5556600000000 1.0
C      1  0.5341670000000  0.4775440000000  0.4101990000000 1.0
C      1  0.5005890000000  0.4638400000000  0.5315320000000 1.0
C      1  0.5397410000000  0.5402230000000  0.4993750000000 1.0
C      1  0.5235920000000  0.4701750000000  0.4835160000000 1.0
C      1  0.5322640000000  0.5709910000000  0.5447120000000 1.0
C      1  0.4675020000000  0.5524460000000  0.5844000000000 1.0
C      1  0.4455600000000  0.4541250000000  0.4893940000000 1.0
C      1  0.4634530000000  0.5771540000000  0.4965060000000 1.0
C      1  0.4523770000000  0.5274940000000  0.4930610000000 1.0
C      1  0.4568260000000  0.4412020000000  0.4650740000000 1.0
C      1  0.5299320000000  0.4259100000000  0.5597480000000 1.0
C      1  0.4547890000000  0.5088460000000  0.5384920000000 1.0
C      1  0.5436330000000  0.4347210000000  0.4298130000000 1.0
C      1  0.5021090000000  0.4804940000000  0.6073120000000 1.0
C      1  0.4984010000000  0.5102340000000  0.4879500000000 1.0
C      1  0.5445840000000  0.5038480000000  0.4171590000000 1.0
C      1  0.5233230000000  0.4451570000000  0.5265020000000 1.0
C      1  0.4166990000000  0.4592980000000  0.4845590000000 1.0
C      1  0.4929700000000  0.4801020000000  0.4351010000000 1.0
C      1  0.4146830000000  0.4613060000000  0.5346490000000 1.0
C      1  0.4098220000000  0.5076320000000  0.5568080000000 1.0
C      1  0.4352380000000  0.5249300000000  0.5558900000000 1.0
C      1  0.5215830000000  0.4403620000000  0.4970080000000 1.0
C      1  0.4546260000000  0.4669830000000  0.4069730000000 1.0
C      1  0.5147960000000  0.4062150000000  0.5437370000000 1.0
C      1  0.4031350000000  0.5436590000000  0.5260480000000 1.0
C      1  0.5596740000000  0.4293150000000  0.5566040000000 1.0
C      1  0.6035350000000  0.5120570000000  0.5181230000000 1.0
C      1  0.4978340000000  0.4692260000000  0.4642080000000 1.0
C      1  0.5539310000000  0.4081180000000  0.5104440000000 1.0
C      1  0.4150420000000  0.4754600000000  0.4603180000000 1.0
C      1  0.5641220000000  0.4514880000000  0.4901260000000 1.0
C      1  0.5471730000000  0.4267020000000  0.4887340000000 1.0
C      1  0.5635980000000  0.5536080000000  0.4534030000000 1.0
C      1  0.5727360000000  0.4218700000000  0.5303820000000 1.0
C      1  0.5266280000000  0.5403330000000  0.4733340000000 1.0
C      1  0.5036000000000  0.5120230000000  0.5465670000000 1.0
C      1  0.4807360000000  0.5356550000000  0.4522830000000 1.0
C      1  0.3978410000000  0.5152930000000  0.5310540000000 1.0
C      1  0.5269640000000  0.5139320000000  0.4621800000000 1.0
C      1  0.5205940000000  0.4957740000000  0.5033640000000 1.0
C      1  0.5724890000000  0.5298260000000  0.4390920000000 1.0
C      1  0.4737720000000  0.4568930000000  0.5441440000000 1.0
C      1  0.5831550000000  0.4672330000000  0.5271010000000 1.0
C      1  0.4451600000000  0.4947480000000  0.4491510000000 1.0
C      1  0.4863560000000  0.4396810000000  0.4654050000000 1.0
C      1  0.4104620000000  0.5233420000000  0.4532260000000 1.0
C      1  0.4384920000000  0.5757230000000  0.5418890000000 1.0
C      1  0.5822690000000  0.5554290000000  0.5212650000000 1.0
C      1  0.5467510000000  0.5127590000000  0.5070760000000 1.0
C      1  0.4991490000000  0.5545770000000  0.4700710000000 1.0
C      1  0.4954610000000  0.5573690000000  0.4133060000000 1.0
C      1  0.5759870000000  0.4710250000000  0.4362860000000 1.0
C      1  0.4052700000000  0.5459520000000  0.4968060000000 1.0
C      1  0.5283030000000  0.5270070000000  0.4096680000000 1.0
C      1  0.4636610000000  0.4728280000000  0.4360010000000 1.0
C      1  0.4776020000000  0.4244610000000  0.5143560000000 1.0
C      1  0.4511080000000  0.4363360000000  0.5124440000000 1.0
C      1  0.5471570000000  0.5312500000000  0.5571890000000 1.0
C      1  0.5712530000000  0.4741330000000  0.5761930000000 1.0
C      1  0.5718170000000  0.4462760000000  0.5750280000000 1.0
C      1  0.4052520000000  0.4722540000000  0.5082300000000 1.0
C      1  0.4981210000000  0.6033360000000  0.5056680000000 1.0
C      1  0.5900490000000  0.4813040000000  0.5538750000000 1.0
C      1  0.4581060000000  0.4807270000000  0.4952700000000 1.0
C      1  0.4911670000000  0.5086800000000  0.6042550000000 1.0
C      1  0.5423360000000  0.4850460000000  0.5429940000000 1.0
C      1  0.4198480000000  0.4600860000000  0.4357180000000 1.0
C      1  0.5049070000000  0.5673010000000  0.5556970000000 1.0
C      1  0.4011170000000  0.5201670000000  0.4814790000000 1.0
C      1  0.5208360000000  0.4211900000000  0.4325940000000 1.0
C      1  0.5879800000000  0.5090450000000  0.5435100000000 1.0
C      1  0.4279780000000  0.5498510000000  0.5401560000000 1.0
END
