TITL C-951346-9544-657 8.09564045657382e-06 125000 -114.051705876997 0 0 21 (C1) n - 1
REM
REM in /home/bkarasulu/work/CARBON/AIRSS/Generating-Clusters/EDIP-Nigel-Params/with-SteepDescent/Only-C1/SD-CG/HFTN-CG
REM
REM
REM
REM
REM
REM ./C.cell (11c1c37f851c82e70ff6c80c92926a4b)
REM
REM compiler GCC version 9.2.1 20190827 (Red Hat 9.2.1-1)
REM options -cpp -mtune=generic -march=x86-64 -g -O0 -fpre-include=/usr/include/finclude/math-vector-fortran.h
REM seed 1767747587 -369401534 -2091154552 -538699775 1660279491 -1757742340 314663400 -1293557737 -243523327 -1535760851 633021106 1246604320 1214839627 -1008125028 -1504479695 -1740747957 1055128328 -1646255696 -1218320634 1492138215 -584044381 1683610776 -1879393160 402288468 -1563296457 797361469 -1776378954 1128458453 1293820347 599479315 986402241 -2021287706 1068627215
REM
CELL 1.54180   50.00000   50.00000   50.00000   90.00000   90.00000   90.00000
LATT -1
SFAC C  
C      1  0.5398900000000  0.5241080000000  0.4761950000000 1.0
C      1  0.4971330000000  0.5194080000000  0.5457750000000 1.0
C      1  0.4989140000000  0.5287370000000  0.4604770000000 1.0
C      1  0.5202230000000  0.5013100000000  0.4753440000000 1.0
C      1  0.4804080000000  0.5094280000000  0.5036610000000 1.0
C      1  0.5169570000000  0.5013650000000  0.5478710000000 1.0
C      1  0.5076680000000  0.4988640000000  0.5016390000000 1.0
C      1  0.5594790000000  0.4984900000000  0.4963120000000 1.0
C      1  0.4790890000000  0.5264200000000  0.5270990000000 1.0
C      1  0.4784860000000  0.4641510000000  0.5198390000000 1.0
C      1  0.5041740000000  0.4602130000000  0.5277320000000 1.0
C      1  0.4114110000000  0.4877610000000  0.5051920000000 1.0
C      1  0.4519820000000  0.5242940000000  0.4668770000000 1.0
C      1  0.4759810000000  0.5249930000000  0.4780310000000 1.0
C      1  0.5483490000000  0.4807890000000  0.5170770000000 1.0
C      1  0.4366880000000  0.4851890000000  0.5082490000000 1.0
C      1  0.5321010000000  0.4767210000000  0.4643260000000 1.0
C      1  0.4640790000000  0.4846630000000  0.5077760000000 1.0
C      1  0.5197170000000  0.4846230000000  0.5244420000000 1.0
C      1  0.5548040000000  0.4745970000000  0.4803630000000 1.0
C      1  0.5224650000000  0.5438760000000  0.4657230000000 1.0
END
