TITL C-950533-5798-506 -2.13028734018467e-06 125000 -805.783801480494 0 0 129 (C1) n - 1
REM
REM in /home/bkarasulu/work/CARBON/AIRSS/Generating-Clusters/EDIP-Nigel-Params/with-SteepDescent/Only-C1/SD-CG/HFTN-CG
REM
REM
REM
REM
REM
REM ./C.cell (11c1c37f851c82e70ff6c80c92926a4b)
REM
REM compiler GCC version 9.2.1 20190827 (Red Hat 9.2.1-1)
REM options -cpp -mtune=generic -march=x86-64 -g -O0 -fpre-include=/usr/include/finclude/math-vector-fortran.h
REM seed -483224447 -643952893 -348800128 432033953 1268390860 539034756 -1631083941 -1916287773 593224258 1084073316 -2026206739 2061839369 -22059489 -1397562445 -713988266 1140154079 839600565 -981735866 623614607 2054157454 -2098317707 131711356 -944990664 432682078 1991474320 1761170557 991895869 -1825384894 -338385267 -1424730214 175922062 -1868227483 -2051218807
REM
CELL 1.54180   50.00000   50.00000   50.00000   90.00000   90.00000   90.00000
LATT -1
SFAC C  
C      1  0.5021540000000  0.5101280000000  0.4633140000000 1.0
C      1  0.5314080000000  0.5632910000000  0.4292140000000 1.0
C      1  0.5295850000000  0.4049460000000  0.4739460000000 1.0
C      1  0.5102140000000  0.5052060000000  0.5594890000000 1.0
C      1  0.5733170000000  0.5458260000000  0.4946980000000 1.0
C      1  0.4871220000000  0.4194910000000  0.4336280000000 1.0
C      1  0.5724170000000  0.5492110000000  0.5252970000000 1.0
C      1  0.5005840000000  0.4227400000000  0.5052220000000 1.0
C      1  0.5110900000000  0.5822330000000  0.4698360000000 1.0
C      1  0.5411330000000  0.4470850000000  0.5062880000000 1.0
C      1  0.4334260000000  0.4368110000000  0.5100610000000 1.0
C      1  0.4813180000000  0.4937240000000  0.5213470000000 1.0
C      1  0.5873560000000  0.4794830000000  0.4722140000000 1.0
C      1  0.5708600000000  0.5392140000000  0.4347490000000 1.0
C      1  0.5946210000000  0.5020860000000  0.4545770000000 1.0
C      1  0.4601080000000  0.5423460000000  0.5953860000000 1.0
C      1  0.5219320000000  0.4748650000000  0.4373560000000 1.0
C      1  0.4558920000000  0.5728010000000  0.5241290000000 1.0
C      1  0.4139800000000  0.5203020000000  0.5429930000000 1.0
C      1  0.4901100000000  0.6071030000000  0.5042600000000 1.0
C      1  0.5662930000000  0.4501480000000  0.4349810000000 1.0
C      1  0.4898270000000  0.4594990000000  0.4041160000000 1.0
C      1  0.5491560000000  0.5436210000000  0.4165770000000 1.0
C      1  0.5231210000000  0.5486950000000  0.5821400000000 1.0
C      1  0.5397250000000  0.5418440000000  0.5585980000000 1.0
C      1  0.4696470000000  0.4856460000000  0.4379970000000 1.0
C      1  0.5278050000000  0.4240070000000  0.5445350000000 1.0
C      1  0.5744370000000  0.5112450000000  0.4366000000000 1.0
C      1  0.5791630000000  0.5267740000000  0.5444120000000 1.0
C      1  0.4610580000000  0.4439620000000  0.5208980000000 1.0
C      1  0.4752080000000  0.4999070000000  0.4646490000000 1.0
C      1  0.4400600000000  0.4917370000000  0.4996250000000 1.0
C      1  0.5315750000000  0.4695420000000  0.5281770000000 1.0
C      1  0.5077700000000  0.5101070000000  0.4085990000000 1.0
C      1  0.3905880000000  0.4856210000000  0.5085170000000 1.0
C      1  0.4883820000000  0.5205390000000  0.5104430000000 1.0
C      1  0.4808400000000  0.4212950000000  0.5268040000000 1.0
C      1  0.3955240000000  0.4647440000000  0.5303430000000 1.0
C      1  0.5220630000000  0.4614370000000  0.5744600000000 1.0
C      1  0.5567310000000  0.4114940000000  0.4649430000000 1.0
C      1  0.5230170000000  0.5487170000000  0.4996280000000 1.0
C      1  0.5150930000000  0.6008220000000  0.4921080000000 1.0
C      1  0.4791410000000  0.4167350000000  0.4615820000000 1.0
C      1  0.4919290000000  0.5337220000000  0.4147060000000 1.0
C      1  0.4600510000000  0.4405400000000  0.4696890000000 1.0
C      1  0.4969900000000  0.4825440000000  0.4205100000000 1.0
C      1  0.4717860000000  0.4546950000000  0.4940610000000 1.0
C      1  0.5689810000000  0.4368640000000  0.5090120000000 1.0
C      1  0.5583940000000  0.5741260000000  0.4822190000000 1.0
C      1  0.5813770000000  0.4961760000000  0.4963670000000 1.0
C      1  0.3973740000000  0.4734200000000  0.5573420000000 1.0
C      1  0.4245260000000  0.5140770000000  0.4324110000000 1.0
C      1  0.5935960000000  0.4829670000000  0.5209800000000 1.0
C      1  0.4232880000000  0.4656070000000  0.5164990000000 1.0
C      1  0.5274900000000  0.4221010000000  0.5149550000000 1.0
C      1  0.4551400000000  0.5521920000000  0.5446060000000 1.0
C      1  0.4116830000000  0.5396670000000  0.4743950000000 1.0
C      1  0.4686780000000  0.4838300000000  0.4942210000000 1.0
C      1  0.5103280000000  0.5342440000000  0.5214710000000 1.0
C      1  0.5035640000000  0.5585240000000  0.4227760000000 1.0
C      1  0.4283730000000  0.5177630000000  0.4616140000000 1.0
C      1  0.5580510000000  0.4966450000000  0.4167960000000 1.0
C      1  0.4301730000000  0.5626170000000  0.4754330000000 1.0
C      1  0.4244880000000  0.4743300000000  0.5670810000000 1.0
C      1  0.4650010000000  0.5048140000000  0.5719960000000 1.0
C      1  0.4420140000000  0.5194510000000  0.5851550000000 1.0
C      1  0.5765110000000  0.4310620000000  0.4800230000000 1.0
C      1  0.5076480000000  0.5380960000000  0.4555840000000 1.0
C      1  0.5466020000000  0.5315430000000  0.4880010000000 1.0
C      1  0.4745620000000  0.4428260000000  0.4217070000000 1.0
C      1  0.5426260000000  0.4977400000000  0.5264080000000 1.0
C      1  0.5032120000000  0.5641790000000  0.5702950000000 1.0
C      1  0.5852460000000  0.4543610000000  0.5285340000000 1.0
C      1  0.5786020000000  0.4832500000000  0.5673580000000 1.0
C      1  0.4684930000000  0.5371060000000  0.4935090000000 1.0
C      1  0.4708720000000  0.4606620000000  0.5711980000000 1.0
C      1  0.5634010000000  0.5278590000000  0.5691540000000 1.0
C      1  0.4496590000000  0.4675590000000  0.5501180000000 1.0
C      1  0.4507300000000  0.5036440000000  0.4213740000000 1.0
C      1  0.4485160000000  0.5616940000000  0.4532530000000 1.0
C      1  0.4424050000000  0.5247850000000  0.5355130000000 1.0
C      1  0.5003060000000  0.4940910000000  0.6030060000000 1.0
C      1  0.5005650000000  0.5550030000000  0.4793290000000 1.0
C      1  0.3985690000000  0.5333820000000  0.4983410000000 1.0
C      1  0.5353970000000  0.4860630000000  0.4809920000000 1.0
C      1  0.4440000000000  0.5219230000000  0.5065780000000 1.0
C      1  0.4642570000000  0.5293560000000  0.4210400000000 1.0
C      1  0.5917820000000  0.4994060000000  0.5455060000000 1.0
C      1  0.5399830000000  0.4581670000000  0.4769520000000 1.0
C      1  0.4924340000000  0.5240120000000  0.6020560000000 1.0
C      1  0.5573020000000  0.5005320000000  0.5801270000000 1.0
C      1  0.5242140000000  0.4283100000000  0.4371200000000 1.0
C      1  0.5174520000000  0.5807830000000  0.5519940000000 1.0
C      1  0.4014340000000  0.4774100000000  0.4798680000000 1.0
C      1  0.5494660000000  0.5686750000000  0.5346950000000 1.0
C      1  0.4585820000000  0.4971250000000  0.5429160000000 1.0
C      1  0.5275980000000  0.4981830000000  0.4565900000000 1.0
C      1  0.5268230000000  0.5196460000000  0.5407530000000 1.0
C      1  0.5511760000000  0.5025960000000  0.4987430000000 1.0
C      1  0.5409310000000  0.4520260000000  0.5525650000000 1.0
C      1  0.5409810000000  0.5305890000000  0.4574440000000 1.0
C      1  0.5375270000000  0.5741470000000  0.4582760000000 1.0
C      1  0.5233700000000  0.4900380000000  0.5816080000000 1.0
C      1  0.3961400000000  0.5144010000000  0.5188540000000 1.0
C      1  0.5686000000000  0.4562530000000  0.4649290000000 1.0
C      1  0.5012380000000  0.4718850000000  0.5318790000000 1.0
C      1  0.4981460000000  0.4262470000000  0.5509000000000 1.0
C      1  0.5372350000000  0.5164640000000  0.4094620000000 1.0
C      1  0.4264130000000  0.4911520000000  0.4742550000000 1.0
C      1  0.4313680000000  0.4337520000000  0.4805610000000 1.0
C      1  0.4405600000000  0.5689120000000  0.5009640000000 1.0
C      1  0.4720230000000  0.5571500000000  0.5702080000000 1.0
C      1  0.4086730000000  0.4503780000000  0.4758310000000 1.0
C      1  0.5014430000000  0.4090760000000  0.4802250000000 1.0
C      1  0.5713810000000  0.4563210000000  0.5556630000000 1.0
C      1  0.5186360000000  0.4509730000000  0.4550620000000 1.0
C      1  0.4154160000000  0.5053100000000  0.5697270000000 1.0
C      1  0.4733140000000  0.4827010000000  0.5909540000000 1.0
C      1  0.4587740000000  0.5262990000000  0.4650180000000 1.0
C      1  0.4811940000000  0.5864880000000  0.5216940000000 1.0
C      1  0.4599850000000  0.4572730000000  0.4429350000000 1.0
C      1  0.4892900000000  0.5222210000000  0.5708690000000 1.0
C      1  0.5929970000000  0.5225680000000  0.4861750000000 1.0
C      1  0.4964700000000  0.4555500000000  0.5578350000000 1.0
C      1  0.5473100000000  0.4695550000000  0.4211530000000 1.0
C      1  0.4987870000000  0.5981890000000  0.5409020000000 1.0
C      1  0.5530540000000  0.4228070000000  0.4372380000000 1.0
C      1  0.4431070000000  0.5468270000000  0.4296700000000 1.0
C      1  0.5370850000000  0.5754750000000  0.5054750000000 1.0
END
