TITL C-950521-2237-750 -3.32690167817457e-07 125000 -465.108528546099 0 0 75 (C1) n - 1
REM
REM in /home/bkarasulu/work/CARBON/AIRSS/Generating-Clusters/EDIP-Nigel-Params/with-SteepDescent/Only-C1/SD-CG/HFTN-CG
REM
REM
REM
REM
REM
REM ./C.cell (11c1c37f851c82e70ff6c80c92926a4b)
REM
REM compiler GCC version 9.2.1 20190827 (Red Hat 9.2.1-1)
REM options -cpp -mtune=generic -march=x86-64 -g -O0 -fpre-include=/usr/include/finclude/math-vector-fortran.h
REM seed 1315768796 -145001236 -1808730060 -458728738 -1214224883 -1768055294 -2052156343 -1384208096 -2067196270 -1743710742 1420858518 -1840220336 -766911528 -1566531100 -1947067391 -671990177 -940493563 741917775 -1842082531 728531563 93231736 1404544603 1329879640 329083468 -860586119 333208123 2134334224 1654462354 622626206 -836047359 -1257398895 373893909 494210612
REM
CELL 1.54180   50.00000   50.00000   50.00000   90.00000   90.00000   90.00000
LATT -1
SFAC C  
C      1  0.4446230000000  0.5244220000000  0.5353430000000 1.0
C      1  0.5406820000000  0.5688650000000  0.4983870000000 1.0
C      1  0.5261950000000  0.5552300000000  0.5419110000000 1.0
C      1  0.5605130000000  0.4996070000000  0.5537720000000 1.0
C      1  0.4681650000000  0.4123460000000  0.5043940000000 1.0
C      1  0.5396370000000  0.4783050000000  0.5572040000000 1.0
C      1  0.4833140000000  0.4582670000000  0.4460850000000 1.0
C      1  0.5029320000000  0.5002380000000  0.4275390000000 1.0
C      1  0.5112950000000  0.5274980000000  0.4845190000000 1.0
C      1  0.5256280000000  0.4319910000000  0.5098710000000 1.0
C      1  0.4826230000000  0.5044370000000  0.5628470000000 1.0
C      1  0.4655390000000  0.4292460000000  0.4821240000000 1.0
C      1  0.5068660000000  0.4227680000000  0.5313480000000 1.0
C      1  0.4429690000000  0.5458620000000  0.4712530000000 1.0
C      1  0.5027060000000  0.5612850000000  0.5238670000000 1.0
C      1  0.4895890000000  0.4387410000000  0.4673950000000 1.0
C      1  0.5518900000000  0.4688630000000  0.5030640000000 1.0
C      1  0.5506060000000  0.5559430000000  0.5233390000000 1.0
C      1  0.4366460000000  0.4662630000000  0.4639730000000 1.0
C      1  0.4253310000000  0.4441720000000  0.5058290000000 1.0
C      1  0.4588310000000  0.4739390000000  0.4468770000000 1.0
C      1  0.4526860000000  0.5238210000000  0.4537540000000 1.0
C      1  0.5151500000000  0.4485950000000  0.4831500000000 1.0
C      1  0.4563510000000  0.5001170000000  0.5489590000000 1.0
C      1  0.4606810000000  0.5293330000000  0.4265460000000 1.0
C      1  0.4419350000000  0.4456680000000  0.4830650000000 1.0
C      1  0.5274540000000  0.4856580000000  0.5103910000000 1.0
C      1  0.4398500000000  0.5168510000000  0.5064530000000 1.0
C      1  0.5429640000000  0.4862390000000  0.4694660000000 1.0
C      1  0.4769910000000  0.5076760000000  0.4154070000000 1.0
C      1  0.4793370000000  0.4290520000000  0.5241780000000 1.0
C      1  0.5039260000000  0.5681800000000  0.4563900000000 1.0
C      1  0.4708130000000  0.5779220000000  0.4978120000000 1.0
C      1  0.5115020000000  0.4983660000000  0.4706260000000 1.0
C      1  0.4694320000000  0.5104590000000  0.4987270000000 1.0
C      1  0.4742260000000  0.5084280000000  0.4691900000000 1.0
C      1  0.4740660000000  0.5704940000000  0.5283490000000 1.0
C      1  0.5667590000000  0.5321020000000  0.5129210000000 1.0
C      1  0.4698620000000  0.4515550000000  0.5414480000000 1.0
C      1  0.4260210000000  0.5384370000000  0.4918560000000 1.0
C      1  0.4569330000000  0.5499470000000  0.5381990000000 1.0
C      1  0.5341940000000  0.5404930000000  0.4308270000000 1.0
C      1  0.5498410000000  0.4447340000000  0.5212090000000 1.0
C      1  0.4902870000000  0.5432260000000  0.4668960000000 1.0
C      1  0.5148760000000  0.5801780000000  0.5048160000000 1.0
C      1  0.5646090000000  0.5053360000000  0.5251270000000 1.0
C      1  0.5497570000000  0.5216930000000  0.5699630000000 1.0
C      1  0.4180760000000  0.4849100000000  0.4743210000000 1.0
C      1  0.5064240000000  0.4720600000000  0.4349600000000 1.0
C      1  0.5321410000000  0.5588290000000  0.4516800000000 1.0
C      1  0.4942820000000  0.5246700000000  0.5130300000000 1.0
C      1  0.5066890000000  0.4768660000000  0.4923450000000 1.0
C      1  0.4971570000000  0.5855910000000  0.4819650000000 1.0
C      1  0.5241980000000  0.4834360000000  0.5834770000000 1.0
C      1  0.5244940000000  0.5170430000000  0.4222280000000 1.0
C      1  0.5313920000000  0.5107890000000  0.5902390000000 1.0
C      1  0.5174840000000  0.4849930000000  0.5376130000000 1.0
C      1  0.5311110000000  0.4587850000000  0.4374020000000 1.0
C      1  0.4546640000000  0.4909510000000  0.4242920000000 1.0
C      1  0.4948500000000  0.4796710000000  0.5763910000000 1.0
C      1  0.4528520000000  0.4740180000000  0.5350480000000 1.0
C      1  0.4295130000000  0.4694340000000  0.5183940000000 1.0
C      1  0.5040780000000  0.5116040000000  0.5425330000000 1.0
C      1  0.4228280000000  0.4921740000000  0.5015230000000 1.0
C      1  0.5768200000000  0.4837870000000  0.5092330000000 1.0
C      1  0.5500600000000  0.4520030000000  0.5488920000000 1.0
C      1  0.5682670000000  0.5044870000000  0.4709700000000 1.0
C      1  0.5111430000000  0.4337300000000  0.5578890000000 1.0
C      1  0.5634580000000  0.5314470000000  0.4828620000000 1.0
C      1  0.4677830000000  0.5521840000000  0.4842930000000 1.0
C      1  0.5223370000000  0.5310990000000  0.5584460000000 1.0
C      1  0.5391430000000  0.4557680000000  0.4640750000000 1.0
C      1  0.4949190000000  0.4580250000000  0.5552030000000 1.0
C      1  0.5893080000000  0.4923630000000  0.4853720000000 1.0
C      1  0.5374490000000  0.5464330000000  0.4786580000000 1.0
END
