TITL C-950533-5798-179 -1.60121966980427e-06 125000 -857.440706020917 0 0 137 (C1) n - 1
REM
REM in /home/bkarasulu/work/CARBON/AIRSS/Generating-Clusters/EDIP-Nigel-Params/with-SteepDescent/Only-C1/SD-CG/HFTN-CG
REM
REM
REM
REM
REM
REM ./C.cell (11c1c37f851c82e70ff6c80c92926a4b)
REM
REM compiler GCC version 9.2.1 20190827 (Red Hat 9.2.1-1)
REM options -cpp -mtune=generic -march=x86-64 -g -O0 -fpre-include=/usr/include/finclude/math-vector-fortran.h
REM seed -1668806629 2047785027 -1466110078 -594351713 1119511573 586035343 1141592068 -1675522054 -332651019 1486007350 -1584044604 1273474494 -1528383966 -974214469 282056732 135593164 1561669191 -1814939194 664802441 -104392352 -967633105 630014126 -618620517 8220993 1452122687 -1539326863 951597627 1324008176 -221970254 -1096712078 -1533706841 -2117395325 -1219158688
REM
CELL 1.54180   50.00000   50.00000   50.00000   90.00000   90.00000   90.00000
LATT -1
SFAC C  
C      1  0.5950640000000  0.5189410000000  0.5494770000000 1.0
C      1  0.5030340000000  0.5086920000000  0.4025940000000 1.0
C      1  0.5810450000000  0.5496200000000  0.5026250000000 1.0
C      1  0.4031340000000  0.5357820000000  0.4632720000000 1.0
C      1  0.4269230000000  0.4581020000000  0.5382220000000 1.0
C      1  0.4271930000000  0.4856890000000  0.4306810000000 1.0
C      1  0.4551320000000  0.5858860000000  0.4664320000000 1.0
C      1  0.4479440000000  0.4818610000000  0.4095600000000 1.0
C      1  0.5325130000000  0.5083840000000  0.4011270000000 1.0
C      1  0.5677290000000  0.5680100000000  0.4857960000000 1.0
C      1  0.4574960000000  0.4349210000000  0.5692560000000 1.0
C      1  0.4641560000000  0.5382750000000  0.5397940000000 1.0
C      1  0.5199890000000  0.5123150000000  0.4433040000000 1.0
C      1  0.4454520000000  0.4533580000000  0.5863590000000 1.0
C      1  0.5901470000000  0.4959490000000  0.5090470000000 1.0
C      1  0.5404330000000  0.5823400000000  0.5236160000000 1.0
C      1  0.5210660000000  0.4388430000000  0.4243440000000 1.0
C      1  0.4851050000000  0.5558600000000  0.4867980000000 1.0
C      1  0.5291970000000  0.5954620000000  0.4500110000000 1.0
C      1  0.4287750000000  0.5765950000000  0.4775000000000 1.0
C      1  0.5295930000000  0.5155310000000  0.4707850000000 1.0
C      1  0.4608360000000  0.5349530000000  0.4075510000000 1.0
C      1  0.5723970000000  0.4890540000000  0.4330490000000 1.0
C      1  0.4030740000000  0.5042350000000  0.5156060000000 1.0
C      1  0.4631090000000  0.5704930000000  0.4408370000000 1.0
C      1  0.5211800000000  0.4633950000000  0.4084520000000 1.0
C      1  0.5381590000000  0.5122810000000  0.5933460000000 1.0
C      1  0.5616410000000  0.4586740000000  0.5017300000000 1.0
C      1  0.4936920000000  0.5743370000000  0.5330230000000 1.0
C      1  0.4476780000000  0.5489850000000  0.5173920000000 1.0
C      1  0.4985770000000  0.5496580000000  0.5144080000000 1.0
C      1  0.3947320000000  0.5093950000000  0.4661350000000 1.0
C      1  0.5634520000000  0.5569280000000  0.4599950000000 1.0
C      1  0.4697820000000  0.5875680000000  0.5181960000000 1.0
C      1  0.4298070000000  0.5465350000000  0.4772960000000 1.0
C      1  0.4260070000000  0.4826980000000  0.5546780000000 1.0
C      1  0.5160840000000  0.5921610000000  0.5322200000000 1.0
C      1  0.4386810000000  0.4449130000000  0.4638180000000 1.0
C      1  0.4233340000000  0.5369580000000  0.4401070000000 1.0
C      1  0.4468670000000  0.4367200000000  0.5419790000000 1.0
C      1  0.4356110000000  0.4792050000000  0.5823390000000 1.0
C      1  0.5840160000000  0.4713260000000  0.5536390000000 1.0
C      1  0.5435010000000  0.4658040000000  0.5824900000000 1.0
C      1  0.5447420000000  0.4273730000000  0.4340140000000 1.0
C      1  0.5472090000000  0.4721290000000  0.4427310000000 1.0
C      1  0.5479160000000  0.4302010000000  0.5436160000000 1.0
C      1  0.4922450000000  0.5651830000000  0.5606760000000 1.0
C      1  0.5663820000000  0.5058880000000  0.5847110000000 1.0
C      1  0.4740340000000  0.4762410000000  0.5249580000000 1.0
C      1  0.5000470000000  0.4463640000000  0.5948570000000 1.0
C      1  0.4883070000000  0.4522010000000  0.4842170000000 1.0
C      1  0.5153290000000  0.4026340000000  0.4795280000000 1.0
C      1  0.5063800000000  0.5059880000000  0.4851430000000 1.0
C      1  0.4360790000000  0.4377380000000  0.4935900000000 1.0
C      1  0.5324380000000  0.4197200000000  0.5686780000000 1.0
C      1  0.5280210000000  0.5422940000000  0.5103500000000 1.0
C      1  0.4765250000000  0.5850780000000  0.4888140000000 1.0
C      1  0.4539600000000  0.5371030000000  0.5670340000000 1.0
C      1  0.5452180000000  0.4814190000000  0.4055870000000 1.0
C      1  0.5943210000000  0.5181960000000  0.4689600000000 1.0
C      1  0.4424700000000  0.5861650000000  0.5256010000000 1.0
C      1  0.4799120000000  0.4282890000000  0.4668870000000 1.0
C      1  0.4512870000000  0.4996740000000  0.5954550000000 1.0
C      1  0.4982750000000  0.4781920000000  0.5912850000000 1.0
C      1  0.5491410000000  0.4961180000000  0.5370650000000 1.0
C      1  0.4611400000000  0.5364420000000  0.4801550000000 1.0
C      1  0.4700200000000  0.5181530000000  0.4572760000000 1.0
C      1  0.4860850000000  0.4312640000000  0.5735940000000 1.0
C      1  0.4998030000000  0.5451220000000  0.5790420000000 1.0
C      1  0.5044010000000  0.4131920000000  0.5594010000000 1.0
C      1  0.5615830000000  0.4880550000000  0.5100910000000 1.0
C      1  0.4538220000000  0.4241550000000  0.5155610000000 1.0
C      1  0.4105190000000  0.5334780000000  0.5483280000000 1.0
C      1  0.4998760000000  0.6016540000000  0.4846110000000 1.0
C      1  0.5182000000000  0.4907710000000  0.5059010000000 1.0
C      1  0.5110310000000  0.5744110000000  0.4443520000000 1.0
C      1  0.4969670000000  0.4796340000000  0.4083390000000 1.0
C      1  0.5269030000000  0.5985510000000  0.4779210000000 1.0
C      1  0.5765740000000  0.4448390000000  0.5406410000000 1.0
C      1  0.4710520000000  0.4393420000000  0.4254970000000 1.0
C      1  0.4682760000000  0.4735900000000  0.4795970000000 1.0
C      1  0.5691910000000  0.5186430000000  0.4289020000000 1.0
C      1  0.5973750000000  0.4904000000000  0.4616470000000 1.0
C      1  0.4541890000000  0.4814030000000  0.5043790000000 1.0
C      1  0.4853120000000  0.4944330000000  0.4675900000000 1.0
C      1  0.4950850000000  0.5310370000000  0.4438160000000 1.0
C      1  0.5443400000000  0.5273870000000  0.4184050000000 1.0
C      1  0.4216530000000  0.5769710000000  0.5071740000000 1.0
C      1  0.5925100000000  0.5242880000000  0.4971860000000 1.0
C      1  0.5157470000000  0.4802720000000  0.4480950000000 1.0
C      1  0.5299070000000  0.4393590000000  0.5910090000000 1.0
C      1  0.5719390000000  0.4767830000000  0.5810010000000 1.0
C      1  0.4091670000000  0.5045440000000  0.5434400000000 1.0
C      1  0.4061630000000  0.4801020000000  0.5006110000000 1.0
C      1  0.4367740000000  0.5114790000000  0.4404000000000 1.0
C      1  0.4265620000000  0.5415830000000  0.5700880000000 1.0
C      1  0.5062530000000  0.5528350000000  0.4640260000000 1.0
C      1  0.5325520000000  0.5430460000000  0.4780730000000 1.0
C      1  0.4780360000000  0.4960390000000  0.6046460000000 1.0
C      1  0.5897760000000  0.4516600000000  0.4912540000000 1.0
C      1  0.5787750000000  0.5343260000000  0.4510380000000 1.0
C      1  0.5119070000000  0.4651370000000  0.5452470000000 1.0
C      1  0.4719420000000  0.4677350000000  0.4176070000000 1.0
C      1  0.4216080000000  0.4678710000000  0.4543730000000 1.0
C      1  0.5541290000000  0.4452360000000  0.4531360000000 1.0
C      1  0.5989750000000  0.4931720000000  0.5382590000000 1.0
C      1  0.4877360000000  0.4051760000000  0.4829550000000 1.0
C      1  0.5165600000000  0.4638010000000  0.4770200000000 1.0
C      1  0.5667950000000  0.5170440000000  0.5572490000000 1.0
C      1  0.5501300000000  0.5424090000000  0.5596290000000 1.0
C      1  0.4528960000000  0.5084790000000  0.4001020000000 1.0
C      1  0.4499170000000  0.4288010000000  0.4428070000000 1.0
C      1  0.5043030000000  0.4108330000000  0.5297860000000 1.0
C      1  0.5401830000000  0.4672120000000  0.5508660000000 1.0
C      1  0.4803060000000  0.4103470000000  0.5110910000000 1.0
C      1  0.4885340000000  0.5735440000000  0.4266970000000 1.0
C      1  0.4987760000000  0.4840020000000  0.5622670000000 1.0
C      1  0.4746910000000  0.5302120000000  0.5878940000000 1.0
C      1  0.5919510000000  0.4387730000000  0.5170430000000 1.0
C      1  0.5439710000000  0.5820110000000  0.4953170000000 1.0
C      1  0.5226480000000  0.5139050000000  0.5258060000000 1.0
C      1  0.4292630000000  0.4639920000000  0.5088960000000 1.0
C      1  0.5265110000000  0.4857580000000  0.5971010000000 1.0
C      1  0.4171390000000  0.5403190000000  0.5184460000000 1.0
C      1  0.6025840000000  0.4776800000000  0.4876960000000 1.0
C      1  0.4848460000000  0.5185400000000  0.5332080000000 1.0
C      1  0.5511730000000  0.5590170000000  0.5362030000000 1.0
C      1  0.5349600000000  0.4184090000000  0.4917050000000 1.0
C      1  0.4962630000000  0.4274360000000  0.4327110000000 1.0
C      1  0.4898670000000  0.5374430000000  0.4134560000000 1.0
C      1  0.5417740000000  0.4457080000000  0.4807210000000 1.0
C      1  0.5263890000000  0.5327600000000  0.5751500000000 1.0
C      1  0.4054340000000  0.4844770000000  0.4727440000000 1.0
C      1  0.4450350000000  0.5526890000000  0.4259040000000 1.0
C      1  0.4766150000000  0.4944070000000  0.5473670000000 1.0
C      1  0.5315520000000  0.4176210000000  0.5206030000000 1.0
C      1  0.5015050000000  0.4679250000000  0.5172080000000 1.0
END
