TITL C-950529-3362-156 -6.67277107659106e-07 125000 -782.182122786492 0 0 125 (C1) n - 1
REM
REM in /home/bkarasulu/work/CARBON/AIRSS/Generating-Clusters/EDIP-Nigel-Params/with-SteepDescent/Only-C1/SD-CG/HFTN-CG
REM
REM
REM
REM
REM
REM ./C.cell (11c1c37f851c82e70ff6c80c92926a4b)
REM
REM compiler GCC version 9.2.1 20190827 (Red Hat 9.2.1-1)
REM options -cpp -mtune=generic -march=x86-64 -g -O0 -fpre-include=/usr/include/finclude/math-vector-fortran.h
REM seed 34710281 -2115775033 1324246491 1950154018 2072235353 -195988940 -2033105615 -650644551 -382549966 1573228927 -134841400 28082007 598753917 -569619661 -261318978 1752738380 1307973741 -1535360277 -2109800842 -175711082 -177725591 2022683510 989282277 15220986 740216649 1719676486 740817480 156545315 156587274 -897086073 -510750868 -543582522 -2014436444
REM
CELL 1.54180   50.00000   50.00000   50.00000   90.00000   90.00000   90.00000
LATT -1
SFAC C  
C      1  0.4922340000000  0.5070040000000  0.4215580000000 1.0
C      1  0.4169060000000  0.4878550000000  0.4600130000000 1.0
C      1  0.5238240000000  0.4031290000000  0.4717380000000 1.0
C      1  0.5583980000000  0.4844080000000  0.4480310000000 1.0
C      1  0.5342670000000  0.4596890000000  0.5849760000000 1.0
C      1  0.5743240000000  0.4593520000000  0.5544440000000 1.0
C      1  0.4489170000000  0.5500760000000  0.4547540000000 1.0
C      1  0.5130810000000  0.6071200000000  0.4763820000000 1.0
C      1  0.5216950000000  0.4533410000000  0.4328800000000 1.0
C      1  0.5156530000000  0.4820840000000  0.5867240000000 1.0
C      1  0.5397780000000  0.5327150000000  0.4311800000000 1.0
C      1  0.4568790000000  0.4440480000000  0.5676230000000 1.0
C      1  0.4851650000000  0.5693420000000  0.4289610000000 1.0
C      1  0.4393300000000  0.5382010000000  0.5418660000000 1.0
C      1  0.5611560000000  0.5487610000000  0.5448290000000 1.0
C      1  0.5462490000000  0.4973460000000  0.4717380000000 1.0
C      1  0.5556090000000  0.4990400000000  0.5771960000000 1.0
C      1  0.4951240000000  0.5277990000000  0.5473770000000 1.0
C      1  0.5100710000000  0.5392580000000  0.4631340000000 1.0
C      1  0.5332240000000  0.5946470000000  0.5475180000000 1.0
C      1  0.5036350000000  0.4663540000000  0.4530080000000 1.0
C      1  0.4478040000000  0.4262000000000  0.5084810000000 1.0
C      1  0.5667140000000  0.4478590000000  0.5050460000000 1.0
C      1  0.4993540000000  0.5541300000000  0.4074940000000 1.0
C      1  0.5739740000000  0.5214190000000  0.5767230000000 1.0
C      1  0.4734990000000  0.4310440000000  0.5238190000000 1.0
C      1  0.5417580000000  0.4340380000000  0.5044090000000 1.0
C      1  0.4458650000000  0.5589070000000  0.5225380000000 1.0
C      1  0.4567980000000  0.4888430000000  0.5387370000000 1.0
C      1  0.5389410000000  0.4814070000000  0.4968880000000 1.0
C      1  0.4429250000000  0.4986060000000  0.5835470000000 1.0
C      1  0.4246850000000  0.4830250000000  0.5689800000000 1.0
C      1  0.4573530000000  0.5595820000000  0.4288640000000 1.0
C      1  0.5009410000000  0.4481710000000  0.4759330000000 1.0
C      1  0.5912350000000  0.4860490000000  0.4862640000000 1.0
C      1  0.4317550000000  0.5099700000000  0.5006290000000 1.0
C      1  0.4217060000000  0.5333730000000  0.4857450000000 1.0
C      1  0.5016980000000  0.4192700000000  0.4629080000000 1.0
C      1  0.5611820000000  0.4704720000000  0.5778120000000 1.0
C      1  0.4811400000000  0.4869170000000  0.5217760000000 1.0
C      1  0.5172640000000  0.5468340000000  0.5423930000000 1.0
C      1  0.5705380000000  0.5699020000000  0.5274530000000 1.0
C      1  0.4245420000000  0.4740230000000  0.4365550000000 1.0
C      1  0.4789670000000  0.5300260000000  0.5729540000000 1.0
C      1  0.4294210000000  0.4318430000000  0.4653800000000 1.0
C      1  0.5535770000000  0.5474710000000  0.5747000000000 1.0
C      1  0.4832260000000  0.3910680000000  0.4953810000000 1.0
C      1  0.4557360000000  0.4278220000000  0.4800460000000 1.0
C      1  0.5280950000000  0.5348030000000  0.4934160000000 1.0
C      1  0.4956410000000  0.4581940000000  0.5247750000000 1.0
C      1  0.5445830000000  0.5042350000000  0.4256890000000 1.0
C      1  0.5911600000000  0.5109450000000  0.5022720000000 1.0
C      1  0.4374100000000  0.5179680000000  0.4231320000000 1.0
C      1  0.4698730000000  0.4231530000000  0.5525500000000 1.0
C      1  0.4825300000000  0.5297410000000  0.4033670000000 1.0
C      1  0.5243830000000  0.5841280000000  0.5110690000000 1.0
C      1  0.5118600000000  0.4075480000000  0.5359630000000 1.0
C      1  0.5055160000000  0.4259530000000  0.4330750000000 1.0
C      1  0.4297750000000  0.4468440000000  0.4416240000000 1.0
C      1  0.5127500000000  0.5747880000000  0.5525410000000 1.0
C      1  0.5797460000000  0.5347440000000  0.4898820000000 1.0
C      1  0.5495190000000  0.4554810000000  0.4434820000000 1.0
C      1  0.5813550000000  0.5591720000000  0.5038960000000 1.0
C      1  0.5262700000000  0.5483660000000  0.4126820000000 1.0
C      1  0.4936930000000  0.5163060000000  0.4515450000000 1.0
C      1  0.4102470000000  0.4951030000000  0.5446950000000 1.0
C      1  0.5252330000000  0.5355670000000  0.5789910000000 1.0
C      1  0.5229790000000  0.5094780000000  0.5114860000000 1.0
C      1  0.5862830000000  0.4848290000000  0.4576300000000 1.0
C      1  0.4741870000000  0.4988050000000  0.4936210000000 1.0
C      1  0.5298370000000  0.5068380000000  0.5859530000000 1.0
C      1  0.5010530000000  0.5054600000000  0.5311050000000 1.0
C      1  0.4864480000000  0.5505170000000  0.4977280000000 1.0
C      1  0.4785940000000  0.5750410000000  0.4826350000000 1.0
C      1  0.4764010000000  0.5988300000000  0.5116060000000 1.0
C      1  0.5567670000000  0.4343360000000  0.4599680000000 1.0
C      1  0.4989190000000  0.4225900000000  0.5593600000000 1.0
C      1  0.4326180000000  0.4858670000000  0.4836410000000 1.0
C      1  0.5198180000000  0.4957540000000  0.4109810000000 1.0
C      1  0.4980950000000  0.5683740000000  0.4570860000000 1.0
C      1  0.4767760000000  0.4627910000000  0.4401330000000 1.0
C      1  0.5082160000000  0.4519300000000  0.5553290000000 1.0
C      1  0.4758110000000  0.4059950000000  0.4724720000000 1.0
C      1  0.5188920000000  0.4553500000000  0.5007640000000 1.0
C      1  0.5176000000000  0.4666400000000  0.4059350000000 1.0
C      1  0.4259110000000  0.5328430000000  0.4564730000000 1.0
C      1  0.4723220000000  0.4829360000000  0.4183700000000 1.0
C      1  0.5517270000000  0.5924360000000  0.5248850000000 1.0
C      1  0.5890270000000  0.4643640000000  0.5071570000000 1.0
C      1  0.4419050000000  0.4648940000000  0.5507140000000 1.0
C      1  0.4544810000000  0.5465580000000  0.5664830000000 1.0
C      1  0.4723740000000  0.4525080000000  0.4828650000000 1.0
C      1  0.5393420000000  0.4442890000000  0.5497120000000 1.0
C      1  0.5452200000000  0.4183330000000  0.4795900000000 1.0
C      1  0.4770690000000  0.5260970000000  0.4782550000000 1.0
C      1  0.4343440000000  0.5087760000000  0.5315860000000 1.0
C      1  0.4185650000000  0.4594900000000  0.5322030000000 1.0
C      1  0.4646600000000  0.5794530000000  0.5318830000000 1.0
C      1  0.5816510000000  0.5266270000000  0.5479640000000 1.0
C      1  0.4896480000000  0.4585240000000  0.3982070000000 1.0
C      1  0.4425930000000  0.4901170000000  0.4193360000000 1.0
C      1  0.4982200000000  0.5477140000000  0.5888210000000 1.0
C      1  0.5537760000000  0.5279290000000  0.4763980000000 1.0
C      1  0.4503120000000  0.5702690000000  0.4747100000000 1.0
C      1  0.5203750000000  0.5871650000000  0.4581150000000 1.0
C      1  0.4100250000000  0.4387380000000  0.4851990000000 1.0
C      1  0.4661910000000  0.5742990000000  0.5621580000000 1.0
C      1  0.4811780000000  0.4393110000000  0.4205430000000 1.0
C      1  0.4705540000000  0.5034550000000  0.5850860000000 1.0
C      1  0.4771350000000  0.4548100000000  0.5834980000000 1.0
C      1  0.4221930000000  0.4398570000000  0.5109900000000 1.0
C      1  0.4339370000000  0.5586180000000  0.4959520000000 1.0
C      1  0.4606130000000  0.4787700000000  0.4780050000000 1.0
C      1  0.5484460000000  0.4969980000000  0.5235250000000 1.0
C      1  0.5893950000000  0.4757990000000  0.5352720000000 1.0
C      1  0.5140730000000  0.5548010000000  0.5117410000000 1.0
C      1  0.4938950000000  0.5749290000000  0.5754110000000 1.0
C      1  0.5383090000000  0.4205820000000  0.5314210000000 1.0
C      1  0.5778110000000  0.5034790000000  0.5284580000000 1.0
C      1  0.4930060000000  0.4110650000000  0.5130090000000 1.0
C      1  0.5041970000000  0.6046540000000  0.5029940000000 1.0
C      1  0.4879150000000  0.4801830000000  0.5830700000000 1.0
C      1  0.4542150000000  0.5375360000000  0.4097310000000 1.0
C      1  0.5442040000000  0.5725420000000  0.4577850000000 1.0
C      1  0.5521370000000  0.5459450000000  0.4529610000000 1.0
END
