TITL C-950536-5891-135 3.42989458332482e-06 125000 -734.800411655984 0 0 119 (C1) n - 1
REM
REM in /home/bkarasulu/work/CARBON/AIRSS/Generating-Clusters/EDIP-Nigel-Params/with-SteepDescent/Only-C1/SD-CG/HFTN-CG
REM
REM
REM
REM
REM
REM ./C.cell (11c1c37f851c82e70ff6c80c92926a4b)
REM
REM compiler GCC version 9.2.1 20190827 (Red Hat 9.2.1-1)
REM options -cpp -mtune=generic -march=x86-64 -g -O0 -fpre-include=/usr/include/finclude/math-vector-fortran.h
REM seed -1924893239 794369326 -68058237 -876217514 -1949796345 1020076341 1721181586 -1668927978 223226577 296840147 1416468888 -1290527674 -1558042400 -1339558173 1500013224 -1840754995 -542571778 -223531148 1232348165 -60185242 -1998545145 -1350557053 1960872035 -1859826465 -476170761 -1349935782 2116820796 2012405434 467531641 -42368177 774601040 2019442412 -818361949
REM
CELL 1.54180   50.00000   50.00000   50.00000   90.00000   90.00000   90.00000
LATT -1
SFAC C  
C      1  0.5665150000000  0.4445750000000  0.4808950000000 1.0
C      1  0.5521620000000  0.5653510000000  0.4545540000000 1.0
C      1  0.5104820000000  0.4091550000000  0.4712940000000 1.0
C      1  0.4995670000000  0.4714730000000  0.4655760000000 1.0
C      1  0.4052820000000  0.4761930000000  0.4636590000000 1.0
C      1  0.4730920000000  0.5246160000000  0.5057260000000 1.0
C      1  0.4970090000000  0.4608500000000  0.4007210000000 1.0
C      1  0.5098600000000  0.4580110000000  0.4908350000000 1.0
C      1  0.4717720000000  0.5375450000000  0.5319090000000 1.0
C      1  0.5883800000000  0.5367080000000  0.5406090000000 1.0
C      1  0.5301220000000  0.4788150000000  0.5027960000000 1.0
C      1  0.5690380000000  0.4660640000000  0.5604460000000 1.0
C      1  0.5517350000000  0.4859810000000  0.4223440000000 1.0
C      1  0.4578360000000  0.4490310000000  0.5684910000000 1.0
C      1  0.5295250000000  0.5024810000000  0.4562720000000 1.0
C      1  0.4663610000000  0.5165270000000  0.5829770000000 1.0
C      1  0.4797740000000  0.5861850000000  0.4698960000000 1.0
C      1  0.4842190000000  0.4044650000000  0.4853140000000 1.0
C      1  0.5550840000000  0.4423430000000  0.4557210000000 1.0
C      1  0.5353880000000  0.5311970000000  0.4458310000000 1.0
C      1  0.4746860000000  0.5672340000000  0.4921550000000 1.0
C      1  0.5771390000000  0.5353670000000  0.5115680000000 1.0
C      1  0.4287300000000  0.4628370000000  0.4501920000000 1.0
C      1  0.4574020000000  0.5872600000000  0.4512330000000 1.0
C      1  0.5468770000000  0.4945170000000  0.4800980000000 1.0
C      1  0.4440030000000  0.5072740000000  0.5658610000000 1.0
C      1  0.4967010000000  0.5567200000000  0.4326480000000 1.0
C      1  0.4078500000000  0.4698650000000  0.4923330000000 1.0
C      1  0.4854800000000  0.4545970000000  0.5074460000000 1.0
C      1  0.5092910000000  0.4545160000000  0.5785390000000 1.0
C      1  0.4898960000000  0.5796130000000  0.5477520000000 1.0
C      1  0.5264690000000  0.4993460000000  0.3965500000000 1.0
C      1  0.5531320000000  0.4597180000000  0.5356700000000 1.0
C      1  0.4227720000000  0.4882620000000  0.5123520000000 1.0
C      1  0.5490910000000  0.4996450000000  0.5401610000000 1.0
C      1  0.5008620000000  0.5008530000000  0.4673570000000 1.0
C      1  0.5721520000000  0.4849240000000  0.4412600000000 1.0
C      1  0.5097810000000  0.5000190000000  0.5963120000000 1.0
C      1  0.4738830000000  0.4772990000000  0.5226680000000 1.0
C      1  0.5580350000000  0.5541900000000  0.5774090000000 1.0
C      1  0.5717940000000  0.4807090000000  0.4698540000000 1.0
C      1  0.4845350000000  0.5660520000000  0.5725590000000 1.0
C      1  0.5180480000000  0.5391850000000  0.4230160000000 1.0
C      1  0.5237280000000  0.4205710000000  0.5377010000000 1.0
C      1  0.5162170000000  0.5394060000000  0.4832780000000 1.0
C      1  0.5649940000000  0.5413150000000  0.4456200000000 1.0
C      1  0.4239720000000  0.5164850000000  0.4604270000000 1.0
C      1  0.5167280000000  0.5737560000000  0.5373580000000 1.0
C      1  0.5297800000000  0.4468850000000  0.4445930000000 1.0
C      1  0.5186390000000  0.5449320000000  0.5345000000000 1.0
C      1  0.4420520000000  0.5514450000000  0.5527650000000 1.0
C      1  0.4406410000000  0.4434030000000  0.5116210000000 1.0
C      1  0.4828450000000  0.4742500000000  0.4209990000000 1.0
C      1  0.4182580000000  0.4415970000000  0.4918620000000 1.0
C      1  0.5041940000000  0.5762570000000  0.4551920000000 1.0
C      1  0.4895780000000  0.4797010000000  0.5473630000000 1.0
C      1  0.5265510000000  0.5290360000000  0.5097510000000 1.0
C      1  0.5626890000000  0.5104160000000  0.5732780000000 1.0
C      1  0.5127700000000  0.5012630000000  0.5142900000000 1.0
C      1  0.4482560000000  0.5556650000000  0.4308130000000 1.0
C      1  0.4637250000000  0.4234630000000  0.4715670000000 1.0
C      1  0.5284770000000  0.5657320000000  0.4728310000000 1.0
C      1  0.5672080000000  0.4742290000000  0.5132860000000 1.0
C      1  0.5650600000000  0.5610770000000  0.5045480000000 1.0
C      1  0.5545790000000  0.4828990000000  0.5804630000000 1.0
C      1  0.5884320000000  0.4851250000000  0.5475230000000 1.0
C      1  0.4809650000000  0.4925250000000  0.5930440000000 1.0
C      1  0.4416900000000  0.4699880000000  0.5274400000000 1.0
C      1  0.5063170000000  0.5162020000000  0.4095810000000 1.0
C      1  0.4853020000000  0.4988390000000  0.5030560000000 1.0
C      1  0.4594570000000  0.4895430000000  0.4127440000000 1.0
C      1  0.5128360000000  0.5294400000000  0.5925780000000 1.0
C      1  0.4226800000000  0.5176480000000  0.5198910000000 1.0
C      1  0.5208210000000  0.4716930000000  0.3924550000000 1.0
C      1  0.4757520000000  0.5169520000000  0.4114180000000 1.0
C      1  0.4301340000000  0.4339400000000  0.4646710000000 1.0
C      1  0.5076870000000  0.4261660000000  0.4477300000000 1.0
C      1  0.3997670000000  0.5026650000000  0.4583250000000 1.0
C      1  0.4462260000000  0.4208800000000  0.5289650000000 1.0
C      1  0.5254630000000  0.4796390000000  0.5815440000000 1.0
C      1  0.5210030000000  0.4284470000000  0.4920100000000 1.0
C      1  0.4284680000000  0.4856350000000  0.5735870000000 1.0
C      1  0.4531860000000  0.4738540000000  0.4639760000000 1.0
C      1  0.4778700000000  0.4630370000000  0.4484260000000 1.0
C      1  0.5849480000000  0.5329960000000  0.4629350000000 1.0
C      1  0.4723350000000  0.5384150000000  0.4332930000000 1.0
C      1  0.5757450000000  0.5556580000000  0.5570610000000 1.0
C      1  0.5111240000000  0.4999880000000  0.5449560000000 1.0
C      1  0.4327810000000  0.5254560000000  0.5467900000000 1.0
C      1  0.5501730000000  0.4279640000000  0.4983470000000 1.0
C      1  0.4974310000000  0.5293460000000  0.5477350000000 1.0
C      1  0.5954120000000  0.4937130000000  0.4852920000000 1.0
C      1  0.4717950000000  0.5687110000000  0.5246600000000 1.0
C      1  0.5871900000000  0.5123870000000  0.5580410000000 1.0
C      1  0.5161330000000  0.4332320000000  0.5616010000000 1.0
C      1  0.4205040000000  0.5416420000000  0.4737750000000 1.0
C      1  0.4227690000000  0.5660370000000  0.5142940000000 1.0
C      1  0.4427900000000  0.5719530000000  0.5328460000000 1.0
C      1  0.4894170000000  0.5371190000000  0.5757560000000 1.0
C      1  0.5277480000000  0.5886810000000  0.5165290000000 1.0
C      1  0.4823230000000  0.4678030000000  0.5733690000000 1.0
C      1  0.4356590000000  0.4767280000000  0.4242150000000 1.0
C      1  0.5260200000000  0.4733850000000  0.4307880000000 1.0
C      1  0.5933840000000  0.5235660000000  0.4877320000000 1.0
C      1  0.5054620000000  0.4158910000000  0.5146570000000 1.0
C      1  0.5377960000000  0.5420030000000  0.5904050000000 1.0
C      1  0.4354570000000  0.5686350000000  0.4529680000000 1.0
C      1  0.4788520000000  0.4338040000000  0.4478370000000 1.0
C      1  0.4175220000000  0.5413300000000  0.5025860000000 1.0
C      1  0.4358840000000  0.4645690000000  0.5570500000000 1.0
C      1  0.5494650000000  0.4312060000000  0.5278170000000 1.0
C      1  0.4504830000000  0.5044320000000  0.4656090000000 1.0
C      1  0.5433490000000  0.5774400000000  0.4966110000000 1.0
C      1  0.4746260000000  0.5217890000000  0.4600000000000 1.0
C      1  0.5546060000000  0.5159910000000  0.5125740000000 1.0
C      1  0.4596860000000  0.4267390000000  0.5517090000000 1.0
C      1  0.5968810000000  0.4799640000000  0.5108440000000 1.0
C      1  0.4850710000000  0.5403740000000  0.4840540000000 1.0
C      1  0.4623700000000  0.4474840000000  0.4913340000000 1.0
END
