TITL C-950521-2237-661 -6.59958391489562e-09 125000 -266.465239669571 0 0 44 (C1) n - 1
REM
REM in /home/bkarasulu/work/CARBON/AIRSS/Generating-Clusters/EDIP-Nigel-Params/with-SteepDescent/Only-C1/SD-CG/HFTN-CG
REM
REM
REM
REM
REM
REM ./C.cell (11c1c37f851c82e70ff6c80c92926a4b)
REM
REM compiler GCC version 9.2.1 20190827 (Red Hat 9.2.1-1)
REM options -cpp -mtune=generic -march=x86-64 -g -O0 -fpre-include=/usr/include/finclude/math-vector-fortran.h
REM seed 1551133601 -983510244 -847988170 -734546984 -121053513 644081910 2038718986 -1706942994 600298304 87884126 989103142 1476794713 515607511 196429646 1903647976 -936583249 1670568784 540232651 -939322076 703720595 -1547967694 -1187196744 -1298355432 -411869269 -1303740740 1151237535 1645582245 204684313 975131343 -110837717 923156547 -523604685 -1376015476
REM
CELL 1.54180   50.00000   50.00000   50.00000   90.00000   90.00000   90.00000
LATT -1
SFAC C  
C      1  0.4485170000000  0.4899450000000  0.4645110000000 1.0
C      1  0.5716930000000  0.4834040000000  0.5045660000000 1.0
C      1  0.4697580000000  0.4412290000000  0.5194050000000 1.0
C      1  0.5074790000000  0.5706650000000  0.5413490000000 1.0
C      1  0.5536960000000  0.5374470000000  0.4944160000000 1.0
C      1  0.5650020000000  0.4603850000000  0.5184600000000 1.0
C      1  0.4877090000000  0.4920530000000  0.5020360000000 1.0
C      1  0.4422700000000  0.4450480000000  0.5172350000000 1.0
C      1  0.4950070000000  0.4712640000000  0.4306000000000 1.0
C      1  0.4892680000000  0.5488950000000  0.5391070000000 1.0
C      1  0.4669130000000  0.5132560000000  0.5086100000000 1.0
C      1  0.4306970000000  0.4933390000000  0.5349950000000 1.0
C      1  0.4751960000000  0.5042210000000  0.5572800000000 1.0
C      1  0.5425390000000  0.5231360000000  0.4495190000000 1.0
C      1  0.5105320000000  0.5762730000000  0.4943500000000 1.0
C      1  0.5232030000000  0.5686500000000  0.5181990000000 1.0
C      1  0.4430370000000  0.5071110000000  0.4884400000000 1.0
C      1  0.5187050000000  0.5136250000000  0.4371920000000 1.0
C      1  0.5583420000000  0.4736000000000  0.4586980000000 1.0
C      1  0.4912500000000  0.5563560000000  0.4898460000000 1.0
C      1  0.5557090000000  0.5189230000000  0.4738340000000 1.0
C      1  0.4963350000000  0.5164360000000  0.4563880000000 1.0
C      1  0.5431160000000  0.4723800000000  0.4366020000000 1.0
C      1  0.4551850000000  0.5071770000000  0.5355810000000 1.0
C      1  0.4260940000000  0.4898940000000  0.5069740000000 1.0
C      1  0.4297030000000  0.4616720000000  0.4985090000000 1.0
C      1  0.5053610000000  0.4689240000000  0.5445210000000 1.0
C      1  0.4968570000000  0.5245650000000  0.5549970000000 1.0
C      1  0.4939250000000  0.5418860000000  0.4669860000000 1.0
C      1  0.5597310000000  0.4912450000000  0.4799940000000 1.0
C      1  0.5284680000000  0.4870080000000  0.5421650000000 1.0
C      1  0.5196830000000  0.4851200000000  0.4280820000000 1.0
C      1  0.4424270000000  0.4617830000000  0.4715410000000 1.0
C      1  0.4969930000000  0.4917910000000  0.4739300000000 1.0
C      1  0.4823250000000  0.4366130000000  0.4936110000000 1.0
C      1  0.5550240000000  0.4765900000000  0.5385920000000 1.0
C      1  0.5439190000000  0.5327900000000  0.5420390000000 1.0
C      1  0.4806190000000  0.5407540000000  0.5118370000000 1.0
C      1  0.4819410000000  0.4728410000000  0.4564410000000 1.0
C      1  0.4858280000000  0.4786390000000  0.5622910000000 1.0
C      1  0.5250390000000  0.5144090000000  0.5517380000000 1.0
C      1  0.4698520000000  0.4463510000000  0.4689930000000 1.0
C      1  0.5429570000000  0.5472850000000  0.5181580000000 1.0
C      1  0.4920950000000  0.4650220000000  0.5173760000000 1.0
END
