TITL C-951337-3020-192 -5.82382294282719e-07 125000 -790.7092790031 0 0 128 (C1) n - 1
REM
REM in /home/bkarasulu/work/CARBON/AIRSS/Generating-Clusters/EDIP-Nigel-Params/with-SteepDescent/Only-C1/SD-CG/HFTN-CG
REM
REM
REM
REM
REM
REM ./C.cell (11c1c37f851c82e70ff6c80c92926a4b)
REM
REM compiler GCC version 9.2.1 20190827 (Red Hat 9.2.1-1)
REM options -cpp -mtune=generic -march=x86-64 -g -O0 -fpre-include=/usr/include/finclude/math-vector-fortran.h
REM seed -1846461854 1689121902 -47230017 -902142099 -1233350737 1046921413 1562846940 1513679483 -971479442 -1676537367 -1358035613 -1166567942 -2098475037 -186509027 -474871670 1600208866 922970736 718339129 14071867 -1532181568 -15846544 -1853624879 -508182579 820605746 86923353 687148776 -407148313 -1776240870 336269590 -751604521 -1098125888 691907895 -1886184888
REM
CELL 1.54180   50.00000   50.00000   50.00000   90.00000   90.00000   90.00000
LATT -1
SFAC C  
C      1  0.4569620000000  0.4254380000000  0.5773940000000 1.0
C      1  0.4836920000000  0.4641620000000  0.5086930000000 1.0
C      1  0.5853290000000  0.5036040000000  0.4572390000000 1.0
C      1  0.5412350000000  0.5593410000000  0.4647190000000 1.0
C      1  0.5743860000000  0.5407440000000  0.4254990000000 1.0
C      1  0.5039440000000  0.5375630000000  0.5092770000000 1.0
C      1  0.5576570000000  0.4417820000000  0.5406180000000 1.0
C      1  0.4749950000000  0.4506010000000  0.4477080000000 1.0
C      1  0.4958000000000  0.4735180000000  0.4155270000000 1.0
C      1  0.5491840000000  0.5146420000000  0.5588640000000 1.0
C      1  0.4243130000000  0.5682310000000  0.4671030000000 1.0
C      1  0.5233630000000  0.5450620000000  0.4186930000000 1.0
C      1  0.4169530000000  0.4785230000000  0.5139710000000 1.0
C      1  0.5359080000000  0.4586350000000  0.4350900000000 1.0
C      1  0.5716720000000  0.5455650000000  0.5252430000000 1.0
C      1  0.4199660000000  0.4821020000000  0.5647470000000 1.0
C      1  0.4132260000000  0.4880970000000  0.4860460000000 1.0
C      1  0.5320200000000  0.5891520000000  0.4410760000000 1.0
C      1  0.5936470000000  0.4625670000000  0.5115010000000 1.0
C      1  0.5569690000000  0.4890120000000  0.5726600000000 1.0
C      1  0.5124430000000  0.4479110000000  0.4178960000000 1.0
C      1  0.5207240000000  0.4765730000000  0.4562890000000 1.0
C      1  0.5144540000000  0.5905630000000  0.5318500000000 1.0
C      1  0.4619080000000  0.4199570000000  0.4811700000000 1.0
C      1  0.5002250000000  0.4686280000000  0.5538680000000 1.0
C      1  0.4704400000000  0.6005340000000  0.4842410000000 1.0
C      1  0.5402350000000  0.4439990000000  0.5060000000000 1.0
C      1  0.4691530000000  0.5112440000000  0.5032330000000 1.0
C      1  0.5267540000000  0.4113100000000  0.5460290000000 1.0
C      1  0.4642230000000  0.5196500000000  0.5978330000000 1.0
C      1  0.5223950000000  0.5776170000000  0.4826660000000 1.0
C      1  0.4485040000000  0.4775560000000  0.5610640000000 1.0
C      1  0.3928920000000  0.5225470000000  0.4564140000000 1.0
C      1  0.4848380000000  0.5839640000000  0.5320590000000 1.0
C      1  0.5012520000000  0.5266470000000  0.6063380000000 1.0
C      1  0.4616060000000  0.5042960000000  0.5513360000000 1.0
C      1  0.5363140000000  0.4945630000000  0.5276940000000 1.0
C      1  0.4118070000000  0.5349980000000  0.5015890000000 1.0
C      1  0.5926970000000  0.5073260000000  0.5466600000000 1.0
C      1  0.5925560000000  0.5045540000000  0.4851350000000 1.0
C      1  0.4537090000000  0.4461770000000  0.4682370000000 1.0
C      1  0.4269700000000  0.4908450000000  0.4381250000000 1.0
C      1  0.5261600000000  0.4225670000000  0.5720250000000 1.0
C      1  0.5653430000000  0.4981860000000  0.5216390000000 1.0
C      1  0.5891810000000  0.5309010000000  0.4472210000000 1.0
C      1  0.5175140000000  0.5469180000000  0.5357360000000 1.0
C      1  0.4738380000000  0.4925540000000  0.6035560000000 1.0
C      1  0.5035510000000  0.5646990000000  0.5731710000000 1.0
C      1  0.4914230000000  0.4920380000000  0.5149670000000 1.0
C      1  0.4516440000000  0.4539740000000  0.5409410000000 1.0
C      1  0.5625780000000  0.4333150000000  0.4900500000000 1.0
C      1  0.5378320000000  0.5289390000000  0.4689850000000 1.0
C      1  0.5484360000000  0.4411920000000  0.5698750000000 1.0
C      1  0.4925710000000  0.5693650000000  0.4807110000000 1.0
C      1  0.5437900000000  0.5537910000000  0.5205540000000 1.0
C      1  0.5361910000000  0.4677460000000  0.5707530000000 1.0
C      1  0.5121770000000  0.5377440000000  0.5819310000000 1.0
C      1  0.5153260000000  0.5200830000000  0.4883340000000 1.0
C      1  0.5138510000000  0.5695520000000  0.4316330000000 1.0
C      1  0.5008820000000  0.4097240000000  0.5094460000000 1.0
C      1  0.5252220000000  0.4685260000000  0.4869310000000 1.0
C      1  0.4456390000000  0.5538260000000  0.4565960000000 1.0
C      1  0.4043440000000  0.5155720000000  0.4812020000000 1.0
C      1  0.5002420000000  0.4987810000000  0.6125790000000 1.0
C      1  0.4038340000000  0.5064250000000  0.4377280000000 1.0
C      1  0.4762320000000  0.4428920000000  0.5877700000000 1.0
C      1  0.5359150000000  0.4172580000000  0.4590380000000 1.0
C      1  0.5077730000000  0.4170560000000  0.4593250000000 1.0
C      1  0.4388550000000  0.5735850000000  0.5153070000000 1.0
C      1  0.5897420000000  0.5485980000000  0.4709510000000 1.0
C      1  0.4274900000000  0.4740920000000  0.4629070000000 1.0
C      1  0.4912280000000  0.4183210000000  0.4835430000000 1.0
C      1  0.4548650000000  0.5259110000000  0.5714490000000 1.0
C      1  0.4647760000000  0.5866020000000  0.5098020000000 1.0
C      1  0.4849600000000  0.5720110000000  0.4380830000000 1.0
C      1  0.5784490000000  0.4849280000000  0.5005660000000 1.0
C      1  0.5189820000000  0.4936200000000  0.5027400000000 1.0
C      1  0.5764630000000  0.4504320000000  0.4582450000000 1.0
C      1  0.4501010000000  0.5126750000000  0.5256720000000 1.0
C      1  0.4448120000000  0.4144840000000  0.5049500000000 1.0
C      1  0.4366390000000  0.4572810000000  0.5137310000000 1.0
C      1  0.5271520000000  0.4181240000000  0.5185210000000 1.0
C      1  0.5034640000000  0.5276960000000  0.4110160000000 1.0
C      1  0.4231200000000  0.4323470000000  0.5065180000000 1.0
C      1  0.5830600000000  0.4573200000000  0.5397660000000 1.0
C      1  0.4958080000000  0.5183970000000  0.4611350000000 1.0
C      1  0.5028930000000  0.4354510000000  0.5820580000000 1.0
C      1  0.5897200000000  0.4405490000000  0.4932600000000 1.0
C      1  0.5454630000000  0.5033150000000  0.4147520000000 1.0
C      1  0.4805670000000  0.5473040000000  0.4969500000000 1.0
C      1  0.5897240000000  0.5322220000000  0.4952480000000 1.0
C      1  0.4462590000000  0.5370580000000  0.4333220000000 1.0
C      1  0.4626470000000  0.5006910000000  0.4049410000000 1.0
C      1  0.4733830000000  0.5923940000000  0.4562380000000 1.0
C      1  0.5744720000000  0.5301120000000  0.5500050000000 1.0
C      1  0.4553660000000  0.5543750000000  0.5613660000000 1.0
C      1  0.4815640000000  0.4507700000000  0.5346630000000 1.0
C      1  0.4231750000000  0.5607050000000  0.4941960000000 1.0
C      1  0.4086560000000  0.4855180000000  0.5401380000000 1.0
C      1  0.5564390000000  0.4780790000000  0.4236710000000 1.0
C      1  0.4721310000000  0.4745460000000  0.4000170000000 1.0
C      1  0.5236840000000  0.5780240000000  0.5568670000000 1.0
C      1  0.4585880000000  0.4649250000000  0.4929750000000 1.0
C      1  0.5263280000000  0.6015320000000  0.4658520000000 1.0
C      1  0.4944580000000  0.4307300000000  0.4366890000000 1.0
C      1  0.4566230000000  0.4939840000000  0.4809240000000 1.0
C      1  0.5340330000000  0.5804820000000  0.5103740000000 1.0
C      1  0.5234240000000  0.5101550000000  0.4461070000000 1.0
C      1  0.5492680000000  0.5315190000000  0.4175750000000 1.0
C      1  0.5289340000000  0.4679660000000  0.5403390000000 1.0
C      1  0.5830800000000  0.4821030000000  0.5587360000000 1.0
C      1  0.4665620000000  0.5551430000000  0.4236020000000 1.0
C      1  0.4521000000000  0.5071620000000  0.4324530000000 1.0
C      1  0.5781270000000  0.4778370000000  0.4441970000000 1.0
C      1  0.4899810000000  0.4756790000000  0.4453820000000 1.0
C      1  0.4442900000000  0.4269920000000  0.5526260000000 1.0
C      1  0.4814740000000  0.5196820000000  0.3976740000000 1.0
C      1  0.4240520000000  0.5238250000000  0.5241910000000 1.0
C      1  0.5182950000000  0.5230090000000  0.5559250000000 1.0
C      1  0.5686460000000  0.5666600000000  0.4692540000000 1.0
C      1  0.5517480000000  0.4371140000000  0.4473680000000 1.0
C      1  0.4371760000000  0.5614950000000  0.5407910000000 1.0
C      1  0.4568960000000  0.4090410000000  0.5319790000000 1.0
C      1  0.4928990000000  0.4980950000000  0.5462960000000 1.0
C      1  0.4816320000000  0.5642750000000  0.5537990000000 1.0
C      1  0.4851520000000  0.4188720000000  0.5332050000000 1.0
C      1  0.4680720000000  0.4712000000000  0.5839830000000 1.0
C      1  0.4732420000000  0.4995630000000  0.4550190000000 1.0
END
