TITL C-951341-1326-145 -2.93368289047714e-06 125000 -340.05230648457 0 0 56 (C1) n - 1
REM
REM in /home/bkarasulu/work/CARBON/AIRSS/Generating-Clusters/EDIP-Nigel-Params/with-SteepDescent/Only-C1/SD-CG/HFTN-CG
REM
REM
REM
REM
REM
REM ./C.cell (11c1c37f851c82e70ff6c80c92926a4b)
REM
REM compiler GCC version 9.2.1 20190827 (Red Hat 9.2.1-1)
REM options -cpp -mtune=generic -march=x86-64 -g -O0 -fpre-include=/usr/include/finclude/math-vector-fortran.h
REM seed 224359987 -2058100628 1805594444 588913230 -1739538100 1421071349 -510337149 -346987812 -1965516833 -580405349 -164086382 1460569176 522948446 1482621964 -1108454411 -301000817 1766371175 1000472858 334370014 -1139235603 -763670655 -719244058 562278826 1753351319 -92332419 989030336 198801583 1256647828 -97783868 902098870 -2078954988 338752662 -170578065
REM
CELL 1.54180   50.00000   50.00000   50.00000   90.00000   90.00000   90.00000
LATT -1
SFAC C  
C      1  0.4521580000000  0.5272730000000  0.4791380000000 1.0
C      1  0.4619900000000  0.4323140000000  0.4691620000000 1.0
C      1  0.4446410000000  0.4702120000000  0.5293890000000 1.0
C      1  0.5033880000000  0.4417290000000  0.4467430000000 1.0
C      1  0.4650960000000  0.5725250000000  0.4933190000000 1.0
C      1  0.4589790000000  0.4518620000000  0.5117940000000 1.0
C      1  0.4385820000000  0.5433790000000  0.5213700000000 1.0
C      1  0.4413790000000  0.5014580000000  0.4899340000000 1.0
C      1  0.4521850000000  0.4665690000000  0.5561370000000 1.0
C      1  0.4772070000000  0.4759340000000  0.5634780000000 1.0
C      1  0.5254900000000  0.5501970000000  0.4501210000000 1.0
C      1  0.4820910000000  0.5258940000000  0.4748120000000 1.0
C      1  0.5536960000000  0.4642560000000  0.5252540000000 1.0
C      1  0.5260660000000  0.5292640000000  0.4960750000000 1.0
C      1  0.4899380000000  0.5367000000000  0.4476130000000 1.0
C      1  0.5665890000000  0.5086670000000  0.5129860000000 1.0
C      1  0.5034230000000  0.4203440000000  0.4885030000000 1.0
C      1  0.5177480000000  0.4350540000000  0.5325660000000 1.0
C      1  0.4456360000000  0.5200310000000  0.5356210000000 1.0
C      1  0.4873650000000  0.4628540000000  0.5047620000000 1.0
C      1  0.4475470000000  0.4968630000000  0.5180570000000 1.0
C      1  0.5001990000000  0.4917440000000  0.5186310000000 1.0
C      1  0.5301800000000  0.5218970000000  0.4456620000000 1.0
C      1  0.4467760000000  0.4497630000000  0.4849990000000 1.0
C      1  0.4875950000000  0.5426400000000  0.5342810000000 1.0
C      1  0.5393760000000  0.4682640000000  0.4604620000000 1.0
C      1  0.4986240000000  0.4873410000000  0.4355550000000 1.0
C      1  0.5169420000000  0.4657190000000  0.4436650000000 1.0
C      1  0.5238210000000  0.5717420000000  0.5325940000000 1.0
C      1  0.4966800000000  0.4986750000000  0.4804570000000 1.0
C      1  0.5214030000000  0.4731710000000  0.5637820000000 1.0
C      1  0.5497150000000  0.5476120000000  0.4908130000000 1.0
C      1  0.5703910000000  0.5258030000000  0.4898890000000 1.0
C      1  0.5202330000000  0.5034390000000  0.5660400000000 1.0
C      1  0.5449090000000  0.5613580000000  0.4667640000000 1.0
C      1  0.5651390000000  0.5069810000000  0.4680000000000 1.0
C      1  0.4931800000000  0.5707800000000  0.4936290000000 1.0
C      1  0.5308100000000  0.4586350000000  0.5397860000000 1.0
C      1  0.4886740000000  0.4980760000000  0.5476420000000 1.0
C      1  0.4836640000000  0.4709170000000  0.4722000000000 1.0
C      1  0.4980020000000  0.4609510000000  0.5748830000000 1.0
C      1  0.4971770000000  0.5416300000000  0.4971240000000 1.0
C      1  0.5268740000000  0.5078960000000  0.4725690000000 1.0
C      1  0.5597860000000  0.4822750000000  0.5051760000000 1.0
C      1  0.5064540000000  0.4402160000000  0.5075470000000 1.0
C      1  0.4635940000000  0.4801790000000  0.4484750000000 1.0
C      1  0.4891570000000  0.4272420000000  0.4656330000000 1.0
C      1  0.4721520000000  0.5230800000000  0.5479260000000 1.0
C      1  0.5052300000000  0.5154570000000  0.4313680000000 1.0
C      1  0.5299420000000  0.5233730000000  0.5463390000000 1.0
C      1  0.5599170000000  0.4796630000000  0.4758980000000 1.0
C      1  0.4462330000000  0.5514480000000  0.4956700000000 1.0
C      1  0.5135610000000  0.5485580000000  0.5449520000000 1.0
C      1  0.5086590000000  0.5833780000000  0.5131870000000 1.0
C      1  0.4448420000000  0.4771700000000  0.4719360000000 1.0
C      1  0.5289140000000  0.5095480000000  0.5196340000000 1.0
END
