TITL C-951337-3020-289 2.57492274402144e-05 125000 -831.722146845232 0 0 134 (C1) n - 1
REM
REM in /home/bkarasulu/work/CARBON/AIRSS/Generating-Clusters/EDIP-Nigel-Params/with-SteepDescent/Only-C1/SD-CG/HFTN-CG
REM
REM
REM
REM
REM
REM ./C.cell (11c1c37f851c82e70ff6c80c92926a4b)
REM
REM compiler GCC version 9.2.1 20190827 (Red Hat 9.2.1-1)
REM options -cpp -mtune=generic -march=x86-64 -g -O0 -fpre-include=/usr/include/finclude/math-vector-fortran.h
REM seed -2089835157 1884977592 -1682414906 -1563351290 -1542073853 -970473075 -1538846270 504125541 -931853688 -921816521 -846552071 -2010739141 -640124425 1777724255 -559080622 -710474838 171136398 -1089663560 780461267 -1886774654 -2145627450 847096919 1757984054 541947209 -1942331621 -105111009 -23323337 1352009925 -1452671561 -2004102243 1787780276 1535347510 -817551689
REM
CELL 1.54180   50.00000   50.00000   50.00000   90.00000   90.00000   90.00000
LATT -1
SFAC C  
C      1  0.5809090000000  0.4729020000000  0.4889220000000 1.0
C      1  0.5066450000000  0.5653690000000  0.4844960000000 1.0
C      1  0.4670740000000  0.5554970000000  0.4943070000000 1.0
C      1  0.4467580000000  0.5308850000000  0.5002640000000 1.0
C      1  0.4385200000000  0.5783170000000  0.4814310000000 1.0
C      1  0.4869110000000  0.4478790000000  0.5804200000000 1.0
C      1  0.4935900000000  0.4536740000000  0.4416910000000 1.0
C      1  0.5262080000000  0.4279060000000  0.4259780000000 1.0
C      1  0.4919130000000  0.4529040000000  0.4939370000000 1.0
C      1  0.5641980000000  0.4780910000000  0.4147990000000 1.0
C      1  0.5826810000000  0.4551560000000  0.5127790000000 1.0
C      1  0.4929880000000  0.4281510000000  0.5578020000000 1.0
C      1  0.5274820000000  0.5783060000000  0.5372580000000 1.0
C      1  0.5082000000000  0.5358620000000  0.5224230000000 1.0
C      1  0.5264320000000  0.5564690000000  0.5142840000000 1.0
C      1  0.4816280000000  0.5852300000000  0.5149380000000 1.0
C      1  0.4550890000000  0.5908640000000  0.5268660000000 1.0
C      1  0.4810550000000  0.4824300000000  0.3988780000000 1.0
C      1  0.5262630000000  0.5340470000000  0.5911920000000 1.0
C      1  0.5217060000000  0.5048360000000  0.4529270000000 1.0
C      1  0.5603650000000  0.4997030000000  0.5756120000000 1.0
C      1  0.5064040000000  0.5678130000000  0.4120280000000 1.0
C      1  0.3962160000000  0.5179550000000  0.4950580000000 1.0
C      1  0.4901710000000  0.5546550000000  0.5702190000000 1.0
C      1  0.4229050000000  0.4765140000000  0.5508090000000 1.0
C      1  0.5445070000000  0.5025960000000  0.5274270000000 1.0
C      1  0.5959750000000  0.5145700000000  0.4726200000000 1.0
C      1  0.5573980000000  0.5609540000000  0.5556830000000 1.0
C      1  0.4610310000000  0.4843700000000  0.4679640000000 1.0
C      1  0.5298360000000  0.4061370000000  0.4706750000000 1.0
C      1  0.5543630000000  0.5438360000000  0.5091250000000 1.0
C      1  0.5303230000000  0.5526820000000  0.4117470000000 1.0
C      1  0.4485450000000  0.4393700000000  0.4486370000000 1.0
C      1  0.5934180000000  0.4980330000000  0.5378820000000 1.0
C      1  0.4277300000000  0.5003380000000  0.5628380000000 1.0
C      1  0.5161890000000  0.4117210000000  0.5641550000000 1.0
C      1  0.5267150000000  0.4903350000000  0.4790590000000 1.0
C      1  0.5679260000000  0.5414140000000  0.5375340000000 1.0
C      1  0.5824810000000  0.4590150000000  0.5630240000000 1.0
C      1  0.4804300000000  0.5534310000000  0.4173050000000 1.0
C      1  0.5646350000000  0.5639680000000  0.4888160000000 1.0
C      1  0.4629420000000  0.5615490000000  0.5649420000000 1.0
C      1  0.5344230000000  0.4586500000000  0.4771180000000 1.0
C      1  0.3969070000000  0.5415210000000  0.5106200000000 1.0
C      1  0.5229750000000  0.4868560000000  0.6061770000000 1.0
C      1  0.4603560000000  0.4502190000000  0.4991520000000 1.0
C      1  0.4449350000000  0.4090550000000  0.5004230000000 1.0
C      1  0.4597940000000  0.5127430000000  0.4598060000000 1.0
C      1  0.4332680000000  0.5777100000000  0.5107690000000 1.0
C      1  0.4970060000000  0.5243860000000  0.4989830000000 1.0
C      1  0.4118220000000  0.4830470000000  0.4374030000000 1.0
C      1  0.4618870000000  0.5120360000000  0.4305430000000 1.0
C      1  0.5354900000000  0.5065910000000  0.5884830000000 1.0
C      1  0.5084830000000  0.5815760000000  0.4377170000000 1.0
C      1  0.5066780000000  0.6150490000000  0.4795070000000 1.0
C      1  0.4636110000000  0.4181750000000  0.4349260000000 1.0
C      1  0.5610160000000  0.4702390000000  0.5771090000000 1.0
C      1  0.5678010000000  0.5109450000000  0.5470140000000 1.0
C      1  0.4455340000000  0.5404400000000  0.5564790000000 1.0
C      1  0.4007050000000  0.4892270000000  0.5051040000000 1.0
C      1  0.5742680000000  0.4652870000000  0.4618710000000 1.0
C      1  0.5732410000000  0.4860480000000  0.4408290000000 1.0
C      1  0.4169680000000  0.4725170000000  0.4874000000000 1.0
C      1  0.4073140000000  0.5229460000000  0.4680250000000 1.0
C      1  0.4919980000000  0.4027480000000  0.4936800000000 1.0
C      1  0.4127140000000  0.5601760000000  0.5243000000000 1.0
C      1  0.4968200000000  0.5359050000000  0.5915700000000 1.0
C      1  0.4872650000000  0.5252390000000  0.4233650000000 1.0
C      1  0.5360990000000  0.5581800000000  0.5754690000000 1.0
C      1  0.4647620000000  0.4656440000000  0.4443580000000 1.0
C      1  0.4550710000000  0.5041420000000  0.5143260000000 1.0
C      1  0.4817710000000  0.5884390000000  0.4485980000000 1.0
C      1  0.5844820000000  0.5132880000000  0.4472540000000 1.0
C      1  0.5102450000000  0.5969340000000  0.5208240000000 1.0
C      1  0.5271890000000  0.5009900000000  0.4039170000000 1.0
C      1  0.5031010000000  0.4413130000000  0.4676980000000 1.0
C      1  0.4206500000000  0.5507300000000  0.5492000000000 1.0
C      1  0.5130530000000  0.4585960000000  0.5951790000000 1.0
C      1  0.5016400000000  0.4941360000000  0.5496850000000 1.0
C      1  0.4036170000000  0.4793720000000  0.5311020000000 1.0
C      1  0.5394840000000  0.4275060000000  0.5643560000000 1.0
C      1  0.4620460000000  0.4843370000000  0.4198910000000 1.0
C      1  0.5817990000000  0.5018890000000  0.4933090000000 1.0
C      1  0.4663750000000  0.4678430000000  0.5721570000000 1.0
C      1  0.4370020000000  0.5309120000000  0.4706120000000 1.0
C      1  0.4559250000000  0.5865500000000  0.5544400000000 1.0
C      1  0.5126260000000  0.5727690000000  0.5648110000000 1.0
C      1  0.4854980000000  0.5000910000000  0.5090570000000 1.0
C      1  0.4420310000000  0.5592660000000  0.4592750000000 1.0
C      1  0.5571510000000  0.4244760000000  0.5425520000000 1.0
C      1  0.5380080000000  0.4737290000000  0.5268760000000 1.0
C      1  0.4988640000000  0.4812720000000  0.4906940000000 1.0
C      1  0.4978330000000  0.5048270000000  0.4033000000000 1.0
C      1  0.5388670000000  0.4738740000000  0.4024980000000 1.0
C      1  0.4457910000000  0.4587580000000  0.5532280000000 1.0
C      1  0.5406060000000  0.5083660000000  0.4301960000000 1.0
C      1  0.4758270000000  0.4966830000000  0.5665260000000 1.0
C      1  0.5010000000000  0.4479180000000  0.5379950000000 1.0
C      1  0.4448600000000  0.4313610000000  0.5435100000000 1.0
C      1  0.4834180000000  0.5302240000000  0.4716320000000 1.0
C      1  0.5613540000000  0.4338190000000  0.5160620000000 1.0
C      1  0.4550480000000  0.4278390000000  0.4775260000000 1.0
C      1  0.4516270000000  0.5106740000000  0.5500420000000 1.0
C      1  0.5049310000000  0.5297380000000  0.4499490000000 1.0
C      1  0.5724500000000  0.5396260000000  0.4419620000000 1.0
C      1  0.5185940000000  0.4687940000000  0.5478700000000 1.0
C      1  0.4818830000000  0.5096710000000  0.5935300000000 1.0
C      1  0.5421550000000  0.5811190000000  0.4805860000000 1.0
C      1  0.4058740000000  0.4690920000000  0.4606550000000 1.0
C      1  0.4881410000000  0.5925270000000  0.4774470000000 1.0
C      1  0.5762210000000  0.5557870000000  0.4647460000000 1.0
C      1  0.4702010000000  0.4012140000000  0.5149180000000 1.0
C      1  0.4673870000000  0.5641370000000  0.4428040000000 1.0
C      1  0.4690490000000  0.4143330000000  0.5437250000000 1.0
C      1  0.5917960000000  0.4685320000000  0.5383160000000 1.0
C      1  0.5196000000000  0.5154170000000  0.5397220000000 1.0
C      1  0.5399020000000  0.4236190000000  0.4512740000000 1.0
C      1  0.3980900000000  0.5048850000000  0.4473820000000 1.0
C      1  0.5516920000000  0.5123800000000  0.4988110000000 1.0
C      1  0.5463440000000  0.5370470000000  0.4290780000000 1.0
C      1  0.4885340000000  0.4282140000000  0.4261670000000 1.0
C      1  0.4333270000000  0.4287260000000  0.5178160000000 1.0
C      1  0.5203010000000  0.5599340000000  0.4561690000000 1.0
C      1  0.4952250000000  0.4900980000000  0.6103640000000 1.0
C      1  0.5340850000000  0.4563400000000  0.5721410000000 1.0
C      1  0.5102030000000  0.4382330000000  0.5129660000000 1.0
C      1  0.5198730000000  0.3988610000000  0.4949780000000 1.0
C      1  0.4829110000000  0.4165630000000  0.4685530000000 1.0
C      1  0.6008000000000  0.5079840000000  0.5129790000000 1.0
C      1  0.4471250000000  0.4772950000000  0.4930420000000 1.0
C      1  0.5264640000000  0.6032490000000  0.4961160000000 1.0
C      1  0.5373060000000  0.4506480000000  0.5073500000000 1.0
C      1  0.5221930000000  0.4544480000000  0.4153780000000 1.0
C      1  0.5625860000000  0.4396790000000  0.4579280000000 1.0
END
