TITL C-951347-9520-738 2.54829901332258e-07 125000 -330.658078064889 0 0 55 (C1) n - 1
REM
REM in /home/bkarasulu/work/CARBON/AIRSS/Generating-Clusters/EDIP-Nigel-Params/with-SteepDescent/Only-C1/SD-CG/HFTN-CG
REM
REM
REM
REM
REM
REM ./C.cell (11c1c37f851c82e70ff6c80c92926a4b)
REM
REM compiler GCC version 9.2.1 20190827 (Red Hat 9.2.1-1)
REM options -cpp -mtune=generic -march=x86-64 -g -O0 -fpre-include=/usr/include/finclude/math-vector-fortran.h
REM seed 1466321987 737955781 185682629 554730114 -256658738 1750736189 -1404730259 -731667912 849371983 -2091389189 1866394503 1568154446 -1865284278 194774062 -344301450 1206199751 1367286001 -1728312318 1629555759 -1650280356 1314058106 963833652 919711985 1415373518 2002303853 1686675199 -983625383 -965163834 1175355522 -473942778 -716832023 1693502925 1702031086
REM
CELL 1.54180   50.00000   50.00000   50.00000   90.00000   90.00000   90.00000
LATT -1
SFAC C  
C      1  0.4596860000000  0.4516700000000  0.5207730000000 1.0
C      1  0.5125300000000  0.4815800000000  0.4273000000000 1.0
C      1  0.5519370000000  0.4761560000000  0.4519650000000 1.0
C      1  0.5758560000000  0.4869560000000  0.5123630000000 1.0
C      1  0.4944230000000  0.5329450000000  0.4835590000000 1.0
C      1  0.5182860000000  0.4390650000000  0.5083790000000 1.0
C      1  0.5193440000000  0.4457670000000  0.5356120000000 1.0
C      1  0.5693050000000  0.5108560000000  0.5219620000000 1.0
C      1  0.4930890000000  0.5249640000000  0.4259870000000 1.0
C      1  0.5264520000000  0.5122690000000  0.5726180000000 1.0
C      1  0.4968630000000  0.4508960000000  0.4650110000000 1.0
C      1  0.4439310000000  0.5021190000000  0.4678740000000 1.0
C      1  0.5363420000000  0.4673110000000  0.4304950000000 1.0
C      1  0.4956520000000  0.4415050000000  0.5513810000000 1.0
C      1  0.5208410000000  0.4493780000000  0.4825230000000 1.0
C      1  0.4380940000000  0.4777480000000  0.4835020000000 1.0
C      1  0.5173030000000  0.5107070000000  0.4277530000000 1.0
C      1  0.4969880000000  0.5341370000000  0.5599600000000 1.0
C      1  0.4497050000000  0.5524090000000  0.4822380000000 1.0
C      1  0.4510370000000  0.5290680000000  0.5480740000000 1.0
C      1  0.4892310000000  0.4919670000000  0.4971220000000 1.0
C      1  0.5368620000000  0.5178760000000  0.4486630000000 1.0
C      1  0.5071310000000  0.5097430000000  0.5124610000000 1.0
C      1  0.4731920000000  0.4327890000000  0.5366750000000 1.0
C      1  0.5248820000000  0.4829930000000  0.5703780000000 1.0
C      1  0.4537380000000  0.4983600000000  0.4409200000000 1.0
C      1  0.4667060000000  0.5199910000000  0.4290230000000 1.0
C      1  0.4591160000000  0.5076740000000  0.5674950000000 1.0
C      1  0.4768360000000  0.4896550000000  0.5518200000000 1.0
C      1  0.5607690000000  0.5029810000000  0.4506530000000 1.0
C      1  0.5399880000000  0.5328030000000  0.5551050000000 1.0
C      1  0.5635120000000  0.4682780000000  0.4979690000000 1.0
C      1  0.4917710000000  0.4762140000000  0.4488990000000 1.0
C      1  0.4694030000000  0.5447610000000  0.5644570000000 1.0
C      1  0.4599760000000  0.5245600000000  0.5190980000000 1.0
C      1  0.4914300000000  0.4991910000000  0.4692390000000 1.0
C      1  0.4378330000000  0.5287450000000  0.4751250000000 1.0
C      1  0.5324400000000  0.5425830000000  0.4631340000000 1.0
C      1  0.4590320000000  0.4784700000000  0.5307080000000 1.0
C      1  0.5297090000000  0.4706480000000  0.5448650000000 1.0
C      1  0.5475300000000  0.5486630000000  0.4855660000000 1.0
C      1  0.4866110000000  0.5661620000000  0.5145490000000 1.0
C      1  0.4656040000000  0.4735280000000  0.4359450000000 1.0
C      1  0.5179070000000  0.5548690000000  0.5506290000000 1.0
C      1  0.4611570000000  0.4961610000000  0.5077490000000 1.0
C      1  0.4963410000000  0.4690590000000  0.5656440000000 1.0
C      1  0.4959230000000  0.5103260000000  0.5405840000000 1.0
C      1  0.5140650000000  0.5621670000000  0.5218630000000 1.0
C      1  0.5458680000000  0.5245150000000  0.5276630000000 1.0
C      1  0.5301310000000  0.5405790000000  0.5074380000000 1.0
C      1  0.5447490000000  0.4654300000000  0.4779000000000 1.0
C      1  0.4716620000000  0.5456450000000  0.5002130000000 1.0
C      1  0.4724490000000  0.4410850000000  0.4749440000000 1.0
C      1  0.4526750000000  0.4524300000000  0.4917210000000 1.0
C      1  0.5061030000000  0.5515930000000  0.4644530000000 1.0
END
