TITL C-950528-5794-645 -3.02081679259659e-06 125000 -944.159281510894 0 0 152 (C1) n - 1
REM
REM in /home/bkarasulu/work/CARBON/AIRSS/Generating-Clusters/EDIP-Nigel-Params/with-SteepDescent/Only-C1/SD-CG/HFTN-CG
REM
REM
REM
REM
REM
REM ./C.cell (11c1c37f851c82e70ff6c80c92926a4b)
REM
REM compiler GCC version 9.2.1 20190827 (Red Hat 9.2.1-1)
REM options -cpp -mtune=generic -march=x86-64 -g -O0 -fpre-include=/usr/include/finclude/math-vector-fortran.h
REM seed -757584784 1208683112 -99132903 -764825170 -73592193 251207676 -1676606082 -732799510 -535396266 314486426 -513453175 -1496766733 -1008764434 2001886799 1161161331 1862877811 -97271981 -729433877 -1700515478 -2042293543 -60325341 1052942344 2003089228 -1747128498 983963356 -48231980 1939374594 1868921452 151065496 -1646333104 -1526219338 1684819406 1832325914
REM
CELL 1.54180   50.00000   50.00000   50.00000   90.00000   90.00000   90.00000
LATT -1
SFAC C  
C      1  0.4494320000000  0.6081730000000  0.4783430000000 1.0
C      1  0.4695110000000  0.4388790000000  0.5995560000000 1.0
C      1  0.4666700000000  0.5195650000000  0.5301040000000 1.0
C      1  0.5612630000000  0.4715220000000  0.5104850000000 1.0
C      1  0.5543710000000  0.4431920000000  0.4426270000000 1.0
C      1  0.4750470000000  0.4316400000000  0.4191020000000 1.0
C      1  0.5184910000000  0.4495400000000  0.5083230000000 1.0
C      1  0.4953970000000  0.4816060000000  0.4774540000000 1.0
C      1  0.5359190000000  0.5748070000000  0.5544460000000 1.0
C      1  0.5241470000000  0.5902620000000  0.4265790000000 1.0
C      1  0.4831330000000  0.5387580000000  0.5481380000000 1.0
C      1  0.5404390000000  0.4873170000000  0.6030100000000 1.0
C      1  0.4936990000000  0.5896060000000  0.4926010000000 1.0
C      1  0.4416870000000  0.4711150000000  0.4131600000000 1.0
C      1  0.4256590000000  0.5711900000000  0.4716000000000 1.0
C      1  0.5534620000000  0.4162640000000  0.5615310000000 1.0
C      1  0.4265250000000  0.5934020000000  0.4900640000000 1.0
C      1  0.4508400000000  0.5918220000000  0.5196480000000 1.0
C      1  0.4624690000000  0.5427780000000  0.4860840000000 1.0
C      1  0.4943220000000  0.4483550000000  0.4032080000000 1.0
C      1  0.5749410000000  0.4545610000000  0.4273610000000 1.0
C      1  0.4555300000000  0.5291990000000  0.4592770000000 1.0
C      1  0.6006520000000  0.5549730000000  0.5246520000000 1.0
C      1  0.5992450000000  0.5410510000000  0.4993120000000 1.0
C      1  0.4987400000000  0.5697310000000  0.5814270000000 1.0
C      1  0.5882450000000  0.4294420000000  0.5341210000000 1.0
C      1  0.4986530000000  0.4969750000000  0.3993820000000 1.0
C      1  0.4853520000000  0.5610760000000  0.4288940000000 1.0
C      1  0.5462050000000  0.5121680000000  0.5163010000000 1.0
C      1  0.4934380000000  0.4139250000000  0.5247030000000 1.0
C      1  0.4889240000000  0.5770100000000  0.5534600000000 1.0
C      1  0.4809620000000  0.4629950000000  0.5897410000000 1.0
C      1  0.5601070000000  0.5479140000000  0.5882240000000 1.0
C      1  0.4445950000000  0.4593910000000  0.4858010000000 1.0
C      1  0.4180830000000  0.5318730000000  0.4493650000000 1.0
C      1  0.4330830000000  0.4311460000000  0.4439520000000 1.0
C      1  0.4626930000000  0.4858980000000  0.5919980000000 1.0
C      1  0.5427130000000  0.5905800000000  0.4956360000000 1.0
C      1  0.5959260000000  0.5089700000000  0.5015200000000 1.0
C      1  0.4452380000000  0.4413360000000  0.4180350000000 1.0
C      1  0.4457280000000  0.4863060000000  0.4718360000000 1.0
C      1  0.4664390000000  0.4947910000000  0.5491740000000 1.0
C      1  0.4798550000000  0.5551220000000  0.5955300000000 1.0
C      1  0.4197090000000  0.5392120000000  0.5253830000000 1.0
C      1  0.5183980000000  0.4069330000000  0.4573830000000 1.0
C      1  0.5416360000000  0.4595990000000  0.4908970000000 1.0
C      1  0.4364800000000  0.5561530000000  0.5478900000000 1.0
C      1  0.4452870000000  0.5298700000000  0.5081930000000 1.0
C      1  0.4079330000000  0.4877490000000  0.4619650000000 1.0
C      1  0.4560470000000  0.5220630000000  0.4158280000000 1.0
C      1  0.5774880000000  0.5502140000000  0.4550980000000 1.0
C      1  0.4858010000000  0.4814810000000  0.5050280000000 1.0
C      1  0.5927860000000  0.4754030000000  0.5586420000000 1.0
C      1  0.5396350000000  0.3939320000000  0.4939220000000 1.0
C      1  0.5698380000000  0.5029450000000  0.4344790000000 1.0
C      1  0.5079330000000  0.3927530000000  0.4821300000000 1.0
C      1  0.4982820000000  0.4884900000000  0.5486400000000 1.0
C      1  0.5470890000000  0.4076380000000  0.4682750000000 1.0
C      1  0.5662720000000  0.4121200000000  0.5367590000000 1.0
C      1  0.5392170000000  0.5043220000000  0.4270190000000 1.0
C      1  0.4071470000000  0.4395910000000  0.4483840000000 1.0
C      1  0.4204300000000  0.4885200000000  0.5292510000000 1.0
C      1  0.5240900000000  0.4455880000000  0.4066740000000 1.0
C      1  0.5786530000000  0.5543040000000  0.4832400000000 1.0
C      1  0.4331010000000  0.4457520000000  0.5459580000000 1.0
C      1  0.5787820000000  0.5178640000000  0.5242860000000 1.0
C      1  0.5618600000000  0.5761890000000  0.5442340000000 1.0
C      1  0.4062090000000  0.5031510000000  0.4893550000000 1.0
C      1  0.5353850000000  0.5113890000000  0.4864810000000 1.0
C      1  0.4888000000000  0.4128430000000  0.4950840000000 1.0
C      1  0.4458370000000  0.4727910000000  0.5356420000000 1.0
C      1  0.5410540000000  0.5083190000000  0.5828530000000 1.0
C      1  0.5500600000000  0.4646310000000  0.5880310000000 1.0
C      1  0.5200870000000  0.5282300000000  0.5758730000000 1.0
C      1  0.5363550000000  0.4680310000000  0.3939300000000 1.0
C      1  0.4565670000000  0.5988440000000  0.4521590000000 1.0
C      1  0.5216390000000  0.5516860000000  0.4564860000000 1.0
C      1  0.4146400000000  0.4553090000000  0.4954770000000 1.0
C      1  0.4388320000000  0.4156890000000  0.5060490000000 1.0
C      1  0.5001720000000  0.4390110000000  0.4871010000000 1.0
C      1  0.4849380000000  0.5097800000000  0.5100620000000 1.0
C      1  0.5461370000000  0.4798500000000  0.5385810000000 1.0
C      1  0.4416250000000  0.5380550000000  0.5705710000000 1.0
C      1  0.5090290000000  0.5221930000000  0.5496730000000 1.0
C      1  0.5575030000000  0.5223810000000  0.6022530000000 1.0
C      1  0.5816070000000  0.5568880000000  0.5450650000000 1.0
C      1  0.4589000000000  0.5747150000000  0.5409900000000 1.0
C      1  0.5790060000000  0.4872720000000  0.4916730000000 1.0
C      1  0.5054190000000  0.5764940000000  0.4453920000000 1.0
C      1  0.5077320000000  0.4357320000000  0.4574790000000 1.0
C      1  0.4034470000000  0.4804080000000  0.5082340000000 1.0
C      1  0.5758530000000  0.5358680000000  0.5645110000000 1.0
C      1  0.4735100000000  0.4340370000000  0.5317580000000 1.0
C      1  0.4687180000000  0.6026570000000  0.5001130000000 1.0
C      1  0.4006930000000  0.4580880000000  0.4675480000000 1.0
C      1  0.5310340000000  0.4317890000000  0.5555950000000 1.0
C      1  0.4734820000000  0.4927780000000  0.4596070000000 1.0
C      1  0.5826110000000  0.4772030000000  0.4421770000000 1.0
C      1  0.5970020000000  0.4541870000000  0.5407730000000 1.0
C      1  0.4429180000000  0.4404510000000  0.5930130000000 1.0
C      1  0.5861000000000  0.4417060000000  0.4760870000000 1.0
C      1  0.5294970000000  0.4952370000000  0.3991120000000 1.0
C      1  0.4948770000000  0.4751190000000  0.4185050000000 1.0
C      1  0.4622300000000  0.4621500000000  0.5112780000000 1.0
C      1  0.4853340000000  0.5188740000000  0.4123810000000 1.0
C      1  0.4720330000000  0.4726930000000  0.4369780000000 1.0
C      1  0.5949730000000  0.5049040000000  0.5510630000000 1.0
C      1  0.4870300000000  0.5241070000000  0.4845900000000 1.0
C      1  0.4291650000000  0.5119180000000  0.5660150000000 1.0
C      1  0.4354510000000  0.5063160000000  0.4915080000000 1.0
C      1  0.5282740000000  0.5353920000000  0.4301800000000 1.0
C      1  0.4362440000000  0.4847660000000  0.5791790000000 1.0
C      1  0.4007070000000  0.5334000000000  0.4965070000000 1.0
C      1  0.5216200000000  0.4258010000000  0.5278090000000 1.0
C      1  0.5021280000000  0.5412710000000  0.4157480000000 1.0
C      1  0.5342640000000  0.6013030000000  0.4695230000000 1.0
C      1  0.5323880000000  0.4601970000000  0.5638890000000 1.0
C      1  0.5043530000000  0.4699190000000  0.5710550000000 1.0
C      1  0.4152370000000  0.5054970000000  0.4388550000000 1.0
C      1  0.5288660000000  0.5579690000000  0.5794660000000 1.0
C      1  0.5554440000000  0.5618060000000  0.4407340000000 1.0
C      1  0.4703540000000  0.5357930000000  0.5760300000000 1.0
C      1  0.4085110000000  0.5477260000000  0.4715770000000 1.0
C      1  0.4574500000000  0.5506540000000  0.4351830000000 1.0
C      1  0.4781810000000  0.4428580000000  0.4477950000000 1.0
C      1  0.4391300000000  0.4985830000000  0.4235980000000 1.0
C      1  0.5137940000000  0.5854930000000  0.5386820000000 1.0
C      1  0.5451200000000  0.4128880000000  0.5158580000000 1.0
C      1  0.5576970000000  0.4371650000000  0.4710690000000 1.0
C      1  0.5256850000000  0.4846990000000  0.4747000000000 1.0
C      1  0.5763960000000  0.4691790000000  0.5802060000000 1.0
C      1  0.5040300000000  0.5981150000000  0.4671310000000 1.0
C      1  0.5058370000000  0.4729100000000  0.5227910000000 1.0
C      1  0.5159860000000  0.5345990000000  0.4825130000000 1.0
C      1  0.5896170000000  0.4698580000000  0.4704710000000 1.0
C      1  0.5276480000000  0.4516250000000  0.4368990000000 1.0
C      1  0.4271370000000  0.4560020000000  0.5752520000000 1.0
C      1  0.5473950000000  0.5907870000000  0.4434820000000 1.0
C      1  0.5171180000000  0.5798690000000  0.5093160000000 1.0
C      1  0.4544820000000  0.4264840000000  0.5506870000000 1.0
C      1  0.4537150000000  0.4354880000000  0.4663980000000 1.0
C      1  0.5244820000000  0.4821910000000  0.4437370000000 1.0
C      1  0.4132990000000  0.5138170000000  0.5419700000000 1.0
C      1  0.4589510000000  0.4130010000000  0.4861940000000 1.0
C      1  0.4421690000000  0.5750170000000  0.4478330000000 1.0
C      1  0.5670750000000  0.5770300000000  0.4940550000000 1.0
C      1  0.4207630000000  0.4341410000000  0.5179060000000 1.0
C      1  0.5824360000000  0.5252230000000  0.4451220000000 1.0
C      1  0.5176400000000  0.5498550000000  0.5076480000000 1.0
C      1  0.5286110000000  0.5325850000000  0.5288440000000 1.0
C      1  0.5573390000000  0.5016920000000  0.5578680000000 1.0
C      1  0.4772160000000  0.5086660000000  0.5838110000000 1.0
END
