TITL C-950525-1983-267 1.19851126835633e-06 125000 -1220.51298325145 0 0 195 (C1) n - 1
REM
REM in /home/bkarasulu/work/CARBON/AIRSS/Generating-Clusters/EDIP-Nigel-Params/with-SteepDescent/Only-C1/SD-CG/HFTN-CG
REM
REM
REM
REM
REM
REM ./C.cell (11c1c37f851c82e70ff6c80c92926a4b)
REM
REM compiler GCC version 9.2.1 20190827 (Red Hat 9.2.1-1)
REM options -cpp -mtune=generic -march=x86-64 -g -O0 -fpre-include=/usr/include/finclude/math-vector-fortran.h
REM seed 563317714 -1887804575 1647135937 837192632 -585107208 1862409744 2036023475 170197730 600679917 1284162872 326268593 -1833773112 -655724555 -2094814453 -1191105090 -1585504167 -543347473 2078020058 -1137566424 1818863964 -536120086 -2130666730 1371684111 825225602 -426017884 -2081608990 -198190991 -963678495 939641400 976789189 -1438000451 1534176903 1202929778
REM
CELL 1.54180   50.00000   50.00000   50.00000   90.00000   90.00000   90.00000
LATT -1
SFAC C  
C      1  0.5594040000000  0.4111380000000  0.4854520000000 1.0
C      1  0.4556100000000  0.3944840000000  0.4654010000000 1.0
C      1  0.5100630000000  0.4932250000000  0.4737750000000 1.0
C      1  0.4900110000000  0.5468030000000  0.3973650000000 1.0
C      1  0.4356830000000  0.5251490000000  0.5832020000000 1.0
C      1  0.4175810000000  0.4979670000000  0.5180010000000 1.0
C      1  0.4283570000000  0.4038590000000  0.5162920000000 1.0
C      1  0.4144200000000  0.5121750000000  0.5672100000000 1.0
C      1  0.4928230000000  0.5948740000000  0.4685670000000 1.0
C      1  0.3824970000000  0.4759550000000  0.5094860000000 1.0
C      1  0.3923590000000  0.4810600000000  0.4804960000000 1.0
C      1  0.4567360000000  0.5052320000000  0.5866630000000 1.0
C      1  0.6114100000000  0.4936950000000  0.4645000000000 1.0
C      1  0.6147340000000  0.5357200000000  0.4931170000000 1.0
C      1  0.3973300000000  0.5285290000000  0.4526980000000 1.0
C      1  0.6069190000000  0.4642670000000  0.4660180000000 1.0
C      1  0.4419340000000  0.5120520000000  0.4462930000000 1.0
C      1  0.5957070000000  0.4411690000000  0.5118260000000 1.0
C      1  0.5984190000000  0.5036020000000  0.4388680000000 1.0
C      1  0.3994730000000  0.5472790000000  0.5173050000000 1.0
C      1  0.5551140000000  0.5210270000000  0.5838860000000 1.0
C      1  0.5552340000000  0.5025440000000  0.6074120000000 1.0
C      1  0.4418140000000  0.4575320000000  0.4938290000000 1.0
C      1  0.4923550000000  0.5433520000000  0.5586320000000 1.0
C      1  0.4484750000000  0.5350160000000  0.5381620000000 1.0
C      1  0.4812300000000  0.5693810000000  0.4803470000000 1.0
C      1  0.5667970000000  0.4785510000000  0.5088770000000 1.0
C      1  0.5657620000000  0.5658070000000  0.5703740000000 1.0
C      1  0.5516230000000  0.5291160000000  0.3893800000000 1.0
C      1  0.5748440000000  0.5212000000000  0.5387200000000 1.0
C      1  0.5657150000000  0.5843760000000  0.4984440000000 1.0
C      1  0.5711420000000  0.5848730000000  0.5270290000000 1.0
C      1  0.5201890000000  0.6017870000000  0.4815600000000 1.0
C      1  0.4255660000000  0.5647790000000  0.4285430000000 1.0
C      1  0.3924350000000  0.5288920000000  0.5628050000000 1.0
C      1  0.4515540000000  0.3853530000000  0.5131480000000 1.0
C      1  0.5277280000000  0.5924420000000  0.5871060000000 1.0
C      1  0.4709280000000  0.5618580000000  0.5734440000000 1.0
C      1  0.5163040000000  0.4698520000000  0.5129060000000 1.0
C      1  0.4431460000000  0.5866440000000  0.4383870000000 1.0
C      1  0.4799840000000  0.5636430000000  0.6012460000000 1.0
C      1  0.4699110000000  0.5797540000000  0.4286400000000 1.0
C      1  0.5352450000000  0.5103180000000  0.5622290000000 1.0
C      1  0.5867370000000  0.5307100000000  0.4349690000000 1.0
C      1  0.4755120000000  0.4452990000000  0.5962450000000 1.0
C      1  0.5232590000000  0.4643210000000  0.3899660000000 1.0
C      1  0.5057190000000  0.5542840000000  0.6082090000000 1.0
C      1  0.4452930000000  0.4796860000000  0.5415050000000 1.0
C      1  0.5632380000000  0.4753700000000  0.5968450000000 1.0
C      1  0.5457650000000  0.5531130000000  0.4878680000000 1.0
C      1  0.4375210000000  0.5925450000000  0.4665410000000 1.0
C      1  0.5401110000000  0.5508070000000  0.4560430000000 1.0
C      1  0.5011430000000  0.3851720000000  0.5215730000000 1.0
C      1  0.6150520000000  0.5234960000000  0.5217130000000 1.0
C      1  0.5190180000000  0.4935390000000  0.3947520000000 1.0
C      1  0.4646740000000  0.5201110000000  0.4037040000000 1.0
C      1  0.4790980000000  0.4259690000000  0.5163060000000 1.0
C      1  0.4977750000000  0.4258590000000  0.4925980000000 1.0
C      1  0.5528830000000  0.4172230000000  0.4581900000000 1.0
C      1  0.4378100000000  0.4461810000000  0.4250030000000 1.0
C      1  0.4169580000000  0.5525050000000  0.4559710000000 1.0
C      1  0.4612390000000  0.4328740000000  0.4138210000000 1.0
C      1  0.5818520000000  0.4813760000000  0.4287040000000 1.0
C      1  0.5275330000000  0.5928870000000  0.5589860000000 1.0
C      1  0.4805090000000  0.4816730000000  0.4803490000000 1.0
C      1  0.5830160000000  0.4778600000000  0.5768650000000 1.0
C      1  0.5354860000000  0.5527240000000  0.5359040000000 1.0
C      1  0.5394240000000  0.3948320000000  0.4977240000000 1.0
C      1  0.5900670000000  0.5620920000000  0.4572040000000 1.0
C      1  0.5804420000000  0.4170740000000  0.5060970000000 1.0
C      1  0.4197400000000  0.5683150000000  0.5562680000000 1.0
C      1  0.3865290000000  0.5244530000000  0.5029660000000 1.0
C      1  0.4187820000000  0.4145030000000  0.4901400000000 1.0
C      1  0.4367950000000  0.4165280000000  0.4675960000000 1.0
C      1  0.4751360000000  0.3982140000000  0.5273410000000 1.0
C      1  0.4359560000000  0.4616990000000  0.5644610000000 1.0
C      1  0.5389910000000  0.4892250000000  0.5073540000000 1.0
C      1  0.5512050000000  0.4343360000000  0.4169760000000 1.0
C      1  0.6003900000000  0.5077810000000  0.4893170000000 1.0
C      1  0.5451720000000  0.5252920000000  0.5365120000000 1.0
C      1  0.4706730000000  0.3984650000000  0.5559700000000 1.0
C      1  0.4718800000000  0.5727140000000  0.5092540000000 1.0
C      1  0.4169410000000  0.5748490000000  0.4780700000000 1.0
C      1  0.4470980000000  0.5507820000000  0.5105840000000 1.0
C      1  0.4921610000000  0.4744620000000  0.5546890000000 1.0
C      1  0.4761720000000  0.4521560000000  0.3977370000000 1.0
C      1  0.5198740000000  0.5739370000000  0.4322570000000 1.0
C      1  0.5878780000000  0.4956570000000  0.5284770000000 1.0
C      1  0.5073110000000  0.5246290000000  0.6069950000000 1.0
C      1  0.5612900000000  0.5076770000000  0.4628580000000 1.0
C      1  0.5426850000000  0.5543350000000  0.3963930000000 1.0
C      1  0.5936870000000  0.4751150000000  0.5510420000000 1.0
C      1  0.3939800000000  0.5116190000000  0.4771960000000 1.0
C      1  0.4400340000000  0.5354440000000  0.4627720000000 1.0
C      1  0.3983190000000  0.4613780000000  0.5290890000000 1.0
C      1  0.4840280000000  0.5104420000000  0.5192280000000 1.0
C      1  0.5308020000000  0.4687880000000  0.4667680000000 1.0
C      1  0.5967390000000  0.5406640000000  0.5385180000000 1.0
C      1  0.4614110000000  0.4810870000000  0.4024060000000 1.0
C      1  0.5265000000000  0.4117870000000  0.4472090000000 1.0
C      1  0.4335640000000  0.4723710000000  0.4130040000000 1.0
C      1  0.5451460000000  0.3947230000000  0.5262860000000 1.0
C      1  0.5894670000000  0.5502860000000  0.4834190000000 1.0
C      1  0.5229800000000  0.4265320000000  0.4213090000000 1.0
C      1  0.6094990000000  0.4541250000000  0.4917100000000 1.0
C      1  0.5676470000000  0.5541200000000  0.4394950000000 1.0
C      1  0.4165880000000  0.4875510000000  0.4306830000000 1.0
C      1  0.5612630000000  0.5701060000000  0.4137790000000 1.0
C      1  0.4574210000000  0.5910850000000  0.5323040000000 1.0
C      1  0.4919910000000  0.4916470000000  0.5788230000000 1.0
C      1  0.4428180000000  0.5492200000000  0.5650450000000 1.0
C      1  0.4866810000000  0.4679460000000  0.5069390000000 1.0
C      1  0.5086060000000  0.4887010000000  0.4244220000000 1.0
C      1  0.4356470000000  0.4271110000000  0.5353350000000 1.0
C      1  0.5221190000000  0.4345550000000  0.5412370000000 1.0
C      1  0.4786800000000  0.4855230000000  0.4268860000000 1.0
C      1  0.5501360000000  0.4587210000000  0.4010630000000 1.0
C      1  0.5531190000000  0.5506090000000  0.5903420000000 1.0
C      1  0.4835640000000  0.5147380000000  0.6201830000000 1.0
C      1  0.4556960000000  0.3767360000000  0.4868160000000 1.0
C      1  0.4083170000000  0.4411530000000  0.4915500000000 1.0
C      1  0.5024260000000  0.5797590000000  0.5480910000000 1.0
C      1  0.4378450000000  0.4872110000000  0.4988960000000 1.0
C      1  0.5722200000000  0.4059900000000  0.5322750000000 1.0
C      1  0.5263510000000  0.5014800000000  0.6154470000000 1.0
C      1  0.4617730000000  0.5045610000000  0.4943910000000 1.0
C      1  0.5168540000000  0.4640120000000  0.5431300000000 1.0
C      1  0.4413800000000  0.5495700000000  0.4076480000000 1.0
C      1  0.5301250000000  0.4676940000000  0.4344260000000 1.0
C      1  0.5228800000000  0.4449500000000  0.4955260000000 1.0
C      1  0.4154950000000  0.4469970000000  0.5467650000000 1.0
C      1  0.4672200000000  0.5631770000000  0.4051650000000 1.0
C      1  0.5139800000000  0.4798210000000  0.5989770000000 1.0
C      1  0.5372860000000  0.5177180000000  0.5078450000000 1.0
C      1  0.5398250000000  0.4771610000000  0.5573060000000 1.0
C      1  0.4573840000000  0.4425560000000  0.5730300000000 1.0
C      1  0.4880030000000  0.6248710000000  0.5044760000000 1.0
C      1  0.5487060000000  0.5961940000000  0.4780880000000 1.0
C      1  0.4728700000000  0.4692980000000  0.6108010000000 1.0
C      1  0.5949640000000  0.4460250000000  0.5418830000000 1.0
C      1  0.3793790000000  0.5027690000000  0.5203340000000 1.0
C      1  0.5682910000000  0.4350560000000  0.4417060000000 1.0
C      1  0.4914260000000  0.5423210000000  0.4740780000000 1.0
C      1  0.5370090000000  0.4205190000000  0.5621900000000 1.0
C      1  0.4277560000000  0.5849250000000  0.5324820000000 1.0
C      1  0.5929540000000  0.5682580000000  0.5333670000000 1.0
C      1  0.5013260000000  0.4336290000000  0.5945280000000 1.0
C      1  0.5725170000000  0.5233400000000  0.4855700000000 1.0
C      1  0.5052490000000  0.4471850000000  0.4052200000000 1.0
C      1  0.4741990000000  0.5884310000000  0.5576740000000 1.0
C      1  0.4553280000000  0.4449640000000  0.5194260000000 1.0
C      1  0.5539610000000  0.4902980000000  0.4230650000000 1.0
C      1  0.5470790000000  0.5025180000000  0.3956080000000 1.0
C      1  0.4203930000000  0.5662220000000  0.5077000000000 1.0
C      1  0.4764190000000  0.6177600000000  0.4796870000000 1.0
C      1  0.4631110000000  0.4573580000000  0.4712250000000 1.0
C      1  0.5388640000000  0.5217960000000  0.4496830000000 1.0
C      1  0.5368880000000  0.4653290000000  0.5856710000000 1.0
C      1  0.4644260000000  0.4960360000000  0.6123650000000 1.0
C      1  0.4274040000000  0.4397990000000  0.4516290000000 1.0
C      1  0.5287000000000  0.4356320000000  0.5869140000000 1.0
C      1  0.5025160000000  0.5800690000000  0.5180660000000 1.0
C      1  0.4686470000000  0.5127390000000  0.4329680000000 1.0
C      1  0.4765530000000  0.5308230000000  0.5378320000000 1.0
C      1  0.4511130000000  0.4178190000000  0.5594260000000 1.0
C      1  0.4070400000000  0.4568760000000  0.4670120000000 1.0
C      1  0.4804980000000  0.4216740000000  0.4318320000000 1.0
C      1  0.5412020000000  0.4334190000000  0.5183230000000 1.0
C      1  0.5447610000000  0.5905240000000  0.4276840000000 1.0
C      1  0.5226290000000  0.5587050000000  0.5101330000000 1.0
C      1  0.5739380000000  0.4260280000000  0.5536990000000 1.0
C      1  0.4951280000000  0.5901040000000  0.4391490000000 1.0
C      1  0.4487910000000  0.6151480000000  0.4783140000000 1.0
C      1  0.5066340000000  0.5191090000000  0.5746540000000 1.0
C      1  0.4907500000000  0.5288410000000  0.4477970000000 1.0
C      1  0.5125010000000  0.5091420000000  0.4478480000000 1.0
C      1  0.5074670000000  0.5190800000000  0.4980270000000 1.0
C      1  0.4508460000000  0.5315640000000  0.4885670000000 1.0
C      1  0.5099180000000  0.3958740000000  0.4922070000000 1.0
C      1  0.5275050000000  0.5648890000000  0.5931950000000 1.0
C      1  0.5072140000000  0.3939780000000  0.4610610000000 1.0
C      1  0.4073230000000  0.5140700000000  0.4292800000000 1.0
C      1  0.5101520000000  0.6075680000000  0.5082720000000 1.0
C      1  0.5798930000000  0.4623790000000  0.4518450000000 1.0
C      1  0.4316860000000  0.5081290000000  0.5423560000000 1.0
C      1  0.5503550000000  0.5757220000000  0.5478010000000 1.0
C      1  0.5158580000000  0.5567640000000  0.4080510000000 1.0
C      1  0.3970660000000  0.5512620000000  0.5464490000000 1.0
C      1  0.5567990000000  0.5981700000000  0.4515840000000 1.0
C      1  0.5212790000000  0.3905430000000  0.5431200000000 1.0
C      1  0.4800300000000  0.3974700000000  0.4486020000000 1.0
C      1  0.5589810000000  0.4571620000000  0.5305360000000 1.0
C      1  0.5599220000000  0.4778310000000  0.4708930000000 1.0
C      1  0.4755310000000  0.4821070000000  0.5325330000000 1.0
C      1  0.4784000000000  0.4314200000000  0.4682270000000 1.0
END
