TITL C-951343-2256-171 -1.84300697292435e-06 125000 -655.287988360223 0 0 106 (C1) n - 1
REM
REM in /home/bkarasulu/work/CARBON/AIRSS/Generating-Clusters/EDIP-Nigel-Params/with-SteepDescent/Only-C1/SD-CG/HFTN-CG
REM
REM
REM
REM
REM
REM ./C.cell (11c1c37f851c82e70ff6c80c92926a4b)
REM
REM compiler GCC version 9.2.1 20190827 (Red Hat 9.2.1-1)
REM options -cpp -mtune=generic -march=x86-64 -g -O0 -fpre-include=/usr/include/finclude/math-vector-fortran.h
REM seed 1110548551 187019398 490270435 1660977377 -249060072 2121438094 -1748311112 -1177965775 -521394784 -107121292 -1614336901 -527924936 1618943232 1132097640 1990215762 1354787742 -53710469 254562709 -1408475190 1981687926 1950486631 -101482136 -984288041 -872112574 1676514989 -1700170217 -180861805 -299293970 -285456779 280340797 1259917662 1709068590 -1337126697
REM
CELL 1.54180   50.00000   50.00000   50.00000   90.00000   90.00000   90.00000
LATT -1
SFAC C  
C      1  0.4978700000000  0.5232070000000  0.4209650000000 1.0
C      1  0.4592610000000  0.5329600000000  0.4889220000000 1.0
C      1  0.4275760000000  0.4403090000000  0.4984020000000 1.0
C      1  0.4936230000000  0.4226630000000  0.4653450000000 1.0
C      1  0.5424420000000  0.5345370000000  0.4491720000000 1.0
C      1  0.4806510000000  0.4992610000000  0.5423000000000 1.0
C      1  0.5225600000000  0.4191870000000  0.4672010000000 1.0
C      1  0.4993920000000  0.5911110000000  0.5217860000000 1.0
C      1  0.4526770000000  0.5856980000000  0.5003600000000 1.0
C      1  0.5599940000000  0.4728170000000  0.4285690000000 1.0
C      1  0.5403730000000  0.5892670000000  0.4922620000000 1.0
C      1  0.4821010000000  0.5267210000000  0.4456470000000 1.0
C      1  0.5554280000000  0.4454860000000  0.4338430000000 1.0
C      1  0.4246000000000  0.4738660000000  0.5328610000000 1.0
C      1  0.4468600000000  0.4648670000000  0.4665360000000 1.0
C      1  0.4467870000000  0.5488420000000  0.4664200000000 1.0
C      1  0.4199220000000  0.5231420000000  0.5146290000000 1.0
C      1  0.4893330000000  0.5697620000000  0.5394530000000 1.0
C      1  0.4152650000000  0.4646120000000  0.5064210000000 1.0
C      1  0.5301230000000  0.4898760000000  0.4641700000000 1.0
C      1  0.5648720000000  0.4985650000000  0.5167390000000 1.0
C      1  0.4745340000000  0.5273080000000  0.5388510000000 1.0
C      1  0.5813460000000  0.4816730000000  0.4748860000000 1.0
C      1  0.5047450000000  0.4497880000000  0.4241250000000 1.0
C      1  0.5677340000000  0.5182330000000  0.5368910000000 1.0
C      1  0.4244590000000  0.5281330000000  0.4621550000000 1.0
C      1  0.4763810000000  0.4145820000000  0.5159430000000 1.0
C      1  0.4861780000000  0.4354400000000  0.4402570000000 1.0
C      1  0.4953090000000  0.4959970000000  0.5900760000000 1.0
C      1  0.5046340000000  0.5209940000000  0.5792790000000 1.0
C      1  0.4883990000000  0.5695160000000  0.4363460000000 1.0
C      1  0.4231270000000  0.5505280000000  0.5187830000000 1.0
C      1  0.5676970000000  0.5189610000000  0.4494870000000 1.0
C      1  0.5327900000000  0.5278110000000  0.5734940000000 1.0
C      1  0.5603150000000  0.4893810000000  0.4540140000000 1.0
C      1  0.5374770000000  0.4296440000000  0.5014170000000 1.0
C      1  0.4473770000000  0.4554030000000  0.5412010000000 1.0
C      1  0.5240800000000  0.4801700000000  0.4921620000000 1.0
C      1  0.5240830000000  0.4743270000000  0.5364760000000 1.0
C      1  0.5379630000000  0.5271760000000  0.4961420000000 1.0
C      1  0.5514900000000  0.5082020000000  0.5602530000000 1.0
C      1  0.5033910000000  0.5653340000000  0.5662690000000 1.0
C      1  0.5448320000000  0.4367820000000  0.4582860000000 1.0
C      1  0.5115820000000  0.4513040000000  0.4934700000000 1.0
C      1  0.5640610000000  0.4520610000000  0.5427570000000 1.0
C      1  0.4637820000000  0.4910010000000  0.4140850000000 1.0
C      1  0.4604990000000  0.5404230000000  0.5611950000000 1.0
C      1  0.4746950000000  0.4843880000000  0.5714910000000 1.0
C      1  0.5627000000000  0.5431470000000  0.4925790000000 1.0
C      1  0.5318680000000  0.5767210000000  0.4564080000000 1.0
C      1  0.5317450000000  0.5558950000000  0.5629020000000 1.0
C      1  0.4748550000000  0.5002260000000  0.4924640000000 1.0
C      1  0.5088600000000  0.4447340000000  0.5656440000000 1.0
C      1  0.5265630000000  0.5202850000000  0.4696940000000 1.0
C      1  0.4350030000000  0.4663690000000  0.4406940000000 1.0
C      1  0.5197080000000  0.4246040000000  0.5461760000000 1.0
C      1  0.4855690000000  0.5430310000000  0.4929540000000 1.0
C      1  0.5442010000000  0.4787910000000  0.5137180000000 1.0
C      1  0.4665180000000  0.5514210000000  0.4425430000000 1.0
C      1  0.5418150000000  0.5133420000000  0.4075250000000 1.0
C      1  0.4936780000000  0.5434280000000  0.5220290000000 1.0
C      1  0.5116690000000  0.4772020000000  0.4190580000000 1.0
C      1  0.5775400000000  0.4585580000000  0.4928030000000 1.0
C      1  0.4395080000000  0.5151600000000  0.5627190000000 1.0
C      1  0.4624890000000  0.4273000000000  0.5633090000000 1.0
C      1  0.4994540000000  0.4516260000000  0.5230390000000 1.0
C      1  0.5956890000000  0.5037410000000  0.4851130000000 1.0
C      1  0.4590980000000  0.5683390000000  0.5462760000000 1.0
C      1  0.5599030000000  0.4373390000000  0.4831730000000 1.0
C      1  0.5282000000000  0.4621860000000  0.5789650000000 1.0
C      1  0.4985360000000  0.4657370000000  0.4593230000000 1.0
C      1  0.4989970000000  0.5298020000000  0.4699050000000 1.0
C      1  0.4484910000000  0.4940690000000  0.5790490000000 1.0
C      1  0.4386250000000  0.4899010000000  0.4263080000000 1.0
C      1  0.4788500000000  0.5966960000000  0.5030030000000 1.0
C      1  0.4420460000000  0.5707000000000  0.5229580000000 1.0
C      1  0.4636640000000  0.4893060000000  0.5191800000000 1.0
C      1  0.4800800000000  0.4500610000000  0.5702250000000 1.0
C      1  0.5160880000000  0.4790720000000  0.5971310000000 1.0
C      1  0.5386810000000  0.5575360000000  0.5334320000000 1.0
C      1  0.5088140000000  0.4998610000000  0.5325530000000 1.0
C      1  0.5038940000000  0.4997360000000  0.5023290000000 1.0
C      1  0.5167580000000  0.5666190000000  0.4335450000000 1.0
C      1  0.4132530000000  0.4850620000000  0.4869840000000 1.0
C      1  0.4697690000000  0.4610190000000  0.5221710000000 1.0
C      1  0.5272660000000  0.5345330000000  0.4222550000000 1.0
C      1  0.5820320000000  0.5262330000000  0.4746550000000 1.0
C      1  0.4862130000000  0.5435650000000  0.5786790000000 1.0
C      1  0.4198960000000  0.5123950000000  0.4872810000000 1.0
C      1  0.5452640000000  0.4308570000000  0.5320010000000 1.0
C      1  0.5823340000000  0.4588470000000  0.5213780000000 1.0
C      1  0.4312390000000  0.5041040000000  0.5351840000000 1.0
C      1  0.4912920000000  0.4963160000000  0.4108400000000 1.0
C      1  0.5016760000000  0.4109930000000  0.5281590000000 1.0
C      1  0.4278070000000  0.5125530000000  0.4388960000000 1.0
C      1  0.5230160000000  0.5337130000000  0.5224970000000 1.0
C      1  0.4482870000000  0.4374940000000  0.4794950000000 1.0
C      1  0.4411530000000  0.5757090000000  0.4765650000000 1.0
C      1  0.4559550000000  0.4181070000000  0.5365020000000 1.0
C      1  0.5522610000000  0.5681460000000  0.4764590000000 1.0
C      1  0.5460620000000  0.4749620000000  0.5587780000000 1.0
C      1  0.5389680000000  0.4853300000000  0.4118800000000 1.0
C      1  0.5659640000000  0.5463830000000  0.5247290000000 1.0
C      1  0.4729050000000  0.4802580000000  0.4685800000000 1.0
C      1  0.4748780000000  0.4273330000000  0.4884770000000 1.0
C      1  0.5276790000000  0.5822320000000  0.5170360000000 1.0
END
