TITL C-951347-9520-308 6.91262266964979e-07 125000 -422.389908079913 0 0 70 (C1) n - 1
REM
REM in /home/bkarasulu/work/CARBON/AIRSS/Generating-Clusters/EDIP-Nigel-Params/with-SteepDescent/Only-C1/SD-CG/HFTN-CG
REM
REM
REM
REM
REM
REM ./C.cell (11c1c37f851c82e70ff6c80c92926a4b)
REM
REM compiler GCC version 9.2.1 20190827 (Red Hat 9.2.1-1)
REM options -cpp -mtune=generic -march=x86-64 -g -O0 -fpre-include=/usr/include/finclude/math-vector-fortran.h
REM seed -523956368 -1595795020 514102643 1907974775 -1102134548 1542768276 941377335 1790735949 1710561408 453153445 -1333059834 81251280 -36764082 569126600 1499371153 -278205063 -202472583 -1976975707 -1030419819 1367397311 918599251 -396652221 -562605901 -451710014 -1269790184 -1075525246 -1161952550 -1429165781 -1537483630 978524969 -1118060980 145000131 -173815181
REM
CELL 1.54180   50.00000   50.00000   50.00000   90.00000   90.00000   90.00000
LATT -1
SFAC C  
C      1  0.4769340000000  0.4303640000000  0.4620300000000 1.0
C      1  0.4856100000000  0.5276680000000  0.5015190000000 1.0
C      1  0.5452390000000  0.4924090000000  0.4729830000000 1.0
C      1  0.5302270000000  0.5632040000000  0.5127290000000 1.0
C      1  0.4374490000000  0.4670690000000  0.4924670000000 1.0
C      1  0.4661260000000  0.5646140000000  0.5346490000000 1.0
C      1  0.4669550000000  0.4921110000000  0.4469380000000 1.0
C      1  0.5338050000000  0.5240180000000  0.5643090000000 1.0
C      1  0.4632460000000  0.5116820000000  0.4934120000000 1.0
C      1  0.5579650000000  0.5321910000000  0.5512850000000 1.0
C      1  0.4420340000000  0.5525280000000  0.5260830000000 1.0
C      1  0.4801300000000  0.4675840000000  0.5019100000000 1.0
C      1  0.5601680000000  0.5494460000000  0.4787450000000 1.0
C      1  0.4675840000000  0.4867410000000  0.4796190000000 1.0
C      1  0.4925980000000  0.5230430000000  0.5303800000000 1.0
C      1  0.5413240000000  0.4789840000000  0.4460050000000 1.0
C      1  0.4763940000000  0.5356050000000  0.5740990000000 1.0
C      1  0.4505240000000  0.4582220000000  0.5335450000000 1.0
C      1  0.4945480000000  0.5016960000000  0.4380030000000 1.0
C      1  0.4865910000000  0.4634870000000  0.5627230000000 1.0
C      1  0.5475380000000  0.4424330000000  0.4935570000000 1.0
C      1  0.5103520000000  0.4370750000000  0.5302320000000 1.0
C      1  0.4472230000000  0.5484690000000  0.4660610000000 1.0
C      1  0.4728500000000  0.5081130000000  0.5698740000000 1.0
C      1  0.5374750000000  0.4303230000000  0.5205680000000 1.0
C      1  0.5832110000000  0.5031070000000  0.4899240000000 1.0
C      1  0.5077860000000  0.5240390000000  0.4827010000000 1.0
C      1  0.4387410000000  0.5253360000000  0.4842530000000 1.0
C      1  0.5033880000000  0.5266780000000  0.4520310000000 1.0
C      1  0.5583110000000  0.4473220000000  0.5308130000000 1.0
C      1  0.5558150000000  0.4747080000000  0.5224840000000 1.0
C      1  0.4279140000000  0.4750530000000  0.4671650000000 1.0
C      1  0.5691570000000  0.5226670000000  0.4682620000000 1.0
C      1  0.5496620000000  0.4969920000000  0.4255500000000 1.0
C      1  0.4475170000000  0.5393520000000  0.4397080000000 1.0
C      1  0.5148250000000  0.4812050000000  0.4338500000000 1.0
C      1  0.4384390000000  0.5054930000000  0.5295880000000 1.0
C      1  0.4693770000000  0.5031230000000  0.5409340000000 1.0
C      1  0.5295040000000  0.5397800000000  0.4424720000000 1.0
C      1  0.4757290000000  0.4738180000000  0.5367890000000 1.0
C      1  0.5089910000000  0.4466050000000  0.5575550000000 1.0
C      1  0.4914660000000  0.4873170000000  0.5782840000000 1.0
C      1  0.5155370000000  0.5577040000000  0.4880470000000 1.0
C      1  0.5869970000000  0.5163400000000  0.5144760000000 1.0
C      1  0.5256140000000  0.5160310000000  0.5358000000000 1.0
C      1  0.4895290000000  0.5741090000000  0.4884650000000 1.0
C      1  0.5537100000000  0.5213840000000  0.4405910000000 1.0
C      1  0.5314480000000  0.4868230000000  0.5350750000000 1.0
C      1  0.4799530000000  0.5785290000000  0.5144070000000 1.0
C      1  0.5072680000000  0.4713000000000  0.4910610000000 1.0
C      1  0.5552520000000  0.5519260000000  0.5072260000000 1.0
C      1  0.5647000000000  0.4769670000000  0.4926310000000 1.0
C      1  0.5650810000000  0.5309930000000  0.5237660000000 1.0
C      1  0.4948940000000  0.4184490000000  0.4873380000000 1.0
C      1  0.4436220000000  0.5115940000000  0.4411020000000 1.0
C      1  0.5358340000000  0.5596270000000  0.4644870000000 1.0
C      1  0.5266180000000  0.4802410000000  0.5638710000000 1.0
C      1  0.5207290000000  0.4971260000000  0.4878350000000 1.0
C      1  0.5353610000000  0.5017720000000  0.5814350000000 1.0
C      1  0.4843320000000  0.5457360000000  0.5487740000000 1.0
C      1  0.4557150000000  0.4501930000000  0.4566250000000 1.0
C      1  0.4290840000000  0.5304690000000  0.5141150000000 1.0
C      1  0.4684640000000  0.5653030000000  0.4725650000000 1.0
C      1  0.4605800000000  0.4666040000000  0.4346100000000 1.0
C      1  0.5195830000000  0.4467050000000  0.4804340000000 1.0
C      1  0.4256750000000  0.5041380000000  0.4635300000000 1.0
C      1  0.4314410000000  0.4768920000000  0.5197470000000 1.0
C      1  0.5047800000000  0.4376720000000  0.4552910000000 1.0
C      1  0.4602970000000  0.4373130000000  0.5157230000000 1.0
C      1  0.4871810000000  0.4263850000000  0.5148810000000 1.0
END
