TITL C-950525-1983-27 -2.07308969308557e-08 125000 -694.407052393291 0 0 112 (C1) n - 1
REM
REM in /home/bkarasulu/work/CARBON/AIRSS/Generating-Clusters/EDIP-Nigel-Params/with-SteepDescent/Only-C1/SD-CG/HFTN-CG
REM
REM
REM
REM
REM
REM ./C.cell (11c1c37f851c82e70ff6c80c92926a4b)
REM
REM compiler GCC version 9.2.1 20190827 (Red Hat 9.2.1-1)
REM options -cpp -mtune=generic -march=x86-64 -g -O0 -fpre-include=/usr/include/finclude/math-vector-fortran.h
REM seed 311720307 -1454523155 1550072098 -677770605 -1083593100 16952632 -1963236437 -203950555 -801010432 -1624324226 1117527299 453780632 351416820 1177703683 -1043294002 1049525172 1250676258 -818448714 -66049796 -900808790 1628522439 -1792505008 -1597898746 2028705073 -1186795818 -611914780 1753106670 -2026148617 -1983048324 1090465787 964839228 -947433087 -1251927318
REM
CELL 1.54180   50.00000   50.00000   50.00000   90.00000   90.00000   90.00000
LATT -1
SFAC C  
C      1  0.4387600000000  0.5617770000000  0.4680700000000 1.0
C      1  0.4378410000000  0.4625280000000  0.4888390000000 1.0
C      1  0.4887280000000  0.5416950000000  0.5773300000000 1.0
C      1  0.5208250000000  0.5543850000000  0.4418400000000 1.0
C      1  0.4551610000000  0.5924020000000  0.4987050000000 1.0
C      1  0.5157460000000  0.4187290000000  0.4790000000000 1.0
C      1  0.4842230000000  0.5370670000000  0.5336670000000 1.0
C      1  0.5077680000000  0.5227110000000  0.5681010000000 1.0
C      1  0.5543140000000  0.4440640000000  0.5467350000000 1.0
C      1  0.5833820000000  0.5440730000000  0.5051070000000 1.0
C      1  0.5333820000000  0.5823650000000  0.5327830000000 1.0
C      1  0.5394940000000  0.5143920000000  0.4136150000000 1.0
C      1  0.5392370000000  0.4911980000000  0.5674070000000 1.0
C      1  0.5149390000000  0.5817200000000  0.4459500000000 1.0
C      1  0.4033390000000  0.4798030000000  0.5085150000000 1.0
C      1  0.5592660000000  0.5701740000000  0.5407820000000 1.0
C      1  0.5618370000000  0.5151280000000  0.4679520000000 1.0
C      1  0.5311640000000  0.5886940000000  0.5045360000000 1.0
C      1  0.5288600000000  0.4420200000000  0.5587440000000 1.0
C      1  0.5674030000000  0.4532090000000  0.4701440000000 1.0
C      1  0.5382820000000  0.4883760000000  0.5358570000000 1.0
C      1  0.5432750000000  0.4098370000000  0.5205960000000 1.0
C      1  0.4531330000000  0.5867150000000  0.4699090000000 1.0
C      1  0.5414230000000  0.4674980000000  0.4264040000000 1.0
C      1  0.5388680000000  0.4260820000000  0.4966400000000 1.0
C      1  0.4175140000000  0.5255690000000  0.5309360000000 1.0
C      1  0.5245020000000  0.4300410000000  0.4511850000000 1.0
C      1  0.4286090000000  0.4483270000000  0.4445950000000 1.0
C      1  0.4485770000000  0.4616890000000  0.5787730000000 1.0
C      1  0.5367550000000  0.5393650000000  0.5336520000000 1.0
C      1  0.4542820000000  0.5078540000000  0.5591490000000 1.0
C      1  0.4512650000000  0.4153980000000  0.4730700000000 1.0
C      1  0.4378060000000  0.5008080000000  0.4939480000000 1.0
C      1  0.5119650000000  0.5065760000000  0.5137860000000 1.0
C      1  0.4815390000000  0.4862050000000  0.4889010000000 1.0
C      1  0.4870080000000  0.4582420000000  0.5261750000000 1.0
C      1  0.5532120000000  0.5825030000000  0.4888300000000 1.0
C      1  0.4273650000000  0.5039280000000  0.5456450000000 1.0
C      1  0.4892260000000  0.4365580000000  0.4821620000000 1.0
C      1  0.5555340000000  0.4936690000000  0.4239230000000 1.0
C      1  0.4997170000000  0.5404340000000  0.4258050000000 1.0
C      1  0.5751330000000  0.5187660000000  0.5486140000000 1.0
C      1  0.4161490000000  0.4529960000000  0.4722930000000 1.0
C      1  0.5917000000000  0.4782490000000  0.4537360000000 1.0
C      1  0.4753690000000  0.5373600000000  0.4452580000000 1.0
C      1  0.4848980000000  0.4928560000000  0.4619920000000 1.0
C      1  0.4952110000000  0.4843610000000  0.5405410000000 1.0
C      1  0.5246540000000  0.4702330000000  0.4860300000000 1.0
C      1  0.4389500000000  0.4429770000000  0.5091950000000 1.0
C      1  0.4566630000000  0.4913870000000  0.4243230000000 1.0
C      1  0.5930050000000  0.4961410000000  0.5476100000000 1.0
C      1  0.4639080000000  0.4852170000000  0.5777280000000 1.0
C      1  0.5798170000000  0.5492290000000  0.5344030000000 1.0
C      1  0.5123570000000  0.4966840000000  0.5797000000000 1.0
C      1  0.4376110000000  0.5084580000000  0.4651460000000 1.0
C      1  0.5019530000000  0.4419710000000  0.4362160000000 1.0
C      1  0.5104980000000  0.5354220000000  0.5190440000000 1.0
C      1  0.5861630000000  0.4788790000000  0.5266270000000 1.0
C      1  0.4967110000000  0.4622300000000  0.4972350000000 1.0
C      1  0.4919810000000  0.4781530000000  0.5703570000000 1.0
C      1  0.4824100000000  0.5888590000000  0.5382760000000 1.0
C      1  0.5190260000000  0.5395330000000  0.4679850000000 1.0
C      1  0.5007310000000  0.5670390000000  0.5725120000000 1.0
C      1  0.4484460000000  0.4586610000000  0.5318390000000 1.0
C      1  0.4985080000000  0.4028450000000  0.5072410000000 1.0
C      1  0.5632190000000  0.4190700000000  0.5386230000000 1.0
C      1  0.5491000000000  0.4467550000000  0.4465630000000 1.0
C      1  0.5334480000000  0.5351040000000  0.5635920000000 1.0
C      1  0.5125810000000  0.4869860000000  0.4534460000000 1.0
C      1  0.4791440000000  0.4441920000000  0.4543350000000 1.0
C      1  0.4439840000000  0.5476530000000  0.4950380000000 1.0
C      1  0.5068710000000  0.4270760000000  0.5491890000000 1.0
C      1  0.4530040000000  0.4194910000000  0.5009120000000 1.0
C      1  0.5295140000000  0.4978330000000  0.4927210000000 1.0
C      1  0.4634480000000  0.5081940000000  0.4485200000000 1.0
C      1  0.5930520000000  0.4922940000000  0.5014920000000 1.0
C      1  0.5156400000000  0.4049170000000  0.5309850000000 1.0
C      1  0.4603900000000  0.5359440000000  0.5714040000000 1.0
C      1  0.5320140000000  0.5125710000000  0.4673450000000 1.0
C      1  0.4819820000000  0.5989810000000  0.5103840000000 1.0
C      1  0.5108670000000  0.4691720000000  0.4268380000000 1.0
C      1  0.4721430000000  0.5354990000000  0.4967850000000 1.0
C      1  0.5085420000000  0.5832890000000  0.5504480000000 1.0
C      1  0.4657440000000  0.5055830000000  0.5040300000000 1.0
C      1  0.4306530000000  0.4768070000000  0.4318080000000 1.0
C      1  0.4964720000000  0.5811990000000  0.4671320000000 1.0
C      1  0.5737840000000  0.5653230000000  0.4898400000000 1.0
C      1  0.5044790000000  0.5916480000000  0.4930870000000 1.0
C      1  0.4541900000000  0.5576320000000  0.4439860000000 1.0
C      1  0.4161910000000  0.4928950000000  0.4530120000000 1.0
C      1  0.4241730000000  0.4793780000000  0.5300860000000 1.0
C      1  0.5489900000000  0.4537640000000  0.4951550000000 1.0
C      1  0.4964490000000  0.4988260000000  0.3989580000000 1.0
C      1  0.4244040000000  0.5261920000000  0.5037940000000 1.0
C      1  0.4537420000000  0.4303690000000  0.4489680000000 1.0
C      1  0.4797890000000  0.4309690000000  0.5585200000000 1.0
C      1  0.4454310000000  0.5694340000000  0.5147360000000 1.0
C      1  0.4731000000000  0.5068840000000  0.5352030000000 1.0
C      1  0.5119590000000  0.5180190000000  0.4115870000000 1.0
C      1  0.5578160000000  0.4658780000000  0.5260770000000 1.0
C      1  0.5983590000000  0.4734690000000  0.4805580000000 1.0
C      1  0.5738410000000  0.5157690000000  0.4968350000000 1.0
C      1  0.4788400000000  0.4803320000000  0.4090400000000 1.0
C      1  0.4542610000000  0.4441320000000  0.5576210000000 1.0
C      1  0.4889680000000  0.5451450000000  0.4715200000000 1.0
C      1  0.5540140000000  0.5141820000000  0.5257790000000 1.0
C      1  0.4483950000000  0.5597650000000  0.5620010000000 1.0
C      1  0.4641680000000  0.5644570000000  0.5376980000000 1.0
C      1  0.5552860000000  0.5162940000000  0.5713320000000 1.0
C      1  0.4774870000000  0.4217820000000  0.5163110000000 1.0
C      1  0.5747120000000  0.5000610000000  0.4459350000000 1.0
C      1  0.3979790000000  0.4764750000000  0.4791040000000 1.0
END
