TITL C-951335-1172-611 -1.88163377775716e-06 125000 -865.772735033774 0 0 138 (C1) n - 1
REM
REM in /home/bkarasulu/work/CARBON/AIRSS/Generating-Clusters/EDIP-Nigel-Params/with-SteepDescent/Only-C1/SD-CG/HFTN-CG
REM
REM
REM
REM
REM
REM ./C.cell (11c1c37f851c82e70ff6c80c92926a4b)
REM
REM compiler GCC version 9.2.1 20190827 (Red Hat 9.2.1-1)
REM options -cpp -mtune=generic -march=x86-64 -g -O0 -fpre-include=/usr/include/finclude/math-vector-fortran.h
REM seed -172985173 -534361478 -1713484461 436286243 -1576889442 -1413449642 -300554461 398223227 -937386058 1128402803 -2082780449 761264958 -1170991736 599355600 2133470653 1300913978 1068385365 -888834747 1680143559 1011863062 109326724 666540790 1465440859 972861585 700448599 1435433411 -263133322 -1418254026 -841771123 1333118925 -155044885 1243591701 -57361309
REM
CELL 1.54180   50.00000   50.00000   50.00000   90.00000   90.00000   90.00000
LATT -1
SFAC C  
C      1  0.5051040000000  0.4654090000000  0.4860150000000 1.0
C      1  0.4576760000000  0.5044820000000  0.5260440000000 1.0
C      1  0.4003530000000  0.4736820000000  0.5633660000000 1.0
C      1  0.6054330000000  0.4335630000000  0.4947000000000 1.0
C      1  0.5564430000000  0.4421620000000  0.4907970000000 1.0
C      1  0.5092630000000  0.4965490000000  0.5592400000000 1.0
C      1  0.5477180000000  0.4163780000000  0.4811430000000 1.0
C      1  0.5641390000000  0.4732590000000  0.4517170000000 1.0
C      1  0.4425990000000  0.4479190000000  0.4269380000000 1.0
C      1  0.5841600000000  0.4623060000000  0.5274910000000 1.0
C      1  0.4536400000000  0.4695250000000  0.4860760000000 1.0
C      1  0.4589050000000  0.4161340000000  0.4735470000000 1.0
C      1  0.4643080000000  0.4187880000000  0.5199930000000 1.0
C      1  0.4208370000000  0.5610080000000  0.5067870000000 1.0
C      1  0.4967830000000  0.4885060000000  0.5033650000000 1.0
C      1  0.4723440000000  0.5314090000000  0.5332400000000 1.0
C      1  0.4808550000000  0.4953460000000  0.3999560000000 1.0
C      1  0.4055950000000  0.5180810000000  0.4723210000000 1.0
C      1  0.4604160000000  0.5162690000000  0.4785940000000 1.0
C      1  0.4515490000000  0.5775490000000  0.4701940000000 1.0
C      1  0.5193790000000  0.5418030000000  0.5384440000000 1.0
C      1  0.5253460000000  0.5478490000000  0.4799380000000 1.0
C      1  0.5749130000000  0.4678440000000  0.5557130000000 1.0
C      1  0.5544350000000  0.4069420000000  0.5399450000000 1.0
C      1  0.4750060000000  0.5561650000000  0.4252000000000 1.0
C      1  0.5538170000000  0.4899940000000  0.5945950000000 1.0
C      1  0.5248330000000  0.5701050000000  0.4238770000000 1.0
C      1  0.5041210000000  0.4259180000000  0.4573960000000 1.0
C      1  0.4819600000000  0.4744990000000  0.4410600000000 1.0
C      1  0.5086930000000  0.5065800000000  0.4060010000000 1.0
C      1  0.3994710000000  0.4955320000000  0.4579400000000 1.0
C      1  0.5927090000000  0.5079460000000  0.5339080000000 1.0
C      1  0.4939930000000  0.5916800000000  0.4560980000000 1.0
C      1  0.4972780000000  0.5646950000000  0.5764520000000 1.0
C      1  0.5718160000000  0.4979940000000  0.4338670000000 1.0
C      1  0.4186010000000  0.5413540000000  0.4603410000000 1.0
C      1  0.5030760000000  0.5427510000000  0.5931590000000 1.0
C      1  0.4910490000000  0.5216950000000  0.4476460000000 1.0
C      1  0.4298310000000  0.5165060000000  0.5352290000000 1.0
C      1  0.4465420000000  0.5435440000000  0.5445550000000 1.0
C      1  0.5099590000000  0.4770850000000  0.4583190000000 1.0
C      1  0.5887920000000  0.5166660000000  0.4778470000000 1.0
C      1  0.4097530000000  0.4659250000000  0.5070760000000 1.0
C      1  0.4320340000000  0.4285120000000  0.4842510000000 1.0
C      1  0.5190190000000  0.5899690000000  0.4431350000000 1.0
C      1  0.5659320000000  0.5471060000000  0.4454410000000 1.0
C      1  0.4895400000000  0.6022480000000  0.4836320000000 1.0
C      1  0.5723960000000  0.5586570000000  0.4918860000000 1.0
C      1  0.4917120000000  0.5792380000000  0.5276280000000 1.0
C      1  0.5383440000000  0.5206880000000  0.4837850000000 1.0
C      1  0.4739690000000  0.4772900000000  0.5909400000000 1.0
C      1  0.4256670000000  0.4593310000000  0.4816790000000 1.0
C      1  0.4884610000000  0.4684780000000  0.4126550000000 1.0
C      1  0.5114880000000  0.4302580000000  0.5763390000000 1.0
C      1  0.6010770000000  0.4902450000000  0.4866160000000 1.0
C      1  0.4328390000000  0.4927260000000  0.4148500000000 1.0
C      1  0.4573160000000  0.5080680000000  0.4162250000000 1.0
C      1  0.5267670000000  0.4998240000000  0.6022060000000 1.0
C      1  0.5040300000000  0.5830180000000  0.5559230000000 1.0
C      1  0.5680250000000  0.5226130000000  0.5253000000000 1.0
C      1  0.4769980000000  0.4080610000000  0.4958590000000 1.0
C      1  0.5244920000000  0.4410420000000  0.4400840000000 1.0
C      1  0.4446340000000  0.5440440000000  0.5737420000000 1.0
C      1  0.5664120000000  0.5092650000000  0.5761540000000 1.0
C      1  0.4913830000000  0.4715430000000  0.5279660000000 1.0
C      1  0.4760560000000  0.4251080000000  0.4489650000000 1.0
C      1  0.5983520000000  0.4854400000000  0.5164190000000 1.0
C      1  0.5764790000000  0.4155330000000  0.5274960000000 1.0
C      1  0.5853940000000  0.4951730000000  0.5595870000000 1.0
C      1  0.4521330000000  0.5382470000000  0.4182000000000 1.0
C      1  0.5813230000000  0.4378920000000  0.5103870000000 1.0
C      1  0.5449550000000  0.5315600000000  0.4028400000000 1.0
C      1  0.4623630000000  0.5859260000000  0.5201030000000 1.0
C      1  0.4758070000000  0.4497700000000  0.4836100000000 1.0
C      1  0.4795820000000  0.4255510000000  0.5437560000000 1.0
C      1  0.4278900000000  0.5002890000000  0.5613100000000 1.0
C      1  0.5176820000000  0.4619420000000  0.4175880000000 1.0
C      1  0.5496460000000  0.5537100000000  0.4217870000000 1.0
C      1  0.5023020000000  0.5566410000000  0.4105200000000 1.0
C      1  0.5163320000000  0.4701430000000  0.5445730000000 1.0
C      1  0.4621080000000  0.5950000000000  0.4915230000000 1.0
C      1  0.5269430000000  0.4084330000000  0.4999970000000 1.0
C      1  0.4021870000000  0.5159700000000  0.5009010000000 1.0
C      1  0.4557380000000  0.4663600000000  0.5649820000000 1.0
C      1  0.5342760000000  0.5929150000000  0.4988400000000 1.0
C      1  0.5150960000000  0.5339210000000  0.3945870000000 1.0
C      1  0.5680740000000  0.5686730000000  0.4653520000000 1.0
C      1  0.4293590000000  0.5418990000000  0.4344030000000 1.0
C      1  0.5394430000000  0.5628340000000  0.5381900000000 1.0
C      1  0.5397630000000  0.5742240000000  0.4773880000000 1.0
C      1  0.5364660000000  0.4986510000000  0.4591630000000 1.0
C      1  0.5248870000000  0.4571980000000  0.5732120000000 1.0
C      1  0.6068920000000  0.4533580000000  0.4756500000000 1.0
C      1  0.5342880000000  0.4591690000000  0.5016360000000 1.0
C      1  0.5034050000000  0.4158800000000  0.4858590000000 1.0
C      1  0.5072980000000  0.4825210000000  0.5863560000000 1.0
C      1  0.4679250000000  0.4390020000000  0.5668880000000 1.0
C      1  0.5322730000000  0.5856230000000  0.5537560000000 1.0
C      1  0.4303600000000  0.5598130000000  0.4789110000000 1.0
C      1  0.4135480000000  0.4718940000000  0.4557670000000 1.0
C      1  0.4683420000000  0.4818940000000  0.5422830000000 1.0
C      1  0.4640870000000  0.5061220000000  0.5962590000000 1.0
C      1  0.4681050000000  0.5020100000000  0.4436610000000 1.0
C      1  0.5360490000000  0.4805080000000  0.4028590000000 1.0
C      1  0.3934520000000  0.4938780000000  0.5445460000000 1.0
C      1  0.5069710000000  0.4173490000000  0.5493620000000 1.0
C      1  0.3989360000000  0.4914670000000  0.5162890000000 1.0
C      1  0.4877830000000  0.5246400000000  0.4759780000000 1.0
C      1  0.4984440000000  0.5465820000000  0.4907890000000 1.0
C      1  0.4410530000000  0.5171180000000  0.5820480000000 1.0
C      1  0.4630850000000  0.4950920000000  0.4975830000000 1.0
C      1  0.5812290000000  0.5217410000000  0.4493990000000 1.0
C      1  0.5281750000000  0.5272760000000  0.5899330000000 1.0
C      1  0.4864850000000  0.4399160000000  0.5882210000000 1.0
C      1  0.5519480000000  0.5035210000000  0.4130350000000 1.0
C      1  0.4049240000000  0.5392390000000  0.5163750000000 1.0
C      1  0.5609320000000  0.5375890000000  0.5732150000000 1.0
C      1  0.4825050000000  0.5263380000000  0.6022270000000 1.0
C      1  0.5679460000000  0.5297990000000  0.4948960000000 1.0
C      1  0.4264510000000  0.4698940000000  0.4299090000000 1.0
C      1  0.4949470000000  0.5485620000000  0.5216490000000 1.0
C      1  0.5633370000000  0.5467220000000  0.5452680000000 1.0
C      1  0.5424480000000  0.5036020000000  0.5275380000000 1.0
C      1  0.4227470000000  0.4570570000000  0.5558860000000 1.0
C      1  0.5848340000000  0.4704010000000  0.4726680000000 1.0
C      1  0.5292970000000  0.4124570000000  0.5297900000000 1.0
C      1  0.5298220000000  0.5166790000000  0.5525430000000 1.0
C      1  0.5073930000000  0.5960750000000  0.5064440000000 1.0
C      1  0.4396930000000  0.5685160000000  0.5281940000000 1.0
C      1  0.5514340000000  0.4428130000000  0.4527220000000 1.0
C      1  0.5149890000000  0.5097250000000  0.4368840000000 1.0
C      1  0.4210870000000  0.4483560000000  0.5274640000000 1.0
C      1  0.4365070000000  0.4267980000000  0.5140530000000 1.0
C      1  0.4706640000000  0.5765380000000  0.4469210000000 1.0
C      1  0.5545530000000  0.4633590000000  0.5794260000000 1.0
C      1  0.5225400000000  0.5081880000000  0.5060470000000 1.0
C      1  0.4629580000000  0.4515530000000  0.4470200000000 1.0
C      1  0.5411870000000  0.4727410000000  0.5276880000000 1.0
END
