TITL C-951345-2650-6 -5.12537171273983e-06 125000 -1183.36182185431 0 0 188 (C1) n - 1
REM
REM in /home/bkarasulu/work/CARBON/AIRSS/Generating-Clusters/EDIP-Nigel-Params/with-SteepDescent/Only-C1/SD-CG/HFTN-CG
REM
REM
REM
REM
REM
REM ./C.cell (11c1c37f851c82e70ff6c80c92926a4b)
REM
REM compiler GCC version 9.2.1 20190827 (Red Hat 9.2.1-1)
REM options -cpp -mtune=generic -march=x86-64 -g -O0 -fpre-include=/usr/include/finclude/math-vector-fortran.h
REM seed -848372333 -815399175 -1100450160 1551080251 -562727700 -1521620184 1976776112 -1253996498 -271204071 116166021 1770024208 -38529587 1004305066 -846641089 294553922 -581643876 2006695963 -409212989 1493280023 483742167 1456666050 1888981765 443289533 -1410085965 -1111997885 -1365633655 559380606 -758177737 1512731967 -284009830 1638983295 -778563539 989086877
REM
CELL 1.54180   50.00000   50.00000   50.00000   90.00000   90.00000   90.00000
LATT -1
SFAC C  
C      1  0.5701670000000  0.4302690000000  0.5112930000000 1.0
C      1  0.5425800000000  0.4702780000000  0.5238000000000 1.0
C      1  0.5910330000000  0.5026450000000  0.4404080000000 1.0
C      1  0.4974130000000  0.4577610000000  0.5683080000000 1.0
C      1  0.4465740000000  0.4579310000000  0.4751540000000 1.0
C      1  0.4503110000000  0.4605410000000  0.6047270000000 1.0
C      1  0.6092500000000  0.4685830000000  0.4704600000000 1.0
C      1  0.5369300000000  0.5547660000000  0.5877290000000 1.0
C      1  0.4826950000000  0.3917630000000  0.4918060000000 1.0
C      1  0.4543890000000  0.4329080000000  0.5553630000000 1.0
C      1  0.4207540000000  0.4778500000000  0.5659010000000 1.0
C      1  0.5600640000000  0.5355300000000  0.5184280000000 1.0
C      1  0.6040890000000  0.4968960000000  0.5376640000000 1.0
C      1  0.5519080000000  0.5780780000000  0.4856490000000 1.0
C      1  0.5487820000000  0.4896980000000  0.4400420000000 1.0
C      1  0.5266270000000  0.4749450000000  0.4553120000000 1.0
C      1  0.5352690000000  0.4001950000000  0.4481380000000 1.0
C      1  0.4226700000000  0.5407480000000  0.4198440000000 1.0
C      1  0.5229880000000  0.6122910000000  0.4444960000000 1.0
C      1  0.4398600000000  0.5090420000000  0.5990040000000 1.0
C      1  0.5712680000000  0.4575960000000  0.5266860000000 1.0
C      1  0.5005380000000  0.4712050000000  0.6099890000000 1.0
C      1  0.4331940000000  0.4391700000000  0.6001800000000 1.0
C      1  0.4449710000000  0.4829370000000  0.5853160000000 1.0
C      1  0.4998270000000  0.5122860000000  0.4261780000000 1.0
C      1  0.5072790000000  0.5713020000000  0.4991210000000 1.0
C      1  0.4753700000000  0.5994240000000  0.5429560000000 1.0
C      1  0.5270900000000  0.5143530000000  0.3863580000000 1.0
C      1  0.4446300000000  0.5345020000000  0.4619420000000 1.0
C      1  0.4078470000000  0.4326460000000  0.4620620000000 1.0
C      1  0.5021590000000  0.4575210000000  0.5402840000000 1.0
C      1  0.5425330000000  0.5820700000000  0.4056160000000 1.0
C      1  0.5303910000000  0.5395620000000  0.4020900000000 1.0
C      1  0.4165620000000  0.4259890000000  0.5114980000000 1.0
C      1  0.5693860000000  0.5269050000000  0.5991430000000 1.0
C      1  0.4047660000000  0.5638340000000  0.4961410000000 1.0
C      1  0.4319430000000  0.4443530000000  0.4521410000000 1.0
C      1  0.5266040000000  0.4944710000000  0.5394740000000 1.0
C      1  0.4970660000000  0.4688050000000  0.4033390000000 1.0
C      1  0.4141590000000  0.5690090000000  0.5224160000000 1.0
C      1  0.4053820000000  0.4765840000000  0.5203390000000 1.0
C      1  0.4166750000000  0.5467100000000  0.5424670000000 1.0
C      1  0.5504250000000  0.4807640000000  0.6008550000000 1.0
C      1  0.5046420000000  0.5941120000000  0.5377970000000 1.0
C      1  0.5851790000000  0.4706050000000  0.5751600000000 1.0
C      1  0.4983570000000  0.5458610000000  0.4597750000000 1.0
C      1  0.4423850000000  0.4120200000000  0.5106970000000 1.0
C      1  0.5318520000000  0.4326440000000  0.4248890000000 1.0
C      1  0.4917360000000  0.4806910000000  0.5281180000000 1.0
C      1  0.4566440000000  0.4018580000000  0.4858540000000 1.0
C      1  0.4718700000000  0.4924450000000  0.4905000000000 1.0
C      1  0.5861720000000  0.5295380000000  0.5074380000000 1.0
C      1  0.4691110000000  0.5875250000000  0.5690210000000 1.0
C      1  0.5756230000000  0.5448130000000  0.4281180000000 1.0
C      1  0.4501870000000  0.5803380000000  0.4111340000000 1.0
C      1  0.5272280000000  0.4635410000000  0.6000170000000 1.0
C      1  0.5325360000000  0.4726340000000  0.4863520000000 1.0
C      1  0.4298870000000  0.5859730000000  0.4651880000000 1.0
C      1  0.5584540000000  0.5905160000000  0.5320920000000 1.0
C      1  0.4568310000000  0.5978200000000  0.5209870000000 1.0
C      1  0.5537570000000  0.5029970000000  0.3938000000000 1.0
C      1  0.4999780000000  0.4995540000000  0.3978390000000 1.0
C      1  0.5243490000000  0.4443730000000  0.5280360000000 1.0
C      1  0.4039300000000  0.5068610000000  0.4877610000000 1.0
C      1  0.5955560000000  0.5534540000000  0.4939760000000 1.0
C      1  0.4916370000000  0.3960590000000  0.4490280000000 1.0
C      1  0.5485930000000  0.5082030000000  0.6055140000000 1.0
C      1  0.4553000000000  0.5153400000000  0.5418870000000 1.0
C      1  0.5029240000000  0.5391350000000  0.5411210000000 1.0
C      1  0.5238230000000  0.5654620000000  0.3895560000000 1.0
C      1  0.4696480000000  0.5522340000000  0.4488950000000 1.0
C      1  0.4026870000000  0.4272420000000  0.4876540000000 1.0
C      1  0.5618650000000  0.5538270000000  0.6015500000000 1.0
C      1  0.4478120000000  0.5061980000000  0.4483660000000 1.0
C      1  0.5525970000000  0.4100200000000  0.5526040000000 1.0
C      1  0.5465220000000  0.4225420000000  0.4920360000000 1.0
C      1  0.4722950000000  0.4856410000000  0.5697610000000 1.0
C      1  0.4760320000000  0.5961170000000  0.4496700000000 1.0
C      1  0.4802890000000  0.4753890000000  0.4488340000000 1.0
C      1  0.4453140000000  0.5336470000000  0.4909270000000 1.0
C      1  0.4743380000000  0.5872030000000  0.4228740000000 1.0
C      1  0.5356840000000  0.5383830000000  0.5619740000000 1.0
C      1  0.4259200000000  0.5187990000000  0.5333210000000 1.0
C      1  0.5215390000000  0.3868770000000  0.4711620000000 1.0
C      1  0.4103300000000  0.5667090000000  0.4686380000000 1.0
C      1  0.4646140000000  0.4846270000000  0.5407020000000 1.0
C      1  0.4718350000000  0.5383430000000  0.5019850000000 1.0
C      1  0.4828510000000  0.5611010000000  0.4844170000000 1.0
C      1  0.4847440000000  0.4707290000000  0.5017540000000 1.0
C      1  0.4257410000000  0.5177180000000  0.5036890000000 1.0
C      1  0.4761160000000  0.4342660000000  0.4296190000000 1.0
C      1  0.5223890000000  0.5930530000000  0.4239740000000 1.0
C      1  0.5617790000000  0.4396360000000  0.4242220000000 1.0
C      1  0.4191930000000  0.4509810000000  0.5288530000000 1.0
C      1  0.4810080000000  0.4326630000000  0.5728120000000 1.0
C      1  0.4672160000000  0.5495470000000  0.5975000000000 1.0
C      1  0.5172880000000  0.6071600000000  0.5115200000000 1.0
C      1  0.5830740000000  0.4987320000000  0.4913060000000 1.0
C      1  0.5048390000000  0.5172850000000  0.4709720000000 1.0
C      1  0.4605090000000  0.4013170000000  0.4552040000000 1.0
C      1  0.5358540000000  0.3950170000000  0.4956350000000 1.0
C      1  0.4895750000000  0.5145450000000  0.4962380000000 1.0
C      1  0.5300430000000  0.5583260000000  0.4879450000000 1.0
C      1  0.5717340000000  0.4109820000000  0.5318590000000 1.0
C      1  0.4020350000000  0.5148460000000  0.4592370000000 1.0
C      1  0.6135410000000  0.4626170000000  0.4986000000000 1.0
C      1  0.4131830000000  0.4498370000000  0.5587760000000 1.0
C      1  0.5218640000000  0.5327930000000  0.4304960000000 1.0
C      1  0.4254420000000  0.4662820000000  0.4318250000000 1.0
C      1  0.4110350000000  0.4946960000000  0.5428820000000 1.0
C      1  0.4494500000000  0.4231810000000  0.4385340000000 1.0
C      1  0.4665060000000  0.5385610000000  0.3925220000000 1.0
C      1  0.5774610000000  0.5170210000000  0.4198910000000 1.0
C      1  0.4940710000000  0.3954020000000  0.5163810000000 1.0
C      1  0.4723770000000  0.5264480000000  0.4286250000000 1.0
C      1  0.5218680000000  0.4417410000000  0.4970760000000 1.0
C      1  0.4986610000000  0.4102520000000  0.5611770000000 1.0
C      1  0.5252600000000  0.4143520000000  0.5422210000000 1.0
C      1  0.5023710000000  0.4933040000000  0.4502260000000 1.0
C      1  0.4506130000000  0.4550040000000  0.5311920000000 1.0
C      1  0.4239550000000  0.5280490000000  0.5858350000000 1.0
C      1  0.4544440000000  0.4093380000000  0.5378070000000 1.0
C      1  0.4929210000000  0.5624280000000  0.6013600000000 1.0
C      1  0.5206390000000  0.5927490000000  0.5630320000000 1.0
C      1  0.4960420000000  0.5847270000000  0.5816760000000 1.0
C      1  0.4909980000000  0.4294800000000  0.4883340000000 1.0
C      1  0.4734210000000  0.5369800000000  0.5324380000000 1.0
C      1  0.5359510000000  0.5323200000000  0.5019200000000 1.0
C      1  0.5295040000000  0.4412370000000  0.5825530000000 1.0
C      1  0.4301690000000  0.5915330000000  0.5258500000000 1.0
C      1  0.4301010000000  0.4314130000000  0.5734110000000 1.0
C      1  0.5342850000000  0.5155860000000  0.4769160000000 1.0
C      1  0.4168580000000  0.5416740000000  0.4521200000000 1.0
C      1  0.4654490000000  0.5210680000000  0.6058260000000 1.0
C      1  0.4481670000000  0.4989530000000  0.4045830000000 1.0
C      1  0.4477860000000  0.4709670000000  0.4126790000000 1.0
C      1  0.5475490000000  0.5993340000000  0.5075450000000 1.0
C      1  0.4780890000000  0.4522580000000  0.6058010000000 1.0
C      1  0.5550610000000  0.4324370000000  0.5705560000000 1.0
C      1  0.5821970000000  0.4537650000000  0.4773210000000 1.0
C      1  0.5058990000000  0.3997580000000  0.4227590000000 1.0
C      1  0.5531090000000  0.4196490000000  0.4630730000000 1.0
C      1  0.4538340000000  0.5622800000000  0.5748800000000 1.0
C      1  0.3903580000000  0.4845400000000  0.4977500000000 1.0
C      1  0.5067690000000  0.5163960000000  0.5896460000000 1.0
C      1  0.6015310000000  0.4968950000000  0.4663140000000 1.0
C      1  0.5064160000000  0.5661860000000  0.5279760000000 1.0
C      1  0.5738820000000  0.4513710000000  0.5571150000000 1.0
C      1  0.5333710000000  0.5073170000000  0.5697310000000 1.0
C      1  0.4746190000000  0.4630170000000  0.4227380000000 1.0
C      1  0.5875960000000  0.5209970000000  0.5765640000000 1.0
C      1  0.5146060000000  0.5432810000000  0.6020000000000 1.0
C      1  0.5203790000000  0.4459360000000  0.4489760000000 1.0
C      1  0.4709480000000  0.5101620000000  0.3885990000000 1.0
C      1  0.5780490000000  0.5652340000000  0.4755930000000 1.0
C      1  0.5483440000000  0.5840720000000  0.5568790000000 1.0
C      1  0.5623990000000  0.4757730000000  0.4848580000000 1.0
C      1  0.5888560000000  0.5410750000000  0.5552110000000 1.0
C      1  0.4684720000000  0.6014340000000  0.4946410000000 1.0
C      1  0.4652670000000  0.4480590000000  0.4991980000000 1.0
C      1  0.4929730000000  0.4210710000000  0.4079920000000 1.0
C      1  0.4223070000000  0.5120990000000  0.4126150000000 1.0
C      1  0.5214630000000  0.3936900000000  0.5205380000000 1.0
C      1  0.4455920000000  0.5534120000000  0.4063580000000 1.0
C      1  0.5761250000000  0.4696500000000  0.6014900000000 1.0
C      1  0.5906790000000  0.4956260000000  0.5630100000000 1.0
C      1  0.5640000000000  0.5659560000000  0.4139340000000 1.0
C      1  0.5603370000000  0.5493450000000  0.5451090000000 1.0
C      1  0.4987390000000  0.5874120000000  0.4085160000000 1.0
C      1  0.4961390000000  0.6112200000000  0.4890940000000 1.0
C      1  0.5945570000000  0.4784730000000  0.5152050000000 1.0
C      1  0.4807290000000  0.3980940000000  0.5407920000000 1.0
C      1  0.4594410000000  0.4835020000000  0.4659010000000 1.0
C      1  0.4962640000000  0.4994470000000  0.6119890000000 1.0
C      1  0.4562890000000  0.5929950000000  0.4699440000000 1.0
C      1  0.4817360000000  0.5171940000000  0.5709550000000 1.0
C      1  0.4189340000000  0.4967470000000  0.4387070000000 1.0
C      1  0.6023490000000  0.5258970000000  0.5321400000000 1.0
C      1  0.5723560000000  0.4375380000000  0.4520170000000 1.0
C      1  0.5448720000000  0.5197020000000  0.4477670000000 1.0
C      1  0.5525890000000  0.4811820000000  0.4121110000000 1.0
C      1  0.4266890000000  0.5515180000000  0.5702170000000 1.0
C      1  0.5707860000000  0.4602090000000  0.4074560000000 1.0
C      1  0.5140070000000  0.5182150000000  0.5210690000000 1.0
C      1  0.5726060000000  0.5452480000000  0.4560060000000 1.0
C      1  0.5123090000000  0.4428260000000  0.3998610000000 1.0
C      1  0.4940120000000  0.4339970000000  0.4565770000000 1.0
C      1  0.5008710000000  0.6057220000000  0.4606600000000 1.0
END
