TITL C-951337-3020-201 -8.68948572680198e-07 125000 -784.749259907095 0 0 126 (C1) n - 1
REM
REM in /home/bkarasulu/work/CARBON/AIRSS/Generating-Clusters/EDIP-Nigel-Params/with-SteepDescent/Only-C1/SD-CG/HFTN-CG
REM
REM
REM
REM
REM
REM ./C.cell (11c1c37f851c82e70ff6c80c92926a4b)
REM
REM compiler GCC version 9.2.1 20190827 (Red Hat 9.2.1-1)
REM options -cpp -mtune=generic -march=x86-64 -g -O0 -fpre-include=/usr/include/finclude/math-vector-fortran.h
REM seed 747393652 -1778895071 -1358984792 -1146514950 1314891111 -1443863316 1004151673 -514717296 1796358044 -453624958 -315376557 68426777 -1979504119 1020069542 -409379366 -1526268370 -2086153054 -1244342168 -1193077117 491107632 1024215355 1499196840 624670071 13418562 268364203 -1438349200 -920674704 2083553824 1084253473 345077150 -1305827202 -137486281 -1285637869
REM
CELL 1.54180   50.00000   50.00000   50.00000   90.00000   90.00000   90.00000
LATT -1
SFAC C  
C      1  0.5580630000000  0.4892580000000  0.4980570000000 1.0
C      1  0.5580740000000  0.5400730000000  0.5073880000000 1.0
C      1  0.5730360000000  0.4693800000000  0.5164950000000 1.0
C      1  0.4387570000000  0.5230400000000  0.5664520000000 1.0
C      1  0.4169090000000  0.5055930000000  0.4774940000000 1.0
C      1  0.4503520000000  0.5700470000000  0.4665160000000 1.0
C      1  0.5239950000000  0.4536390000000  0.4907620000000 1.0
C      1  0.5803770000000  0.4850300000000  0.4510680000000 1.0
C      1  0.5358970000000  0.4097260000000  0.5076950000000 1.0
C      1  0.5365380000000  0.4423720000000  0.4399330000000 1.0
C      1  0.5120660000000  0.3956070000000  0.5102590000000 1.0
C      1  0.5310280000000  0.5010170000000  0.4347100000000 1.0
C      1  0.5180860000000  0.4833990000000  0.4025910000000 1.0
C      1  0.5187900000000  0.5622910000000  0.5766860000000 1.0
C      1  0.5107970000000  0.4453200000000  0.5325220000000 1.0
C      1  0.5177450000000  0.5636910000000  0.4211720000000 1.0
C      1  0.4070720000000  0.4623990000000  0.5495590000000 1.0
C      1  0.4457950000000  0.4938470000000  0.5204190000000 1.0
C      1  0.5926530000000  0.5268360000000  0.5173190000000 1.0
C      1  0.4014760000000  0.4764100000000  0.5237140000000 1.0
C      1  0.5085510000000  0.4312530000000  0.5578170000000 1.0
C      1  0.4123590000000  0.4613100000000  0.5010540000000 1.0
C      1  0.5215820000000  0.4907430000000  0.4635950000000 1.0
C      1  0.4854430000000  0.4632690000000  0.5267840000000 1.0
C      1  0.4290120000000  0.4440190000000  0.5434690000000 1.0
C      1  0.4774360000000  0.5935580000000  0.5321000000000 1.0
C      1  0.5539100000000  0.5057110000000  0.5653740000000 1.0
C      1  0.4162820000000  0.5019760000000  0.5260440000000 1.0
C      1  0.4851860000000  0.4026910000000  0.5063350000000 1.0
C      1  0.4766060000000  0.5032300000000  0.4011360000000 1.0
C      1  0.5056520000000  0.5347150000000  0.4437370000000 1.0
C      1  0.4942680000000  0.5774140000000  0.5693570000000 1.0
C      1  0.4618360000000  0.5408630000000  0.4253150000000 1.0
C      1  0.5398940000000  0.4165530000000  0.4541810000000 1.0
C      1  0.5929040000000  0.5119720000000  0.5416790000000 1.0
C      1  0.5325140000000  0.4384720000000  0.5140770000000 1.0
C      1  0.5911130000000  0.5384030000000  0.4715130000000 1.0
C      1  0.5164620000000  0.5104250000000  0.5935460000000 1.0
C      1  0.4703650000000  0.5438770000000  0.5134350000000 1.0
C      1  0.4515120000000  0.4668460000000  0.4680970000000 1.0
C      1  0.5169700000000  0.5124870000000  0.4856450000000 1.0
C      1  0.4160550000000  0.4334600000000  0.5046360000000 1.0
C      1  0.5436450000000  0.5072370000000  0.5924320000000 1.0
C      1  0.4281890000000  0.5508920000000  0.4707090000000 1.0
C      1  0.4508770000000  0.4167180000000  0.4797530000000 1.0
C      1  0.4566280000000  0.4660150000000  0.4206480000000 1.0
C      1  0.4606890000000  0.5176140000000  0.5853570000000 1.0
C      1  0.5930660000000  0.4873160000000  0.4785770000000 1.0
C      1  0.4671160000000  0.5663550000000  0.4404350000000 1.0
C      1  0.4902910000000  0.4081260000000  0.4565950000000 1.0
C      1  0.5468670000000  0.5626050000000  0.5521420000000 1.0
C      1  0.5587840000000  0.4610940000000  0.4555290000000 1.0
C      1  0.4528350000000  0.4607900000000  0.5190530000000 1.0
C      1  0.5708530000000  0.5517080000000  0.5605970000000 1.0
C      1  0.5424970000000  0.5605830000000  0.5234640000000 1.0
C      1  0.4573490000000  0.4948540000000  0.4204290000000 1.0
C      1  0.4198860000000  0.5709820000000  0.5152990000000 1.0
C      1  0.4970630000000  0.5765760000000  0.4401540000000 1.0
C      1  0.5237900000000  0.5348290000000  0.4684100000000 1.0
C      1  0.4954620000000  0.4574860000000  0.4850260000000 1.0
C      1  0.4721790000000  0.5594710000000  0.5640100000000 1.0
C      1  0.5171230000000  0.4006220000000  0.4558830000000 1.0
C      1  0.5414640000000  0.4733710000000  0.4772980000000 1.0
C      1  0.4991970000000  0.5878090000000  0.5129190000000 1.0
C      1  0.5917800000000  0.5164100000000  0.4905750000000 1.0
C      1  0.4689360000000  0.4892530000000  0.5907250000000 1.0
C      1  0.4509000000000  0.4470280000000  0.5611860000000 1.0
C      1  0.4639010000000  0.4145020000000  0.5239410000000 1.0
C      1  0.5557120000000  0.5720790000000  0.4548380000000 1.0
C      1  0.4715810000000  0.4892680000000  0.4619960000000 1.0
C      1  0.4239290000000  0.4766760000000  0.4786370000000 1.0
C      1  0.5770230000000  0.5246410000000  0.5630880000000 1.0
C      1  0.5971530000000  0.5310230000000  0.4450250000000 1.0
C      1  0.4090490000000  0.5205160000000  0.5025170000000 1.0
C      1  0.5112930000000  0.5825660000000  0.4663520000000 1.0
C      1  0.4831530000000  0.4340320000000  0.4445800000000 1.0
C      1  0.5442960000000  0.5538290000000  0.4341990000000 1.0
C      1  0.4406260000000  0.5826320000000  0.5294570000000 1.0
C      1  0.4894890000000  0.6022270000000  0.5568690000000 1.0
C      1  0.4715800000000  0.4327060000000  0.5468400000000 1.0
C      1  0.4398420000000  0.4179610000000  0.5057710000000 1.0
C      1  0.4741760000000  0.4008770000000  0.4794490000000 1.0
C      1  0.4582480000000  0.5604330000000  0.5371010000000 1.0
C      1  0.4967350000000  0.4734450000000  0.4598810000000 1.0
C      1  0.4812800000000  0.5306700000000  0.4068730000000 1.0
C      1  0.5380860000000  0.5937500000000  0.4615830000000 1.0
C      1  0.5465570000000  0.4591280000000  0.5550210000000 1.0
C      1  0.5128580000000  0.4624550000000  0.5926930000000 1.0
C      1  0.5744750000000  0.4419140000000  0.4730980000000 1.0
C      1  0.5773710000000  0.5121890000000  0.4385840000000 1.0
C      1  0.5059610000000  0.4483930000000  0.4314290000000 1.0
C      1  0.5266340000000  0.4467980000000  0.5737920000000 1.0
C      1  0.4817950000000  0.5331420000000  0.5712650000000 1.0
C      1  0.5702160000000  0.5580710000000  0.4764080000000 1.0
C      1  0.4878080000000  0.4911640000000  0.5408400000000 1.0
C      1  0.4649850000000  0.4506310000000  0.4905900000000 1.0
C      1  0.5569210000000  0.4182380000000  0.4780700000000 1.0
C      1  0.4459130000000  0.5187330000000  0.4349350000000 1.0
C      1  0.4602320000000  0.5160600000000  0.5039290000000 1.0
C      1  0.5075620000000  0.5356470000000  0.5831390000000 1.0
C      1  0.4950480000000  0.4723820000000  0.4159230000000 1.0
C      1  0.4785380000000  0.5117880000000  0.4805550000000 1.0
C      1  0.5550200000000  0.4491390000000  0.5289110000000 1.0
C      1  0.4556840000000  0.4482570000000  0.4433820000000 1.0
C      1  0.4991860000000  0.4869140000000  0.5913080000000 1.0
C      1  0.5332910000000  0.5096540000000  0.5400850000000 1.0
C      1  0.4809880000000  0.5387860000000  0.4646600000000 1.0
C      1  0.5071250000000  0.5416700000000  0.4053970000000 1.0
C      1  0.4309540000000  0.5239380000000  0.4594870000000 1.0
C      1  0.4158870000000  0.5090100000000  0.5563620000000 1.0
C      1  0.5145240000000  0.5610410000000  0.5122020000000 1.0
C      1  0.5900270000000  0.4588950000000  0.4934280000000 1.0
C      1  0.4492240000000  0.4764050000000  0.5688660000000 1.0
C      1  0.4731430000000  0.5639790000000  0.4863870000000 1.0
C      1  0.5166110000000  0.5582270000000  0.4824270000000 1.0
C      1  0.4593190000000  0.4962970000000  0.5468710000000 1.0
C      1  0.5412020000000  0.5129700000000  0.5094110000000 1.0
C      1  0.4190680000000  0.5485320000000  0.4984280000000 1.0
C      1  0.5041020000000  0.5172800000000  0.5436020000000 1.0
C      1  0.5506860000000  0.5234640000000  0.4352730000000 1.0
C      1  0.4188020000000  0.4824600000000  0.5690120000000 1.0
C      1  0.5663810000000  0.4786970000000  0.5628070000000 1.0
C      1  0.5860790000000  0.4828360000000  0.5407320000000 1.0
C      1  0.4922540000000  0.5950090000000  0.4858950000000 1.0
C      1  0.4979830000000  0.5380390000000  0.5219120000000 1.0
C      1  0.5415530000000  0.4799670000000  0.4169500000000 1.0
END
