TITL C-951335-1172-548 1.42395573593412e-06 125000 -864.228900375288 0 0 140 (C1) n - 1
REM
REM in /home/bkarasulu/work/CARBON/AIRSS/Generating-Clusters/EDIP-Nigel-Params/with-SteepDescent/Only-C1/SD-CG/HFTN-CG
REM
REM
REM
REM
REM
REM ./C.cell (11c1c37f851c82e70ff6c80c92926a4b)
REM
REM compiler GCC version 9.2.1 20190827 (Red Hat 9.2.1-1)
REM options -cpp -mtune=generic -march=x86-64 -g -O0 -fpre-include=/usr/include/finclude/math-vector-fortran.h
REM seed -982858070 -1510439514 1122469268 -1909594833 882024787 1485877731 487567925 1909241573 77869731 -1242856103 -1323835967 808703169 310847479 279073780 -590324779 -921696231 -1963222872 -2037954891 2024191659 107875664 379403279 1052341894 2067017030 -1142804678 -1332618 -433942620 -1471539531 -1217588070 -635234287 1393164436 1447094830 915608218 -899583217
REM
CELL 1.54180   50.00000   50.00000   50.00000   90.00000   90.00000   90.00000
LATT -1
SFAC C  
C      1  0.5265190000000  0.4875160000000  0.4938930000000 1.0
C      1  0.4850880000000  0.5688210000000  0.5396330000000 1.0
C      1  0.4057210000000  0.4549740000000  0.4895020000000 1.0
C      1  0.4247460000000  0.5298840000000  0.5844950000000 1.0
C      1  0.5350090000000  0.4885460000000  0.5405720000000 1.0
C      1  0.5296990000000  0.5348620000000  0.4220870000000 1.0
C      1  0.5678740000000  0.4456320000000  0.5497880000000 1.0
C      1  0.4810340000000  0.5444150000000  0.4105520000000 1.0
C      1  0.4690710000000  0.4563570000000  0.5018550000000 1.0
C      1  0.4935480000000  0.4422330000000  0.5150900000000 1.0
C      1  0.5121490000000  0.4377950000000  0.4666930000000 1.0
C      1  0.4679440000000  0.4722530000000  0.4042940000000 1.0
C      1  0.4821890000000  0.5104070000000  0.4306130000000 1.0
C      1  0.5081720000000  0.5099740000000  0.5854680000000 1.0
C      1  0.4303130000000  0.5218030000000  0.4940910000000 1.0
C      1  0.4103790000000  0.4787150000000  0.5304690000000 1.0
C      1  0.4619040000000  0.5269060000000  0.5300430000000 1.0
C      1  0.4466360000000  0.5522180000000  0.4486910000000 1.0
C      1  0.4535010000000  0.5273820000000  0.5922010000000 1.0
C      1  0.4876890000000  0.4621210000000  0.4254030000000 1.0
C      1  0.4185160000000  0.5455850000000  0.5596610000000 1.0
C      1  0.5827330000000  0.5600470000000  0.5082430000000 1.0
C      1  0.4341320000000  0.4413790000000  0.5584150000000 1.0
C      1  0.5149540000000  0.5052610000000  0.5160670000000 1.0
C      1  0.4607280000000  0.4989000000000  0.5924370000000 1.0
C      1  0.4344860000000  0.4565910000000  0.5812870000000 1.0
C      1  0.5363540000000  0.5108340000000  0.5916740000000 1.0
C      1  0.5101570000000  0.4296760000000  0.5710780000000 1.0
C      1  0.5211460000000  0.4096310000000  0.4594760000000 1.0
C      1  0.4938140000000  0.4626490000000  0.5890130000000 1.0
C      1  0.4083030000000  0.5006140000000  0.5498920000000 1.0
C      1  0.5900790000000  0.4978480000000  0.5018320000000 1.0
C      1  0.5022630000000  0.4141640000000  0.5482180000000 1.0
C      1  0.5980080000000  0.4668960000000  0.4786150000000 1.0
C      1  0.4218890000000  0.4524850000000  0.5344100000000 1.0
C      1  0.5193490000000  0.4400370000000  0.4967170000000 1.0
C      1  0.4518460000000  0.4202440000000  0.5571870000000 1.0
C      1  0.5535070000000  0.4819200000000  0.4248580000000 1.0
C      1  0.4541030000000  0.4859300000000  0.4682930000000 1.0
C      1  0.5365330000000  0.4625340000000  0.5021890000000 1.0
C      1  0.5585690000000  0.5589220000000  0.4950400000000 1.0
C      1  0.5042590000000  0.5275720000000  0.4639890000000 1.0
C      1  0.4886520000000  0.4899320000000  0.5958410000000 1.0
C      1  0.5393050000000  0.4946440000000  0.4688700000000 1.0
C      1  0.4734270000000  0.5457540000000  0.5802850000000 1.0
C      1  0.6071120000000  0.5207440000000  0.5135630000000 1.0
C      1  0.5540280000000  0.5295870000000  0.5326220000000 1.0
C      1  0.4389190000000  0.5108240000000  0.5207280000000 1.0
C      1  0.5605810000000  0.5013300000000  0.5345310000000 1.0
C      1  0.4798620000000  0.5259180000000  0.4813980000000 1.0
C      1  0.5277970000000  0.5694070000000  0.5625400000000 1.0
C      1  0.5235880000000  0.4074160000000  0.5310420000000 1.0
C      1  0.5522380000000  0.5577760000000  0.5750770000000 1.0
C      1  0.4362920000000  0.4829070000000  0.5897080000000 1.0
C      1  0.4859830000000  0.5028890000000  0.5020400000000 1.0
C      1  0.5829210000000  0.5435750000000  0.4623840000000 1.0
C      1  0.4730110000000  0.4133150000000  0.5405260000000 1.0
C      1  0.5688000000000  0.4254450000000  0.4735730000000 1.0
C      1  0.5391160000000  0.4612870000000  0.5308740000000 1.0
C      1  0.5557490000000  0.5493750000000  0.4210150000000 1.0
C      1  0.5099380000000  0.5505510000000  0.5476130000000 1.0
C      1  0.5943900000000  0.4666760000000  0.5095450000000 1.0
C      1  0.4917400000000  0.4127480000000  0.4366900000000 1.0
C      1  0.5662070000000  0.4687180000000  0.5681040000000 1.0
C      1  0.4737920000000  0.5588060000000  0.4378890000000 1.0
C      1  0.5423420000000  0.4646510000000  0.4045500000000 1.0
C      1  0.4336060000000  0.4685190000000  0.4575990000000 1.0
C      1  0.4400470000000  0.5692690000000  0.5203420000000 1.0
C      1  0.5058110000000  0.5000160000000  0.3961290000000 1.0
C      1  0.5163300000000  0.5039870000000  0.4511500000000 1.0
C      1  0.4514390000000  0.5146610000000  0.4723290000000 1.0
C      1  0.4665440000000  0.5540850000000  0.5201490000000 1.0
C      1  0.4155500000000  0.5013530000000  0.5792000000000 1.0
C      1  0.4215640000000  0.4399420000000  0.5079760000000 1.0
C      1  0.4093590000000  0.5270790000000  0.5390990000000 1.0
C      1  0.5818890000000  0.5134090000000  0.4558440000000 1.0
C      1  0.4967290000000  0.4626960000000  0.5407170000000 1.0
C      1  0.4364210000000  0.5682750000000  0.5514980000000 1.0
C      1  0.4884890000000  0.5812750000000  0.4525620000000 1.0
C      1  0.4486220000000  0.5955150000000  0.5107320000000 1.0
C      1  0.5644150000000  0.4220960000000  0.5032350000000 1.0
C      1  0.4468220000000  0.5615650000000  0.4766950000000 1.0
C      1  0.4519060000000  0.5092650000000  0.4234730000000 1.0
C      1  0.4648060000000  0.5694470000000  0.5636020000000 1.0
C      1  0.5345470000000  0.4156110000000  0.5064130000000 1.0
C      1  0.4773500000000  0.4841810000000  0.5415760000000 1.0
C      1  0.5805000000000  0.4925160000000  0.5551660000000 1.0
C      1  0.4814840000000  0.4525000000000  0.4555730000000 1.0
C      1  0.5109390000000  0.4577620000000  0.5671990000000 1.0
C      1  0.4606520000000  0.4838820000000  0.5174570000000 1.0
C      1  0.5395060000000  0.5868150000000  0.5424050000000 1.0
C      1  0.5285480000000  0.4535350000000  0.4480560000000 1.0
C      1  0.4894830000000  0.5796420000000  0.4841120000000 1.0
C      1  0.4951500000000  0.5295160000000  0.5661650000000 1.0
C      1  0.5285830000000  0.4453490000000  0.4206130000000 1.0
C      1  0.5092560000000  0.4852250000000  0.4235530000000 1.0
C      1  0.4582780000000  0.5281810000000  0.4027700000000 1.0
C      1  0.4366610000000  0.5230450000000  0.4467780000000 1.0
C      1  0.4259200000000  0.5520980000000  0.4957170000000 1.0
C      1  0.5545710000000  0.5280100000000  0.5768040000000 1.0
C      1  0.4107500000000  0.4795760000000  0.4446750000000 1.0
C      1  0.5736120000000  0.4468410000000  0.5199590000000 1.0
C      1  0.5001410000000  0.4352000000000  0.4168210000000 1.0
C      1  0.4779410000000  0.4732270000000  0.4778360000000 1.0
C      1  0.4436010000000  0.4830260000000  0.4130790000000 1.0
C      1  0.5813260000000  0.5169650000000  0.5715120000000 1.0
C      1  0.5154200000000  0.5475440000000  0.4456500000000 1.0
C      1  0.5191590000000  0.5793640000000  0.4936760000000 1.0
C      1  0.4062810000000  0.5064450000000  0.4852210000000 1.0
C      1  0.5743640000000  0.4540100000000  0.4651980000000 1.0
C      1  0.5598910000000  0.5144710000000  0.4741820000000 1.0
C      1  0.4648830000000  0.4097670000000  0.5125320000000 1.0
C      1  0.4451580000000  0.4435320000000  0.4490160000000 1.0
C      1  0.5494650000000  0.5113810000000  0.4252970000000 1.0
C      1  0.5214850000000  0.5955910000000  0.5202960000000 1.0
C      1  0.5262580000000  0.5356930000000  0.5220160000000 1.0
C      1  0.5156880000000  0.5852870000000  0.4427870000000 1.0
C      1  0.5367200000000  0.4794560000000  0.5709090000000 1.0
C      1  0.5079620000000  0.5298880000000  0.4014220000000 1.0
C      1  0.4096460000000  0.5059550000000  0.4548940000000 1.0
C      1  0.4037320000000  0.4806130000000  0.5016860000000 1.0
C      1  0.4757730000000  0.5998820000000  0.5036610000000 1.0
C      1  0.5626980000000  0.5615120000000  0.4466310000000 1.0
C      1  0.6008910000000  0.4974260000000  0.4713430000000 1.0
C      1  0.4510780000000  0.4236050000000  0.4684360000000 1.0
C      1  0.4927500000000  0.5958800000000  0.5278330000000 1.0
C      1  0.5380550000000  0.5755760000000  0.4601440000000 1.0
C      1  0.4872400000000  0.4092110000000  0.4943820000000 1.0
C      1  0.6024950000000  0.5439210000000  0.4952150000000 1.0
C      1  0.4821410000000  0.5129340000000  0.5446980000000 1.0
C      1  0.4488870000000  0.4322820000000  0.4975620000000 1.0
C      1  0.5493350000000  0.4106870000000  0.4587680000000 1.0
C      1  0.5314730000000  0.5527270000000  0.4974920000000 1.0
C      1  0.4730790000000  0.5545550000000  0.4907290000000 1.0
C      1  0.6001040000000  0.5299640000000  0.5413610000000 1.0
C      1  0.4773850000000  0.4104780000000  0.4658050000000 1.0
C      1  0.5510580000000  0.4708950000000  0.4530460000000 1.0
C      1  0.4811590000000  0.4897300000000  0.3863030000000 1.0
C      1  0.5710670000000  0.5693800000000  0.5552210000000 1.0
C      1  0.5773730000000  0.5483910000000  0.5349860000000 1.0
END
