TITL C-951343-2256-270 -0.0228738734181701 125000 -58.7589130864331 0 0 12 (C1) n - 1
REM
REM in /home/bkarasulu/work/CARBON/AIRSS/Generating-Clusters/EDIP-Nigel-Params/with-SteepDescent/Only-C1/SD-CG/HFTN-CG
REM
REM
REM
REM
REM
REM ./C.cell (11c1c37f851c82e70ff6c80c92926a4b)
REM
REM compiler GCC version 9.2.1 20190827 (Red Hat 9.2.1-1)
REM options -cpp -mtune=generic -march=x86-64 -g -O0 -fpre-include=/usr/include/finclude/math-vector-fortran.h
REM seed 1712394138 -906675549 -1447639423 458754534 -1107301803 -464268286 1687834978 1689975317 -113586690 -936497357 -1197011957 725061727 -1954517516 -60486381 411339166 93148195 -85850358 813224210 -170568504 -304450625 -1980479328 213961228 991375148 -2037550768 1623969637 515481262 -837701772 -1311510376 1609929630 -1337143404 663588373 -1148073060 -2087483372
REM
CELL 1.54180   50.00000   50.00000   50.00000   90.00000   90.00000   90.00000
LATT -1
SFAC C  
C      1  0.5146620000000  0.5150590000000  0.4883430000000 1.0
C      1  0.4670860000000  0.4453360000000  0.5276420000000 1.0
C      1  0.4444220000000  0.4345850000000  0.5327740000000 1.0
C      1  0.4799110000000  0.5430310000000  0.4693810000000 1.0
C      1  0.5246620000000  0.4962850000000  0.5057210000000 1.0
C      1  0.5471070000000  0.5023660000000  0.5183390000000 1.0
C      1  0.5134180000000  0.4580370000000  0.5354830000000 1.0
C      1  0.5021240000000  0.5612210000000  0.4684950000000 1.0
C      1  0.4913340000000  0.4539530000000  0.5176950000000 1.0
C      1  0.5051290000000  0.4812190000000  0.5207400000000 1.0
C      1  0.5041730000000  0.5778730000000  0.4478590000000 1.0
C      1  0.5059710000000  0.5310340000000  0.4675270000000 1.0
END
