TITL C-950527-2551-548 -2.48667872310391e-07 125000 -525.034963381628 0 0 86 (C1) n - 1
REM
REM in /home/bkarasulu/work/CARBON/AIRSS/Generating-Clusters/EDIP-Nigel-Params/with-SteepDescent/Only-C1/SD-CG/HFTN-CG
REM
REM
REM
REM
REM
REM ./C.cell (11c1c37f851c82e70ff6c80c92926a4b)
REM
REM compiler GCC version 9.2.1 20190827 (Red Hat 9.2.1-1)
REM options -cpp -mtune=generic -march=x86-64 -g -O0 -fpre-include=/usr/include/finclude/math-vector-fortran.h
REM seed 1505848982 17315906 789558475 869980867 97768680 1451662699 1405200961 -688364506 -232014016 -475375638 -1495565726 -56583213 1056312032 1471309843 -1505532484 1791053841 495570322 631397603 -1782181021 -394566421 461745396 1474033945 -1443349803 493364323 -1073934991 -1572665346 408321095 -1016544015 -909186934 -1228430875 -1965492964 -1939615529 980125718
REM
CELL 1.54180   50.00000   50.00000   50.00000   90.00000   90.00000   90.00000
LATT -1
SFAC C  
C      1  0.4690330000000  0.4830930000000  0.4781400000000 1.0
C      1  0.4406280000000  0.4420730000000  0.4617950000000 1.0
C      1  0.4735720000000  0.5124040000000  0.5692700000000 1.0
C      1  0.5409970000000  0.5485050000000  0.5480710000000 1.0
C      1  0.5587700000000  0.5444710000000  0.5232220000000 1.0
C      1  0.4280720000000  0.5058810000000  0.4932440000000 1.0
C      1  0.5524890000000  0.4207600000000  0.4979840000000 1.0
C      1  0.5510080000000  0.5177070000000  0.4408040000000 1.0
C      1  0.5345210000000  0.4359210000000  0.4552240000000 1.0
C      1  0.5335630000000  0.5055140000000  0.5780800000000 1.0
C      1  0.4799640000000  0.4868770000000  0.4200850000000 1.0
C      1  0.4230180000000  0.4602060000000  0.4769730000000 1.0
C      1  0.4450400000000  0.5509170000000  0.5115970000000 1.0
C      1  0.4886900000000  0.4470450000000  0.4446890000000 1.0
C      1  0.5035180000000  0.4418380000000  0.5567830000000 1.0
C      1  0.5441290000000  0.5462480000000  0.4356840000000 1.0
C      1  0.4361660000000  0.4970660000000  0.4418790000000 1.0
C      1  0.5048020000000  0.5529130000000  0.4547610000000 1.0
C      1  0.5300520000000  0.5341880000000  0.5731290000000 1.0
C      1  0.5550880000000  0.4887240000000  0.5434560000000 1.0
C      1  0.4565150000000  0.5124420000000  0.5440900000000 1.0
C      1  0.4440850000000  0.5412540000000  0.4636050000000 1.0
C      1  0.5083300000000  0.5019020000000  0.4571020000000 1.0
C      1  0.5303430000000  0.5069830000000  0.5390820000000 1.0
C      1  0.5071360000000  0.5456710000000  0.5853210000000 1.0
C      1  0.5417230000000  0.4629460000000  0.5381970000000 1.0
C      1  0.4470650000000  0.5409590000000  0.5394070000000 1.0
C      1  0.4742790000000  0.5801750000000  0.4824430000000 1.0
C      1  0.5690850000000  0.5153650000000  0.4646100000000 1.0
C      1  0.4232090000000  0.4579540000000  0.5073550000000 1.0
C      1  0.4484250000000  0.4194240000000  0.4758290000000 1.0
C      1  0.5425570000000  0.4625410000000  0.4569660000000 1.0
C      1  0.5432730000000  0.4970450000000  0.4230580000000 1.0
C      1  0.5199230000000  0.5798880000000  0.4942220000000 1.0
C      1  0.4630890000000  0.4760720000000  0.5072540000000 1.0
C      1  0.5018830000000  0.4667260000000  0.4262150000000 1.0
C      1  0.5124920000000  0.5290660000000  0.4985340000000 1.0
C      1  0.5668360000000  0.4964660000000  0.4878470000000 1.0
C      1  0.4863200000000  0.5382290000000  0.5678310000000 1.0
C      1  0.4837670000000  0.5219790000000  0.5015360000000 1.0
C      1  0.5004430000000  0.4108170000000  0.4729690000000 1.0
C      1  0.5478840000000  0.5838500000000  0.4888170000000 1.0
C      1  0.5244260000000  0.4723320000000  0.5128680000000 1.0
C      1  0.5002900000000  0.5777230000000  0.4714020000000 1.0
C      1  0.5002850000000  0.4902210000000  0.5374850000000 1.0
C      1  0.5055110000000  0.4558760000000  0.4917480000000 1.0
C      1  0.4387360000000  0.4354040000000  0.5208240000000 1.0
C      1  0.5495900000000  0.5551900000000  0.4639430000000 1.0
C      1  0.5250280000000  0.4576320000000  0.5632040000000 1.0
C      1  0.4625300000000  0.4605760000000  0.4533080000000 1.0
C      1  0.4683060000000  0.5143820000000  0.4768830000000 1.0
C      1  0.4368710000000  0.4902100000000  0.5459860000000 1.0
C      1  0.5758540000000  0.4955130000000  0.5253550000000 1.0
C      1  0.4535350000000  0.5215350000000  0.4422730000000 1.0
C      1  0.4795800000000  0.4482280000000  0.5088940000000 1.0
C      1  0.4980960000000  0.4820760000000  0.4784940000000 1.0
C      1  0.4592160000000  0.4243890000000  0.5010610000000 1.0
C      1  0.5256250000000  0.4814200000000  0.4402060000000 1.0
C      1  0.5179210000000  0.5569800000000  0.5134670000000 1.0
C      1  0.5753450000000  0.5218490000000  0.5161560000000 1.0
C      1  0.4634120000000  0.5737950000000  0.5075540000000 1.0
C      1  0.4844140000000  0.5105750000000  0.4375610000000 1.0
C      1  0.4551860000000  0.4696760000000  0.5581540000000 1.0
C      1  0.5555750000000  0.4694290000000  0.4820810000000 1.0
C      1  0.5075600000000  0.4361960000000  0.4659900000000 1.0
C      1  0.4557020000000  0.4425860000000  0.5462220000000 1.0
C      1  0.5624680000000  0.4422030000000  0.5288010000000 1.0
C      1  0.5503810000000  0.4156200000000  0.5256010000000 1.0
C      1  0.4258710000000  0.4889590000000  0.4692160000000 1.0
C      1  0.4807710000000  0.5722150000000  0.5310400000000 1.0
C      1  0.5737070000000  0.5422200000000  0.4744440000000 1.0
C      1  0.4532510000000  0.4760120000000  0.4294600000000 1.0
C      1  0.5287360000000  0.5747260000000  0.5464520000000 1.0
C      1  0.4869480000000  0.4852850000000  0.5652860000000 1.0
C      1  0.5179170000000  0.5552440000000  0.4294180000000 1.0
C      1  0.5661460000000  0.4469420000000  0.4975110000000 1.0
C      1  0.5649400000000  0.5654430000000  0.5036630000000 1.0
C      1  0.4838140000000  0.4373460000000  0.5379120000000 1.0
C      1  0.5294780000000  0.5062230000000  0.5086330000000 1.0
C      1  0.5051380000000  0.5863950000000  0.5355110000000 1.0
C      1  0.5155310000000  0.4820150000000  0.5782810000000 1.0
C      1  0.5197380000000  0.5307050000000  0.4690600000000 1.0
C      1  0.4763720000000  0.5011620000000  0.5220150000000 1.0
C      1  0.4269180000000  0.4859990000000  0.5174390000000 1.0
C      1  0.4322990000000  0.5351080000000  0.4896910000000 1.0
C      1  0.4692020000000  0.5562820000000  0.5522820000000 1.0
END
