TITL C-951339-9237-436 -1.88960271170534e-06 125000 -770.761349805872 0 0 124 (C1) n - 1
REM
REM in /home/bkarasulu/work/CARBON/AIRSS/Generating-Clusters/EDIP-Nigel-Params/with-SteepDescent/Only-C1/SD-CG/HFTN-CG
REM
REM
REM
REM
REM
REM ./C.cell (11c1c37f851c82e70ff6c80c92926a4b)
REM
REM compiler GCC version 9.2.1 20190827 (Red Hat 9.2.1-1)
REM options -cpp -mtune=generic -march=x86-64 -g -O0 -fpre-include=/usr/include/finclude/math-vector-fortran.h
REM seed 1084153499 -845188123 555005154 -1835215727 1221437391 879740010 977598365 1579623395 -713453845 -503324365 -124354551 -1123222978 -1009674028 -729794166 458552428 -1248354961 -1796334447 -1816705163 1762759751 -1115290345 209492374 387942232 246628861 -279880075 -1057241481 1551337116 1318341193 -185909757 -1750609115 -1145760680 -163451920 1810221570 12584064
REM
CELL 1.54180   50.00000   50.00000   50.00000   90.00000   90.00000   90.00000
LATT -1
SFAC C  
C      1  0.5515710000000  0.4295810000000  0.4731990000000 1.0
C      1  0.5776440000000  0.4684600000000  0.5456210000000 1.0
C      1  0.4083900000000  0.4967670000000  0.4436870000000 1.0
C      1  0.5054570000000  0.4413200000000  0.5548930000000 1.0
C      1  0.4023500000000  0.5186330000000  0.4608170000000 1.0
C      1  0.4696120000000  0.4573100000000  0.5279860000000 1.0
C      1  0.5810710000000  0.4687020000000  0.4677750000000 1.0
C      1  0.5174240000000  0.4949060000000  0.4372160000000 1.0
C      1  0.4918280000000  0.5178110000000  0.6029930000000 1.0
C      1  0.4887180000000  0.4346470000000  0.5332860000000 1.0
C      1  0.5583190000000  0.5103300000000  0.4432230000000 1.0
C      1  0.4846040000000  0.5663830000000  0.4166520000000 1.0
C      1  0.5321580000000  0.4778460000000  0.4631520000000 1.0
C      1  0.5311100000000  0.5661880000000  0.5689890000000 1.0
C      1  0.4531950000000  0.4599820000000  0.5525430000000 1.0
C      1  0.4945930000000  0.4089930000000  0.5212580000000 1.0
C      1  0.5595030000000  0.4782750000000  0.4485530000000 1.0
C      1  0.5010020000000  0.5024710000000  0.4861020000000 1.0
C      1  0.5731860000000  0.4459300000000  0.4844690000000 1.0
C      1  0.4968850000000  0.5260240000000  0.4694900000000 1.0
C      1  0.4605360000000  0.5243750000000  0.4159870000000 1.0
C      1  0.4786660000000  0.5798480000000  0.4907860000000 1.0
C      1  0.4510880000000  0.5192890000000  0.4676730000000 1.0
C      1  0.4758920000000  0.4153320000000  0.4611750000000 1.0
C      1  0.4725450000000  0.5387090000000  0.4761580000000 1.0
C      1  0.5545350000000  0.4763310000000  0.5631110000000 1.0
C      1  0.4254720000000  0.4616690000000  0.5531420000000 1.0
C      1  0.4692270000000  0.4681760000000  0.5750200000000 1.0
C      1  0.4582440000000  0.5534620000000  0.4229440000000 1.0
C      1  0.5145940000000  0.5101520000000  0.5855300000000 1.0
C      1  0.4445430000000  0.5553600000000  0.5149170000000 1.0
C      1  0.4154090000000  0.5170250000000  0.5059330000000 1.0
C      1  0.5311260000000  0.4290880000000  0.5591400000000 1.0
C      1  0.5233620000000  0.5653170000000  0.4452260000000 1.0
C      1  0.4875450000000  0.5195070000000  0.4060030000000 1.0
C      1  0.5209610000000  0.5412170000000  0.4641840000000 1.0
C      1  0.4259660000000  0.5377030000000  0.4678870000000 1.0
C      1  0.5266710000000  0.5696730000000  0.4901000000000 1.0
C      1  0.4213840000000  0.5042630000000  0.5309680000000 1.0
C      1  0.4575540000000  0.4597640000000  0.4972550000000 1.0
C      1  0.4403590000000  0.5480310000000  0.5436590000000 1.0
C      1  0.5700170000000  0.4581760000000  0.5198590000000 1.0
C      1  0.5544730000000  0.4554840000000  0.4275790000000 1.0
C      1  0.4563160000000  0.5842070000000  0.5116740000000 1.0
C      1  0.5265080000000  0.5858920000000  0.5491640000000 1.0
C      1  0.5477390000000  0.5761410000000  0.4673110000000 1.0
C      1  0.4227220000000  0.5439410000000  0.4976140000000 1.0
C      1  0.5186520000000  0.4258420000000  0.4401140000000 1.0
C      1  0.4140780000000  0.4605110000000  0.5053010000000 1.0
C      1  0.5960500000000  0.4875190000000  0.4819640000000 1.0
C      1  0.5270950000000  0.4155940000000  0.4851350000000 1.0
C      1  0.5796600000000  0.5551540000000  0.4970410000000 1.0
C      1  0.4634440000000  0.5633500000000  0.5548920000000 1.0
C      1  0.5476060000000  0.5256880000000  0.4672170000000 1.0
C      1  0.4179480000000  0.4753990000000  0.5304460000000 1.0
C      1  0.4747980000000  0.4710250000000  0.3994600000000 1.0
C      1  0.4871050000000  0.5029790000000  0.5133370000000 1.0
C      1  0.4867390000000  0.4877220000000  0.4413320000000 1.0
C      1  0.4751170000000  0.4970420000000  0.6134090000000 1.0
C      1  0.5166200000000  0.4536140000000  0.4852970000000 1.0
C      1  0.4942450000000  0.4919330000000  0.3959900000000 1.0
C      1  0.5445800000000  0.4440350000000  0.5141000000000 1.0
C      1  0.5325860000000  0.4871690000000  0.5446310000000 1.0
C      1  0.5342880000000  0.5011030000000  0.4827690000000 1.0
C      1  0.4810800000000  0.4561000000000  0.4777100000000 1.0
C      1  0.4733610000000  0.5851850000000  0.5367890000000 1.0
C      1  0.5085970000000  0.4960570000000  0.5600050000000 1.0
C      1  0.5660910000000  0.5527860000000  0.4718610000000 1.0
C      1  0.5429240000000  0.5099760000000  0.5279320000000 1.0
C      1  0.5052370000000  0.4164480000000  0.4641010000000 1.0
C      1  0.5680200000000  0.5256040000000  0.5373790000000 1.0
C      1  0.5723570000000  0.5769180000000  0.5303420000000 1.0
C      1  0.5511940000000  0.5928240000000  0.5376210000000 1.0
C      1  0.4386440000000  0.4862570000000  0.4844920000000 1.0
C      1  0.4372010000000  0.5191840000000  0.5506130000000 1.0
C      1  0.5217910000000  0.4864700000000  0.4067140000000 1.0
C      1  0.4013310000000  0.4757970000000  0.4847120000000 1.0
C      1  0.5030810000000  0.5455170000000  0.4058480000000 1.0
C      1  0.5657150000000  0.5277450000000  0.5671660000000 1.0
C      1  0.5808930000000  0.5029500000000  0.4999530000000 1.0
C      1  0.4762060000000  0.5380800000000  0.5889190000000 1.0
C      1  0.5413580000000  0.5217780000000  0.4232930000000 1.0
C      1  0.4874580000000  0.4825730000000  0.4694780000000 1.0
C      1  0.4201950000000  0.4579980000000  0.4467490000000 1.0
C      1  0.5919420000000  0.5099110000000  0.5270090000000 1.0
C      1  0.4956520000000  0.5788730000000  0.4415110000000 1.0
C      1  0.5435830000000  0.5430440000000  0.5787610000000 1.0
C      1  0.5054540000000  0.5879240000000  0.5006580000000 1.0
C      1  0.4480640000000  0.5359620000000  0.5942470000000 1.0
C      1  0.4600820000000  0.5058630000000  0.4396610000000 1.0
C      1  0.4376050000000  0.4394020000000  0.4585480000000 1.0
C      1  0.5526290000000  0.4960200000000  0.5045360000000 1.0
C      1  0.4744370000000  0.3991680000000  0.5048990000000 1.0
C      1  0.5418760000000  0.4518380000000  0.5779690000000 1.0
C      1  0.4917680000000  0.5294240000000  0.5266440000000 1.0
C      1  0.5190790000000  0.4633580000000  0.5189060000000 1.0
C      1  0.3984850000000  0.5043460000000  0.4864150000000 1.0
C      1  0.5623610000000  0.5009650000000  0.5808700000000 1.0
C      1  0.5216310000000  0.5300030000000  0.5201500000000 1.0
C      1  0.5405290000000  0.5095130000000  0.5982770000000 1.0
C      1  0.5469470000000  0.4314070000000  0.4441650000000 1.0
C      1  0.4729270000000  0.5794100000000  0.4611690000000 1.0
C      1  0.5429290000000  0.4199980000000  0.5324160000000 1.0
C      1  0.4516010000000  0.5601900000000  0.4512830000000 1.0
C      1  0.5304560000000  0.4585180000000  0.4085650000000 1.0
C      1  0.4822520000000  0.4605890000000  0.4255830000000 1.0
C      1  0.4588540000000  0.4106760000000  0.4851970000000 1.0
C      1  0.5288860000000  0.5478050000000  0.4208080000000 1.0
C      1  0.5194080000000  0.4597640000000  0.5945660000000 1.0
C      1  0.4919690000000  0.4796310000000  0.5304080000000 1.0
C      1  0.5979430000000  0.4875400000000  0.5431160000000 1.0
C      1  0.4316430000000  0.4830270000000  0.4521000000000 1.0
C      1  0.5643490000000  0.5521780000000  0.5202880000000 1.0
C      1  0.5077180000000  0.4447490000000  0.4211240000000 1.0
C      1  0.4969230000000  0.4569360000000  0.5770200000000 1.0
C      1  0.4590190000000  0.4901530000000  0.5911920000000 1.0
C      1  0.5357090000000  0.5540680000000  0.5137200000000 1.0
C      1  0.4719460000000  0.5438080000000  0.5059280000000 1.0
C      1  0.4415210000000  0.5122990000000  0.5795240000000 1.0
C      1  0.4389850000000  0.4358380000000  0.4890420000000 1.0
C      1  0.4843240000000  0.5443130000000  0.5614190000000 1.0
C      1  0.5027470000000  0.5836780000000  0.5301210000000 1.0
C      1  0.4669370000000  0.4420510000000  0.4521140000000 1.0
C      1  0.5234130000000  0.4051400000000  0.5140560000000 1.0
END
