TITL C-950535-5962-351 -2.34168971910707e-06 125000 -557.427565426506 0 0 91 (C1) n - 1
REM
REM in /home/bkarasulu/work/CARBON/AIRSS/Generating-Clusters/EDIP-Nigel-Params/with-SteepDescent/Only-C1/SD-CG/HFTN-CG
REM
REM
REM
REM
REM
REM ./C.cell (11c1c37f851c82e70ff6c80c92926a4b)
REM
REM compiler GCC version 9.2.1 20190827 (Red Hat 9.2.1-1)
REM options -cpp -mtune=generic -march=x86-64 -g -O0 -fpre-include=/usr/include/finclude/math-vector-fortran.h
REM seed 1959999514 1681048795 346060205 -711632586 -41824415 -1074014253 -1485354991 -1019316189 -884017485 -1011887197 2109423094 -595361610 -893671793 -179329208 -454947020 -1942406425 -198915730 -176365001 713248142 366188750 1957326640 600394796 125806984 -400405193 -412615188 1661986012 -335764112 37002673 1104922031 602814568 994169463 -1028060959 -1689426972
REM
CELL 1.54180   50.00000   50.00000   50.00000   90.00000   90.00000   90.00000
LATT -1
SFAC C  
C      1  0.5368420000000  0.5789380000000  0.4896200000000 1.0
C      1  0.5066160000000  0.4665960000000  0.5843660000000 1.0
C      1  0.4892070000000  0.5840880000000  0.5064990000000 1.0
C      1  0.4194780000000  0.4702520000000  0.4559600000000 1.0
C      1  0.4406590000000  0.4433600000000  0.4957950000000 1.0
C      1  0.5560750000000  0.5777120000000  0.4696060000000 1.0
C      1  0.4928490000000  0.4308400000000  0.4850970000000 1.0
C      1  0.4424640000000  0.4282610000000  0.4714470000000 1.0
C      1  0.4700720000000  0.5040610000000  0.5597120000000 1.0
C      1  0.5434760000000  0.4267480000000  0.5173320000000 1.0
C      1  0.5455900000000  0.4833740000000  0.4539210000000 1.0
C      1  0.5591760000000  0.5507170000000  0.4636040000000 1.0
C      1  0.5655830000000  0.4994310000000  0.4380690000000 1.0
C      1  0.5171480000000  0.4220660000000  0.5300250000000 1.0
C      1  0.5126710000000  0.5004100000000  0.5368500000000 1.0
C      1  0.5332730000000  0.4677340000000  0.5752600000000 1.0
C      1  0.5560060000000  0.4538910000000  0.4545190000000 1.0
C      1  0.4914400000000  0.5013470000000  0.5152530000000 1.0
C      1  0.4871110000000  0.4531970000000  0.5400050000000 1.0
C      1  0.4960040000000  0.5434500000000  0.5564180000000 1.0
C      1  0.4941140000000  0.4747510000000  0.4865220000000 1.0
C      1  0.5370170000000  0.5337310000000  0.4526800000000 1.0
C      1  0.4281520000000  0.4959640000000  0.5640940000000 1.0
C      1  0.4684190000000  0.5372810000000  0.4552200000000 1.0
C      1  0.4669650000000  0.4965940000000  0.5311690000000 1.0
C      1  0.4708400000000  0.4473390000000  0.4423970000000 1.0
C      1  0.5475260000000  0.5210480000000  0.4267170000000 1.0
C      1  0.4250060000000  0.4429050000000  0.4543800000000 1.0
C      1  0.5199340000000  0.4732380000000  0.4385700000000 1.0
C      1  0.5116210000000  0.5517820000000  0.4454520000000 1.0
C      1  0.5883580000000  0.5211210000000  0.5041290000000 1.0
C      1  0.5183480000000  0.5580040000000  0.5471030000000 1.0
C      1  0.4379580000000  0.5216870000000  0.5722710000000 1.0
C      1  0.5305980000000  0.4386760000000  0.4489950000000 1.0
C      1  0.5327610000000  0.5063990000000  0.4700100000000 1.0
C      1  0.4656950000000  0.5698590000000  0.4950880000000 1.0
C      1  0.5208810000000  0.4690670000000  0.5025780000000 1.0
C      1  0.4141140000000  0.5204710000000  0.5208950000000 1.0
C      1  0.4078810000000  0.5188450000000  0.4930620000000 1.0
C      1  0.4437770000000  0.4883140000000  0.4552600000000 1.0
C      1  0.4402270000000  0.5207800000000  0.4516000000000 1.0
C      1  0.4161450000000  0.4956030000000  0.5370440000000 1.0
C      1  0.4649380000000  0.4630560000000  0.4972440000000 1.0
C      1  0.5610730000000  0.5588560000000  0.5270880000000 1.0
C      1  0.5139620000000  0.4676970000000  0.5334990000000 1.0
C      1  0.4466100000000  0.5411540000000  0.5533400000000 1.0
C      1  0.4337390000000  0.5414470000000  0.5270960000000 1.0
C      1  0.4404340000000  0.5598100000000  0.5053930000000 1.0
C      1  0.5320570000000  0.5175360000000  0.5193940000000 1.0
C      1  0.5626100000000  0.4968770000000  0.5435860000000 1.0
C      1  0.4172860000000  0.4629250000000  0.4942450000000 1.0
C      1  0.4324830000000  0.5301730000000  0.4818840000000 1.0
C      1  0.4162130000000  0.4690880000000  0.5239550000000 1.0
C      1  0.4796670000000  0.5201660000000  0.4774330000000 1.0
C      1  0.5239790000000  0.5084160000000  0.4123790000000 1.0
C      1  0.5625420000000  0.4534350000000  0.4824570000000 1.0
C      1  0.4377670000000  0.4567740000000  0.5376650000000 1.0
C      1  0.5691250000000  0.4732220000000  0.5269880000000 1.0
C      1  0.4711150000000  0.4291150000000  0.4638810000000 1.0
C      1  0.4973620000000  0.5734750000000  0.4606460000000 1.0
C      1  0.5743610000000  0.5223030000000  0.5305110000000 1.0
C      1  0.5666320000000  0.4793770000000  0.4973030000000 1.0
C      1  0.4553250000000  0.5130740000000  0.4922720000000 1.0
C      1  0.5322640000000  0.4506950000000  0.5514010000000 1.0
C      1  0.4830700000000  0.4594450000000  0.5703090000000 1.0
C      1  0.5013450000000  0.5147800000000  0.5623060000000 1.0
C      1  0.5370980000000  0.4437250000000  0.4941450000000 1.0
C      1  0.5835370000000  0.5375880000000  0.4701950000000 1.0
C      1  0.4705640000000  0.5543720000000  0.5582180000000 1.0
C      1  0.4999580000000  0.5252670000000  0.4985040000000 1.0
C      1  0.5433630000000  0.5801760000000  0.5175460000000 1.0
C      1  0.4925000000000  0.4258870000000  0.5149080000000 1.0
C      1  0.5254510000000  0.4801020000000  0.4103160000000 1.0
C      1  0.5203010000000  0.4298570000000  0.4746270000000 1.0
C      1  0.5392200000000  0.4944930000000  0.4969010000000 1.0
C      1  0.5412180000000  0.5414000000000  0.5392220000000 1.0
C      1  0.5255580000000  0.5130120000000  0.5792880000000 1.0
C      1  0.5437770000000  0.4941490000000  0.5680190000000 1.0
C      1  0.4895920000000  0.5367400000000  0.4337480000000 1.0
C      1  0.4940420000000  0.4854020000000  0.4546540000000 1.0
C      1  0.4689570000000  0.5660540000000  0.4660460000000 1.0
C      1  0.5868020000000  0.5099030000000  0.4596870000000 1.0
C      1  0.5586230000000  0.4466930000000  0.5368330000000 1.0
C      1  0.4686070000000  0.4751890000000  0.4430590000000 1.0
C      1  0.5172700000000  0.5815450000000  0.5311650000000 1.0
C      1  0.5090410000000  0.5847000000000  0.4848680000000 1.0
C      1  0.4994400000000  0.5113210000000  0.4274180000000 1.0
C      1  0.4475070000000  0.4858570000000  0.4852360000000 1.0
C      1  0.5883730000000  0.4972570000000  0.4874080000000 1.0
C      1  0.4634150000000  0.4672480000000  0.5273560000000 1.0
C      1  0.4617480000000  0.4792320000000  0.5737680000000 1.0
END
