TITL C-950535-5962-65 -2.8075025627914e-06 125000 -1053.19016918697 0 0 167 (C1) n - 1
REM
REM in /home/bkarasulu/work/CARBON/AIRSS/Generating-Clusters/EDIP-Nigel-Params/with-SteepDescent/Only-C1/SD-CG/HFTN-CG
REM
REM
REM
REM
REM
REM ./C.cell (11c1c37f851c82e70ff6c80c92926a4b)
REM
REM compiler GCC version 9.2.1 20190827 (Red Hat 9.2.1-1)
REM options -cpp -mtune=generic -march=x86-64 -g -O0 -fpre-include=/usr/include/finclude/math-vector-fortran.h
REM seed -763734055 2033156031 -1795286558 -681290155 -197465754 -2097376453 274921296 -656052027 1754928381 169693695 704681776 -1375774983 -1025823982 1047491242 -353077156 -2092550431 -445327242 129152156 -1380573482 1264816240 -1081700599 1224994900 1357420089 -234099861 2114319951 -755062711 -461277433 -748268738 2128792324 1517791919 94699842 -1591905394 -67669082
REM
CELL 1.54180   50.00000   50.00000   50.00000   90.00000   90.00000   90.00000
LATT -1
SFAC C  
C      1  0.5622740000000  0.5095050000000  0.5798410000000 1.0
C      1  0.4885130000000  0.4656510000000  0.4912620000000 1.0
C      1  0.4967080000000  0.4219080000000  0.5061100000000 1.0
C      1  0.4400360000000  0.5918560000000  0.5225130000000 1.0
C      1  0.5751450000000  0.5191440000000  0.4295200000000 1.0
C      1  0.5941620000000  0.5259640000000  0.5434870000000 1.0
C      1  0.5167590000000  0.5510350000000  0.4960480000000 1.0
C      1  0.4458280000000  0.5240350000000  0.5134250000000 1.0
C      1  0.5244550000000  0.5040800000000  0.4994940000000 1.0
C      1  0.5729490000000  0.4460420000000  0.4468060000000 1.0
C      1  0.5020390000000  0.5918710000000  0.4294810000000 1.0
C      1  0.4553060000000  0.4063610000000  0.5322070000000 1.0
C      1  0.5656410000000  0.4872200000000  0.5147990000000 1.0
C      1  0.4342880000000  0.4716660000000  0.5197750000000 1.0
C      1  0.5131530000000  0.4756040000000  0.5068300000000 1.0
C      1  0.5975430000000  0.5367680000000  0.4985650000000 1.0
C      1  0.5587170000000  0.5656860000000  0.4340340000000 1.0
C      1  0.4996520000000  0.5580940000000  0.5811790000000 1.0
C      1  0.4124730000000  0.4344010000000  0.4990590000000 1.0
C      1  0.4577120000000  0.5244830000000  0.5984080000000 1.0
C      1  0.5542990000000  0.5211890000000  0.4107030000000 1.0
C      1  0.5059840000000  0.4780970000000  0.5362830000000 1.0
C      1  0.5030150000000  0.4493460000000  0.4686770000000 1.0
C      1  0.4217340000000  0.5411690000000  0.5688210000000 1.0
C      1  0.4642900000000  0.4957600000000  0.4056520000000 1.0
C      1  0.4078020000000  0.5655530000000  0.5072950000000 1.0
C      1  0.3903550000000  0.4819030000000  0.5000480000000 1.0
C      1  0.4623780000000  0.4772570000000  0.4504430000000 1.0
C      1  0.5068740000000  0.5249200000000  0.4286000000000 1.0
C      1  0.5459390000000  0.5978790000000  0.5035260000000 1.0
C      1  0.5459160000000  0.4840440000000  0.4640130000000 1.0
C      1  0.4613190000000  0.5462720000000  0.5253780000000 1.0
C      1  0.4773950000000  0.5410060000000  0.4266890000000 1.0
C      1  0.5465910000000  0.5346730000000  0.5787830000000 1.0
C      1  0.4889520000000  0.5190070000000  0.5673060000000 1.0
C      1  0.6050800000000  0.4673250000000  0.5323900000000 1.0
C      1  0.5382860000000  0.4013730000000  0.5215830000000 1.0
C      1  0.4853760000000  0.4149710000000  0.4612260000000 1.0
C      1  0.3967800000000  0.4919380000000  0.5426780000000 1.0
C      1  0.5132370000000  0.4595380000000  0.5951870000000 1.0
C      1  0.5463100000000  0.4216490000000  0.5682390000000 1.0
C      1  0.5532270000000  0.4715140000000  0.5417890000000 1.0
C      1  0.4849360000000  0.4940200000000  0.4576320000000 1.0
C      1  0.4854460000000  0.6044550000000  0.5297800000000 1.0
C      1  0.5943290000000  0.4971090000000  0.4660370000000 1.0
C      1  0.5766370000000  0.5580760000000  0.5092530000000 1.0
C      1  0.5765730000000  0.5451820000000  0.4453230000000 1.0
C      1  0.4147920000000  0.5633580000000  0.4392200000000 1.0
C      1  0.4244870000000  0.4982210000000  0.5333130000000 1.0
C      1  0.4834950000000  0.4551210000000  0.5928800000000 1.0
C      1  0.5285280000000  0.5060320000000  0.4707500000000 1.0
C      1  0.4820720000000  0.5618180000000  0.5094650000000 1.0
C      1  0.5457720000000  0.5897960000000  0.5298750000000 1.0
C      1  0.4827650000000  0.4005740000000  0.4886220000000 1.0
C      1  0.4243780000000  0.4596100000000  0.5700350000000 1.0
C      1  0.4280720000000  0.5749440000000  0.4610190000000 1.0
C      1  0.5017340000000  0.4260470000000  0.5493250000000 1.0
C      1  0.5792810000000  0.4319060000000  0.5539900000000 1.0
C      1  0.5369960000000  0.5732440000000  0.5503220000000 1.0
C      1  0.4589170000000  0.5798350000000  0.4574620000000 1.0
C      1  0.4376810000000  0.4805210000000  0.5874720000000 1.0
C      1  0.4520890000000  0.4783520000000  0.4964510000000 1.0
C      1  0.5002230000000  0.4301790000000  0.4188340000000 1.0
C      1  0.4423930000000  0.5648160000000  0.5377760000000 1.0
C      1  0.5404790000000  0.4477520000000  0.5299780000000 1.0
C      1  0.4661760000000  0.5025730000000  0.5062120000000 1.0
C      1  0.5966300000000  0.4873260000000  0.5120520000000 1.0
C      1  0.5387170000000  0.4968590000000  0.4069350000000 1.0
C      1  0.5500730000000  0.5430090000000  0.4990660000000 1.0
C      1  0.4552770000000  0.4066380000000  0.5022380000000 1.0
C      1  0.4646560000000  0.4773980000000  0.6004750000000 1.0
C      1  0.5076240000000  0.5307340000000  0.5434140000000 1.0
C      1  0.4686540000000  0.5483390000000  0.5827790000000 1.0
C      1  0.4151260000000  0.4796920000000  0.4579270000000 1.0
C      1  0.3972860000000  0.4969040000000  0.4744350000000 1.0
C      1  0.5426400000000  0.5469700000000  0.4166080000000 1.0
C      1  0.5064320000000  0.5292760000000  0.3900880000000 1.0
C      1  0.5217740000000  0.5524330000000  0.3976940000000 1.0
C      1  0.4496120000000  0.4765040000000  0.4228550000000 1.0
C      1  0.5783030000000  0.4333530000000  0.5013060000000 1.0
C      1  0.4411000000000  0.5352420000000  0.4871510000000 1.0
C      1  0.5611220000000  0.5343460000000  0.4688050000000 1.0
C      1  0.4696730000000  0.5524800000000  0.4535560000000 1.0
C      1  0.5728410000000  0.4930350000000  0.4456500000000 1.0
C      1  0.5064900000000  0.4113900000000  0.4405820000000 1.0
C      1  0.5195960000000  0.4323720000000  0.4881720000000 1.0
C      1  0.5572980000000  0.4121940000000  0.4999120000000 1.0
C      1  0.5093950000000  0.5616850000000  0.5519150000000 1.0
C      1  0.5244640000000  0.4652570000000  0.4507070000000 1.0
C      1  0.5484880000000  0.5145320000000  0.5159020000000 1.0
C      1  0.4554490000000  0.5225190000000  0.4158690000000 1.0
C      1  0.3785880000000  0.4958290000000  0.5214640000000 1.0
C      1  0.3959800000000  0.5262600000000  0.4661380000000 1.0
C      1  0.5137840000000  0.5014200000000  0.3924390000000 1.0
C      1  0.4543390000000  0.4520130000000  0.5329420000000 1.0
C      1  0.5399510000000  0.4005030000000  0.4772110000000 1.0
C      1  0.5849880000000  0.5050220000000  0.5615330000000 1.0
C      1  0.6009500000000  0.4753370000000  0.4836000000000 1.0
C      1  0.4698220000000  0.5909920000000  0.4314920000000 1.0
C      1  0.5116230000000  0.5533880000000  0.4672030000000 1.0
C      1  0.5830890000000  0.5191520000000  0.4810700000000 1.0
C      1  0.5164470000000  0.5813560000000  0.4564750000000 1.0
C      1  0.4327780000000  0.4190680000000  0.4871540000000 1.0
C      1  0.5559920000000  0.5541620000000  0.5581640000000 1.0
C      1  0.5731310000000  0.4600780000000  0.5634540000000 1.0
C      1  0.5186660000000  0.3902580000000  0.4991980000000 1.0
C      1  0.5918410000000  0.4399340000000  0.5276890000000 1.0
C      1  0.4416030000000  0.5103960000000  0.5550080000000 1.0
C      1  0.4833250000000  0.5144360000000  0.4839820000000 1.0
C      1  0.4218570000000  0.4889290000000  0.4297200000000 1.0
C      1  0.5516700000000  0.4701050000000  0.4084510000000 1.0
C      1  0.4691820000000  0.5406330000000  0.4796160000000 1.0
C      1  0.5337110000000  0.4545140000000  0.5029570000000 1.0
C      1  0.5515670000000  0.4878750000000  0.5967590000000 1.0
C      1  0.4180550000000  0.5527730000000  0.4813110000000 1.0
C      1  0.4809300000000  0.4078990000000  0.5441280000000 1.0
C      1  0.5188970000000  0.5375020000000  0.5929730000000 1.0
C      1  0.4332470000000  0.4324880000000  0.5698340000000 1.0
C      1  0.4155410000000  0.5521080000000  0.5327030000000 1.0
C      1  0.5751450000000  0.4690650000000  0.4279810000000 1.0
C      1  0.5780540000000  0.5501810000000  0.5393950000000 1.0
C      1  0.4385780000000  0.4284100000000  0.5421160000000 1.0
C      1  0.5965630000000  0.4777920000000  0.5595510000000 1.0
C      1  0.4921170000000  0.5772100000000  0.5330960000000 1.0
C      1  0.4092610000000  0.5358380000000  0.4414880000000 1.0
C      1  0.4765280000000  0.4448670000000  0.5102790000000 1.0
C      1  0.5309930000000  0.4225040000000  0.5426250000000 1.0
C      1  0.5032030000000  0.5990200000000  0.4763470000000 1.0
C      1  0.5379420000000  0.4420430000000  0.5892480000000 1.0
C      1  0.5475980000000  0.5828580000000  0.4569660000000 1.0
C      1  0.6065790000000  0.5167480000000  0.5186210000000 1.0
C      1  0.5054480000000  0.4933130000000  0.4356150000000 1.0
C      1  0.4745820000000  0.5927080000000  0.4822960000000 1.0
C      1  0.5342860000000  0.4457050000000  0.4124260000000 1.0
C      1  0.4418940000000  0.4804070000000  0.4693910000000 1.0
C      1  0.5215720000000  0.6079930000000  0.4948970000000 1.0
C      1  0.4763420000000  0.5039630000000  0.6065550000000 1.0
C      1  0.5857410000000  0.4495080000000  0.4761100000000 1.0
C      1  0.5428770000000  0.4409750000000  0.4409520000000 1.0
C      1  0.4702520000000  0.4317470000000  0.4217650000000 1.0
C      1  0.5609620000000  0.4606600000000  0.5906140000000 1.0
C      1  0.5048460000000  0.5245930000000  0.5052940000000 1.0
C      1  0.4822200000000  0.4967080000000  0.5309660000000 1.0
C      1  0.4687840000000  0.4974020000000  0.5562540000000 1.0
C      1  0.4768030000000  0.5679930000000  0.4107830000000 1.0
C      1  0.4295410000000  0.5176860000000  0.4306450000000 1.0
C      1  0.5612430000000  0.5829760000000  0.4841250000000 1.0
C      1  0.5332030000000  0.4143700000000  0.4505700000000 1.0
C      1  0.5355270000000  0.5175640000000  0.5451830000000 1.0
C      1  0.4611090000000  0.4192360000000  0.4463520000000 1.0
C      1  0.4368740000000  0.4212560000000  0.4597840000000 1.0
C      1  0.5255010000000  0.5313970000000  0.4537070000000 1.0
C      1  0.5563160000000  0.4700040000000  0.4901430000000 1.0
C      1  0.4518730000000  0.4500330000000  0.4111210000000 1.0
C      1  0.4330470000000  0.5119290000000  0.5854230000000 1.0
C      1  0.5054640000000  0.5761020000000  0.4018840000000 1.0
C      1  0.5228840000000  0.4861300000000  0.6019410000000 1.0
C      1  0.4648070000000  0.6025770000000  0.5096370000000 1.0
C      1  0.4913870000000  0.4855480000000  0.4011830000000 1.0
C      1  0.4160440000000  0.5926520000000  0.5076830000000 1.0
C      1  0.4667710000000  0.4649110000000  0.5586680000000 1.0
C      1  0.4448720000000  0.5614900000000  0.5684920000000 1.0
C      1  0.5058700000000  0.5103370000000  0.6016310000000 1.0
C      1  0.4958110000000  0.4547990000000  0.5557290000000 1.0
C      1  0.4022840000000  0.4644310000000  0.5509340000000 1.0
C      1  0.4071410000000  0.4590970000000  0.5133940000000 1.0
C      1  0.5302430000000  0.4890470000000  0.5502040000000 1.0
END
