TITL C-950533-5798-670 4.22473494631392e-07 125000 -235.768362735321 0 0 39 (C1) n - 1
REM
REM in /home/bkarasulu/work/CARBON/AIRSS/Generating-Clusters/EDIP-Nigel-Params/with-SteepDescent/Only-C1/SD-CG/HFTN-CG
REM
REM
REM
REM
REM
REM ./C.cell (11c1c37f851c82e70ff6c80c92926a4b)
REM
REM compiler GCC version 9.2.1 20190827 (Red Hat 9.2.1-1)
REM options -cpp -mtune=generic -march=x86-64 -g -O0 -fpre-include=/usr/include/finclude/math-vector-fortran.h
REM seed 1594589872 -1348559114 72203270 916104617 -2115718212 -56854545 -26786151 1123235265 -121310954 -1694397530 -2032674593 -1563443726 279772078 524033080 690825697 1647638663 -1639564520 2036026541 -1023806471 807913595 955311737 -1439429550 249047374 1637029066 1293667034 52784057 1525667834 943175370 -1621472110 -408189426 -1261033501 1477656227 -387390457
REM
CELL 1.54180   50.00000   50.00000   50.00000   90.00000   90.00000   90.00000
LATT -1
SFAC C  
C      1  0.4756120000000  0.4951090000000  0.5218250000000 1.0
C      1  0.4719640000000  0.5336460000000  0.4866200000000 1.0
C      1  0.5501320000000  0.4970240000000  0.4559270000000 1.0
C      1  0.4796880000000  0.4470040000000  0.5339870000000 1.0
C      1  0.4996350000000  0.5421790000000  0.4970570000000 1.0
C      1  0.5053210000000  0.4535410000000  0.5429570000000 1.0
C      1  0.5094700000000  0.4812520000000  0.4292090000000 1.0
C      1  0.5314320000000  0.5481040000000  0.5591280000000 1.0
C      1  0.4504040000000  0.4897480000000  0.4780520000000 1.0
C      1  0.5451010000000  0.5128480000000  0.4802690000000 1.0
C      1  0.5541210000000  0.5464620000000  0.5079720000000 1.0
C      1  0.5290310000000  0.4795190000000  0.5113720000000 1.0
C      1  0.4979100000000  0.4679310000000  0.4768560000000 1.0
C      1  0.5514780000000  0.4981750000000  0.5058370000000 1.0
C      1  0.4832860000000  0.5189230000000  0.4413520000000 1.0
C      1  0.4915080000000  0.5134900000000  0.5394040000000 1.0
C      1  0.4296730000000  0.4788520000000  0.5210580000000 1.0
C      1  0.4524380000000  0.4816610000000  0.5367940000000 1.0
C      1  0.5040720000000  0.4895480000000  0.4962360000000 1.0
C      1  0.5389210000000  0.5220750000000  0.5509800000000 1.0
C      1  0.4638250000000  0.5080770000000  0.4975070000000 1.0
C      1  0.4525450000000  0.4515970000000  0.4862300000000 1.0
C      1  0.4750420000000  0.4428070000000  0.5049140000000 1.0
C      1  0.4727710000000  0.4732220000000  0.4613230000000 1.0
C      1  0.4984430000000  0.4422960000000  0.4891660000000 1.0
C      1  0.5165450000000  0.5015080000000  0.5525480000000 1.0
C      1  0.4588710000000  0.4575190000000  0.5494880000000 1.0
C      1  0.4945090000000  0.5407040000000  0.5275730000000 1.0
C      1  0.5164130000000  0.5580740000000  0.5372660000000 1.0
C      1  0.5242900000000  0.4742990000000  0.5403800000000 1.0
C      1  0.5105860000000  0.5203410000000  0.4518280000000 1.0
C      1  0.5137580000000  0.5167920000000  0.4821830000000 1.0
C      1  0.4663330000000  0.5325930000000  0.4592240000000 1.0
C      1  0.5543850000000  0.5213940000000  0.5247440000000 1.0
C      1  0.5590680000000  0.5387080000000  0.4810930000000 1.0
C      1  0.5299530000000  0.5616750000000  0.5115010000000 1.0
C      1  0.5275750000000  0.5007270000000  0.4391700000000 1.0
C      1  0.4310740000000  0.4714800000000  0.4942560000000 1.0
C      1  0.4828170000000  0.4890960000000  0.4367160000000 1.0
END
