TITL C-950532-2784-175 9.45186129712268e-07 125000 -1017.16435697534 0 0 163 (C1) n - 1
REM
REM in /home/bkarasulu/work/CARBON/AIRSS/Generating-Clusters/EDIP-Nigel-Params/with-SteepDescent/Only-C1/SD-CG/HFTN-CG
REM
REM
REM
REM
REM
REM ./C.cell (11c1c37f851c82e70ff6c80c92926a4b)
REM
REM compiler GCC version 9.2.1 20190827 (Red Hat 9.2.1-1)
REM options -cpp -mtune=generic -march=x86-64 -g -O0 -fpre-include=/usr/include/finclude/math-vector-fortran.h
REM seed -54454330 -2121553539 -1427798836 -1803726719 1669099928 -48377085 739319049 319909139 -2141621976 -334635873 -236675785 -7130741 1549016214 -532227980 -1375280982 986139777 -561998147 -532854855 -665297096 2119903498 1553216773 529408587 -1383239393 137693767 -1676159250 -1252214067 205231519 -1877295446 -78480428 1209856706 1067021687 1331981468 -504799244
REM
CELL 1.54180   50.00000   50.00000   50.00000   90.00000   90.00000   90.00000
LATT -1
SFAC C  
C      1  0.5032250000000  0.4979510000000  0.5629530000000 1.0
C      1  0.4236190000000  0.5448250000000  0.5338250000000 1.0
C      1  0.4372270000000  0.4895650000000  0.4890030000000 1.0
C      1  0.4193050000000  0.5193740000000  0.4327860000000 1.0
C      1  0.5173520000000  0.6083550000000  0.5418710000000 1.0
C      1  0.5481320000000  0.4649010000000  0.5552220000000 1.0
C      1  0.5028240000000  0.4951930000000  0.4779160000000 1.0
C      1  0.4547600000000  0.4807640000000  0.4103270000000 1.0
C      1  0.4902210000000  0.5951110000000  0.4705460000000 1.0
C      1  0.4716560000000  0.4662770000000  0.4582910000000 1.0
C      1  0.4092610000000  0.5212230000000  0.5451310000000 1.0
C      1  0.4951310000000  0.4666080000000  0.5969810000000 1.0
C      1  0.5164300000000  0.4559820000000  0.4422050000000 1.0
C      1  0.5265000000000  0.5687830000000  0.5686910000000 1.0
C      1  0.4329310000000  0.5682410000000  0.4352720000000 1.0
C      1  0.4929760000000  0.4745810000000  0.4369150000000 1.0
C      1  0.5241690000000  0.4951310000000  0.5236770000000 1.0
C      1  0.4499010000000  0.4749890000000  0.6068060000000 1.0
C      1  0.4187210000000  0.4731960000000  0.4427210000000 1.0
C      1  0.4836250000000  0.5423490000000  0.5918550000000 1.0
C      1  0.4000660000000  0.5506870000000  0.4698920000000 1.0
C      1  0.4698570000000  0.6083960000000  0.5125690000000 1.0
C      1  0.5764320000000  0.4402670000000  0.4788540000000 1.0
C      1  0.5110780000000  0.5224460000000  0.5182250000000 1.0
C      1  0.4800070000000  0.4891380000000  0.3975290000000 1.0
C      1  0.4575370000000  0.5401220000000  0.5733230000000 1.0
C      1  0.4825820000000  0.5146490000000  0.6042160000000 1.0
C      1  0.5371190000000  0.4151130000000  0.4553310000000 1.0
C      1  0.4062670000000  0.4968940000000  0.5288670000000 1.0
C      1  0.5046540000000  0.4518580000000  0.5464780000000 1.0
C      1  0.5662190000000  0.4859520000000  0.5601340000000 1.0
C      1  0.5778380000000  0.5277180000000  0.5691050000000 1.0
C      1  0.5121900000000  0.4483550000000  0.4857780000000 1.0
C      1  0.4886480000000  0.5657150000000  0.4749650000000 1.0
C      1  0.4131300000000  0.5703210000000  0.4548560000000 1.0
C      1  0.4890350000000  0.5453050000000  0.4159140000000 1.0
C      1  0.4866500000000  0.4180670000000  0.5158030000000 1.0
C      1  0.4893590000000  0.4678940000000  0.4838460000000 1.0
C      1  0.4349800000000  0.4249400000000  0.5103850000000 1.0
C      1  0.4533140000000  0.5880540000000  0.5221470000000 1.0
C      1  0.4231560000000  0.4449870000000  0.4431210000000 1.0
C      1  0.4393630000000  0.5604970000000  0.5588690000000 1.0
C      1  0.5324750000000  0.4034610000000  0.4831790000000 1.0
C      1  0.5931760000000  0.4632760000000  0.4806870000000 1.0
C      1  0.5264970000000  0.5596910000000  0.4253810000000 1.0
C      1  0.4597130000000  0.5802970000000  0.4410340000000 1.0
C      1  0.4867200000000  0.5146690000000  0.3845120000000 1.0
C      1  0.5408670000000  0.5019690000000  0.4327290000000 1.0
C      1  0.5073610000000  0.5883620000000  0.5586190000000 1.0
C      1  0.4757050000000  0.4678170000000  0.5101200000000 1.0
C      1  0.5305780000000  0.5410450000000  0.4031980000000 1.0
C      1  0.4391110000000  0.5210360000000  0.5862570000000 1.0
C      1  0.4592130000000  0.4119300000000  0.4384790000000 1.0
C      1  0.5551220000000  0.5093490000000  0.5727700000000 1.0
C      1  0.3979340000000  0.4587610000000  0.5009160000000 1.0
C      1  0.4972340000000  0.5377610000000  0.5443780000000 1.0
C      1  0.4875380000000  0.5703420000000  0.5469310000000 1.0
C      1  0.4594820000000  0.5589220000000  0.4801660000000 1.0
C      1  0.4759960000000  0.4978560000000  0.5511560000000 1.0
C      1  0.4139500000000  0.4317040000000  0.4655710000000 1.0
C      1  0.5929130000000  0.4815280000000  0.5210360000000 1.0
C      1  0.5468070000000  0.4941090000000  0.5045490000000 1.0
C      1  0.5735650000000  0.5777830000000  0.4584310000000 1.0
C      1  0.5397010000000  0.5693650000000  0.5178230000000 1.0
C      1  0.4512530000000  0.4395950000000  0.4380090000000 1.0
C      1  0.5986630000000  0.5129370000000  0.4846140000000 1.0
C      1  0.5315510000000  0.4319300000000  0.5820650000000 1.0
C      1  0.4100930000000  0.4757860000000  0.5464510000000 1.0
C      1  0.5676650000000  0.4704300000000  0.5088140000000 1.0
C      1  0.5367850000000  0.4244300000000  0.5284860000000 1.0
C      1  0.5810030000000  0.4355060000000  0.5773320000000 1.0
C      1  0.4845670000000  0.4135920000000  0.4526340000000 1.0
C      1  0.5047730000000  0.5479650000000  0.4556820000000 1.0
C      1  0.5431780000000  0.5112690000000  0.4609970000000 1.0
C      1  0.4206570000000  0.5230200000000  0.4966530000000 1.0
C      1  0.4137380000000  0.4367430000000  0.4928110000000 1.0
C      1  0.5188010000000  0.4272240000000  0.5550550000000 1.0
C      1  0.5144660000000  0.5970060000000  0.4538410000000 1.0
C      1  0.4819910000000  0.4132830000000  0.5806750000000 1.0
C      1  0.4836700000000  0.4457760000000  0.5280480000000 1.0
C      1  0.4618760000000  0.4147470000000  0.4993120000000 1.0
C      1  0.5552180000000  0.4470700000000  0.5782620000000 1.0
C      1  0.5128690000000  0.5468890000000  0.5845940000000 1.0
C      1  0.5133660000000  0.4455530000000  0.5982760000000 1.0
C      1  0.4711710000000  0.5383190000000  0.3921920000000 1.0
C      1  0.4283350000000  0.4916930000000  0.4228200000000 1.0
C      1  0.4493440000000  0.4873650000000  0.4606250000000 1.0
C      1  0.5599610000000  0.4529680000000  0.4350690000000 1.0
C      1  0.5564400000000  0.5232310000000  0.5036230000000 1.0
C      1  0.5656100000000  0.5493340000000  0.4581210000000 1.0
C      1  0.5605680000000  0.5922610000000  0.4795350000000 1.0
C      1  0.4439710000000  0.5376860000000  0.3962720000000 1.0
C      1  0.5635430000000  0.4803050000000  0.4288820000000 1.0
C      1  0.5546800000000  0.4508080000000  0.5292800000000 1.0
C      1  0.4066910000000  0.5496530000000  0.4992610000000 1.0
C      1  0.5131310000000  0.5244550000000  0.3880360000000 1.0
C      1  0.5329380000000  0.4900280000000  0.4782020000000 1.0
C      1  0.4874920000000  0.3976190000000  0.5359810000000 1.0
C      1  0.5325270000000  0.5391760000000  0.4695570000000 1.0
C      1  0.5176360000000  0.5959980000000  0.5161810000000 1.0
C      1  0.4938980000000  0.6053800000000  0.4987430000000 1.0
C      1  0.4651930000000  0.6032190000000  0.4569640000000 1.0
C      1  0.5170270000000  0.4227560000000  0.5020800000000 1.0
C      1  0.4923830000000  0.5162950000000  0.4963370000000 1.0
C      1  0.5526410000000  0.3972080000000  0.5290570000000 1.0
C      1  0.5090370000000  0.4261950000000  0.4366590000000 1.0
C      1  0.5320010000000  0.4607580000000  0.4682920000000 1.0
C      1  0.5514820000000  0.5243500000000  0.4149550000000 1.0
C      1  0.5760360000000  0.4230650000000  0.5020730000000 1.0
C      1  0.4698240000000  0.5269100000000  0.5485410000000 1.0
C      1  0.5782860000000  0.5355120000000  0.4861530000000 1.0
C      1  0.4156400000000  0.5159380000000  0.5719610000000 1.0
C      1  0.5776250000000  0.3992320000000  0.5426800000000 1.0
C      1  0.4483900000000  0.4753430000000  0.5123550000000 1.0
C      1  0.5456340000000  0.5608170000000  0.5467700000000 1.0
C      1  0.5932730000000  0.4784200000000  0.5498770000000 1.0
C      1  0.5886210000000  0.4918270000000  0.4404440000000 1.0
C      1  0.4989830000000  0.4058120000000  0.5596410000000 1.0
C      1  0.4956690000000  0.5636190000000  0.5132480000000 1.0
C      1  0.6037260000000  0.5062770000000  0.5124130000000 1.0
C      1  0.4998430000000  0.4682780000000  0.3990830000000 1.0
C      1  0.4501210000000  0.5306880000000  0.4779350000000 1.0
C      1  0.4584760000000  0.5164350000000  0.4532710000000 1.0
C      1  0.5581570000000  0.3989360000000  0.4990520000000 1.0
C      1  0.4628350000000  0.5617220000000  0.5104560000000 1.0
C      1  0.4663420000000  0.4612080000000  0.5868790000000 1.0
C      1  0.4580950000000  0.5810990000000  0.5501540000000 1.0
C      1  0.4620200000000  0.4520160000000  0.4143080000000 1.0
C      1  0.5885440000000  0.4230000000000  0.5308370000000 1.0
C      1  0.5042450000000  0.4957400000000  0.5924830000000 1.0
C      1  0.5197350000000  0.4778620000000  0.5481110000000 1.0
C      1  0.4906710000000  0.4421510000000  0.4089850000000 1.0
C      1  0.4632770000000  0.5154810000000  0.5017500000000 1.0
C      1  0.5040810000000  0.5008590000000  0.4450800000000 1.0
C      1  0.4342280000000  0.4365650000000  0.5386700000000 1.0
C      1  0.4579250000000  0.4760870000000  0.5607850000000 1.0
C      1  0.5323690000000  0.5408450000000  0.5028950000000 1.0
C      1  0.5361040000000  0.5833650000000  0.4669520000000 1.0
C      1  0.5734380000000  0.5512630000000  0.5523290000000 1.0
C      1  0.5732190000000  0.5379990000000  0.4306110000000 1.0
C      1  0.5301350000000  0.5348660000000  0.6035820000000 1.0
C      1  0.5877250000000  0.5582900000000  0.5042930000000 1.0
C      1  0.5927110000000  0.5473670000000  0.5309020000000 1.0
C      1  0.4861370000000  0.5247880000000  0.4420210000000 1.0
C      1  0.5335360000000  0.5089130000000  0.5939380000000 1.0
C      1  0.4018780000000  0.5232900000000  0.4571520000000 1.0
C      1  0.4816490000000  0.5737490000000  0.4232390000000 1.0
C      1  0.5892880000000  0.4892740000000  0.4694720000000 1.0
C      1  0.5660880000000  0.5795730000000  0.5059090000000 1.0
C      1  0.5621350000000  0.4321570000000  0.4539200000000 1.0
C      1  0.3957160000000  0.4870520000000  0.5024360000000 1.0
C      1  0.5915550000000  0.4450920000000  0.5527150000000 1.0
C      1  0.4369730000000  0.4665040000000  0.5396700000000 1.0
C      1  0.4673990000000  0.4017420000000  0.4744860000000 1.0
C      1  0.5984000000000  0.5144950000000  0.5498060000000 1.0
C      1  0.3968630000000  0.5007940000000  0.4760900000000 1.0
C      1  0.4428650000000  0.4243550000000  0.5623250000000 1.0
C      1  0.4536120000000  0.5351300000000  0.5239720000000 1.0
C      1  0.4604910000000  0.4310210000000  0.5828620000000 1.0
C      1  0.4294930000000  0.5430980000000  0.4192980000000 1.0
C      1  0.5930050000000  0.5185070000000  0.4326730000000 1.0
C      1  0.5090750000000  0.5827330000000  0.4285080000000 1.0
C      1  0.4548470000000  0.5032230000000  0.6034870000000 1.0
END
