TITL C-950529-3362-410 1.08597768633054e-06 125000 -1173.35339742017 0 0 187 (C1) n - 1
REM
REM in /home/bkarasulu/work/CARBON/AIRSS/Generating-Clusters/EDIP-Nigel-Params/with-SteepDescent/Only-C1/SD-CG/HFTN-CG
REM
REM
REM
REM
REM
REM ./C.cell (11c1c37f851c82e70ff6c80c92926a4b)
REM
REM compiler GCC version 9.2.1 20190827 (Red Hat 9.2.1-1)
REM options -cpp -mtune=generic -march=x86-64 -g -O0 -fpre-include=/usr/include/finclude/math-vector-fortran.h
REM seed 93769612 -1311006641 -746046694 1867951637 274810179 -1132474206 -600237646 -1161601851 1922986720 -1066821549 -881362573 -2141488767 -721813498 1786936336 -1838631614 128045064 1695119602 658953370 773220173 531718492 1453567852 -2096553094 -419772265 -325318912 177753159 -1245169817 1749773666 1330791079 1697221819 1964449542 -338125536 -1956049643 1249344246
REM
CELL 1.54180   50.00000   50.00000   50.00000   90.00000   90.00000   90.00000
LATT -1
SFAC C  
C      1  0.5496610000000  0.4012830000000  0.5589930000000 1.0
C      1  0.5619200000000  0.4043680000000  0.4996120000000 1.0
C      1  0.4733050000000  0.4948800000000  0.5163600000000 1.0
C      1  0.4991720000000  0.5499440000000  0.4286260000000 1.0
C      1  0.4581650000000  0.4310670000000  0.5093370000000 1.0
C      1  0.5542100000000  0.5105520000000  0.6158540000000 1.0
C      1  0.5300350000000  0.4743910000000  0.4035070000000 1.0
C      1  0.5698720000000  0.4943100000000  0.4235660000000 1.0
C      1  0.5653370000000  0.4477850000000  0.4794280000000 1.0
C      1  0.5245510000000  0.3939070000000  0.5493550000000 1.0
C      1  0.5967410000000  0.4589550000000  0.5202760000000 1.0
C      1  0.5188220000000  0.3879120000000  0.5205290000000 1.0
C      1  0.4493110000000  0.5414400000000  0.5635850000000 1.0
C      1  0.4320090000000  0.5713070000000  0.5352810000000 1.0
C      1  0.4929820000000  0.6206680000000  0.5248410000000 1.0
C      1  0.4038040000000  0.5443440000000  0.4617150000000 1.0
C      1  0.5321430000000  0.4061100000000  0.4997340000000 1.0
C      1  0.5805130000000  0.5372650000000  0.4333000000000 1.0
C      1  0.4295940000000  0.5872390000000  0.4805530000000 1.0
C      1  0.5368460000000  0.5482270000000  0.4123640000000 1.0
C      1  0.5201550000000  0.4613070000000  0.4749160000000 1.0
C      1  0.4429460000000  0.4431900000000  0.4880130000000 1.0
C      1  0.5395140000000  0.5610260000000  0.5144300000000 1.0
C      1  0.5062190000000  0.4348130000000  0.5760300000000 1.0
C      1  0.5908170000000  0.5571690000000  0.5032540000000 1.0
C      1  0.5586250000000  0.4947670000000  0.5257950000000 1.0
C      1  0.5042010000000  0.5196430000000  0.6102420000000 1.0
C      1  0.4778690000000  0.5424520000000  0.3874300000000 1.0
C      1  0.4684080000000  0.4575160000000  0.5949460000000 1.0
C      1  0.4716170000000  0.6035780000000  0.5287080000000 1.0
C      1  0.4448690000000  0.5459450000000  0.4246170000000 1.0
C      1  0.6022620000000  0.4710720000000  0.5463010000000 1.0
C      1  0.4561460000000  0.5309020000000  0.4014410000000 1.0
C      1  0.4881920000000  0.4227460000000  0.4304220000000 1.0
C      1  0.5570340000000  0.5043920000000  0.4755950000000 1.0
C      1  0.5608410000000  0.4679000000000  0.4104940000000 1.0
C      1  0.5256280000000  0.4633960000000  0.5445310000000 1.0
C      1  0.3931050000000  0.4979690000000  0.5257480000000 1.0
C      1  0.4954230000000  0.5416480000000  0.5020620000000 1.0
C      1  0.3899500000000  0.4658550000000  0.5218250000000 1.0
C      1  0.5747550000000  0.4510010000000  0.4318060000000 1.0
C      1  0.5975390000000  0.4803080000000  0.4983570000000 1.0
C      1  0.5344220000000  0.5219420000000  0.5637780000000 1.0
C      1  0.4064810000000  0.4394170000000  0.4563150000000 1.0
C      1  0.5024050000000  0.4682140000000  0.3883880000000 1.0
C      1  0.4511810000000  0.4151100000000  0.5502070000000 1.0
C      1  0.4874860000000  0.4720670000000  0.5059060000000 1.0
C      1  0.5180740000000  0.5023790000000  0.4421520000000 1.0
C      1  0.4193420000000  0.3991790000000  0.5177880000000 1.0
C      1  0.6074610000000  0.5245360000000  0.5388170000000 1.0
C      1  0.4903310000000  0.5085690000000  0.5461040000000 1.0
C      1  0.4645660000000  0.5035040000000  0.5819660000000 1.0
C      1  0.4194310000000  0.5100370000000  0.4309950000000 1.0
C      1  0.5987160000000  0.4928210000000  0.4310550000000 1.0
C      1  0.5584010000000  0.4489860000000  0.5591940000000 1.0
C      1  0.5170120000000  0.6139360000000  0.5130080000000 1.0
C      1  0.4440600000000  0.4973040000000  0.5611990000000 1.0
C      1  0.5452990000000  0.5904600000000  0.4487910000000 1.0
C      1  0.4207970000000  0.4995660000000  0.5170580000000 1.0
C      1  0.3945400000000  0.4973390000000  0.4345250000000 1.0
C      1  0.4739210000000  0.4624820000000  0.4551640000000 1.0
C      1  0.5102080000000  0.5175880000000  0.4906280000000 1.0
C      1  0.5173150000000  0.4734230000000  0.4316140000000 1.0
C      1  0.5743660000000  0.5615960000000  0.5509950000000 1.0
C      1  0.4164770000000  0.5315360000000  0.5566440000000 1.0
C      1  0.4858340000000  0.4943150000000  0.3829930000000 1.0
C      1  0.5227220000000  0.5011780000000  0.5825590000000 1.0
C      1  0.5147770000000  0.5259750000000  0.5422040000000 1.0
C      1  0.3847690000000  0.5222420000000  0.5051120000000 1.0
C      1  0.4931560000000  0.6010870000000  0.4401900000000 1.0
C      1  0.5277210000000  0.4325960000000  0.5106120000000 1.0
C      1  0.5204640000000  0.6061910000000  0.4565230000000 1.0
C      1  0.4421710000000  0.5047580000000  0.4482330000000 1.0
C      1  0.4007310000000  0.5051890000000  0.5560770000000 1.0
C      1  0.4541970000000  0.5726760000000  0.4290890000000 1.0
C      1  0.4200620000000  0.4549850000000  0.5619090000000 1.0
C      1  0.5386940000000  0.4562320000000  0.4971510000000 1.0
C      1  0.4273030000000  0.4386260000000  0.4362600000000 1.0
C      1  0.5753490000000  0.5040330000000  0.5020380000000 1.0
C      1  0.5587500000000  0.5853660000000  0.4769250000000 1.0
C      1  0.5368160000000  0.4634740000000  0.6072530000000 1.0
C      1  0.5114470000000  0.4226260000000  0.4490140000000 1.0
C      1  0.4682100000000  0.5296990000000  0.5431360000000 1.0
C      1  0.6187490000000  0.5255110000000  0.4641260000000 1.0
C      1  0.5443680000000  0.5496890000000  0.5871720000000 1.0
C      1  0.4937180000000  0.4738370000000  0.4766870000000 1.0
C      1  0.5133110000000  0.4045200000000  0.4736840000000 1.0
C      1  0.5009070000000  0.5832160000000  0.5673370000000 1.0
C      1  0.4554430000000  0.4808800000000  0.5382650000000 1.0
C      1  0.5370550000000  0.4763360000000  0.5203680000000 1.0
C      1  0.4838960000000  0.4489930000000  0.4079500000000 1.0
C      1  0.6059470000000  0.5327800000000  0.5106230000000 1.0
C      1  0.5868570000000  0.5253680000000  0.5837590000000 1.0
C      1  0.5393700000000  0.5602870000000  0.4435570000000 1.0
C      1  0.4787630000000  0.4070130000000  0.5403950000000 1.0
C      1  0.4500420000000  0.5630900000000  0.5120030000000 1.0
C      1  0.4952800000000  0.4921940000000  0.6161450000000 1.0
C      1  0.4651640000000  0.4075140000000  0.4407930000000 1.0
C      1  0.4057910000000  0.5665510000000  0.4830610000000 1.0
C      1  0.5703000000000  0.4923280000000  0.5762430000000 1.0
C      1  0.5385390000000  0.5233970000000  0.4866500000000 1.0
C      1  0.4820200000000  0.4472840000000  0.5218780000000 1.0
C      1  0.5133850000000  0.4710770000000  0.6207330000000 1.0
C      1  0.5962310000000  0.4673920000000  0.4470490000000 1.0
C      1  0.5596000000000  0.5090430000000  0.5527440000000 1.0
C      1  0.5914600000000  0.5390930000000  0.5586580000000 1.0
C      1  0.4699920000000  0.4847910000000  0.6033890000000 1.0
C      1  0.5567090000000  0.4234500000000  0.5742010000000 1.0
C      1  0.3913160000000  0.4554480000000  0.4944400000000 1.0
C      1  0.5196100000000  0.5235840000000  0.4033870000000 1.0
C      1  0.5608280000000  0.5938430000000  0.5153980000000 1.0
C      1  0.4159990000000  0.4521330000000  0.5324150000000 1.0
C      1  0.4874250000000  0.3974470000000  0.4854480000000 1.0
C      1  0.4066540000000  0.4713890000000  0.4726120000000 1.0
C      1  0.4394600000000  0.3887540000000  0.4771680000000 1.0
C      1  0.4832100000000  0.5762490000000  0.4230980000000 1.0
C      1  0.5500140000000  0.5082510000000  0.4463140000000 1.0
C      1  0.5066860000000  0.4824910000000  0.5626850000000 1.0
C      1  0.5786520000000  0.4245980000000  0.4917660000000 1.0
C      1  0.4686580000000  0.4559280000000  0.5485810000000 1.0
C      1  0.4653030000000  0.5019230000000  0.4047510000000 1.0
C      1  0.6245720000000  0.4905730000000  0.4944680000000 1.0
C      1  0.6204680000000  0.5177760000000  0.4904830000000 1.0
C      1  0.5528710000000  0.5351560000000  0.5083190000000 1.0
C      1  0.4555930000000  0.4541980000000  0.4021030000000 1.0
C      1  0.5512250000000  0.5697030000000  0.5673950000000 1.0
C      1  0.5642090000000  0.5326330000000  0.6006270000000 1.0
C      1  0.4159530000000  0.4301230000000  0.4845570000000 1.0
C      1  0.5626040000000  0.5299880000000  0.4098490000000 1.0
C      1  0.4398930000000  0.4140350000000  0.4310360000000 1.0
C      1  0.5868680000000  0.4318470000000  0.5166900000000 1.0
C      1  0.4880440000000  0.5412120000000  0.5990190000000 1.0
C      1  0.4176830000000  0.5392780000000  0.4348800000000 1.0
C      1  0.4555490000000  0.4983410000000  0.4900300000000 1.0
C      1  0.4098780000000  0.5525440000000  0.5366890000000 1.0
C      1  0.4489420000000  0.5853940000000  0.4563930000000 1.0
C      1  0.4850840000000  0.5877750000000  0.4842150000000 1.0
C      1  0.4866120000000  0.5206920000000  0.4314140000000 1.0
C      1  0.5110980000000  0.5538170000000  0.4556020000000 1.0
C      1  0.5846720000000  0.4696360000000  0.4741840000000 1.0
C      1  0.4977770000000  0.5658260000000  0.5891920000000 1.0
C      1  0.4455490000000  0.4800530000000  0.4113580000000 1.0
C      1  0.4394290000000  0.5465190000000  0.4876910000000 1.0
C      1  0.4454480000000  0.4629800000000  0.4387680000000 1.0
C      1  0.5335290000000  0.4398740000000  0.5878450000000 1.0
C      1  0.5366240000000  0.6013480000000  0.5312830000000 1.0
C      1  0.4473100000000  0.4408360000000  0.5670800000000 1.0
C      1  0.4887650000000  0.4672180000000  0.4303370000000 1.0
C      1  0.4391850000000  0.4725750000000  0.4806620000000 1.0
C      1  0.3967700000000  0.5190870000000  0.4769130000000 1.0
C      1  0.4888230000000  0.5584800000000  0.4767850000000 1.0
C      1  0.3973090000000  0.5491970000000  0.5099620000000 1.0
C      1  0.4611640000000  0.5490020000000  0.4653490000000 1.0
C      1  0.5140130000000  0.5496460000000  0.5244800000000 1.0
C      1  0.5140090000000  0.5979420000000  0.4869680000000 1.0
C      1  0.4318720000000  0.5161410000000  0.4941880000000 1.0
C      1  0.5328400000000  0.5742920000000  0.4881190000000 1.0
C      1  0.4188710000000  0.4839220000000  0.5713700000000 1.0
C      1  0.6127710000000  0.4975710000000  0.5452430000000 1.0
C      1  0.5811960000000  0.4664930000000  0.5665980000000 1.0
C      1  0.4706190000000  0.5431340000000  0.5186950000000 1.0
C      1  0.5797950000000  0.5738910000000  0.5252400000000 1.0
C      1  0.4180190000000  0.4007440000000  0.4902550000000 1.0
C      1  0.4728100000000  0.6020270000000  0.4616520000000 1.0
C      1  0.4345840000000  0.4222600000000  0.5267420000000 1.0
C      1  0.5560030000000  0.4409930000000  0.4521330000000 1.0
C      1  0.3913550000000  0.4944480000000  0.4617340000000 1.0
C      1  0.5095800000000  0.4380810000000  0.5332390000000 1.0
C      1  0.4890420000000  0.3910390000000  0.5154770000000 1.0
C      1  0.4647300000000  0.3949230000000  0.4671960000000 1.0
C      1  0.4881160000000  0.4586550000000  0.5723210000000 1.0
C      1  0.5786890000000  0.5629790000000  0.4756900000000 1.0
C      1  0.5471460000000  0.4899820000000  0.5963650000000 1.0
C      1  0.4625400000000  0.5314500000000  0.5890840000000 1.0
C      1  0.5628130000000  0.5437590000000  0.4563020000000 1.0
C      1  0.4502630000000  0.5716800000000  0.5591460000000 1.0
C      1  0.4662590000000  0.5205800000000  0.4542570000000 1.0
C      1  0.5376450000000  0.5028270000000  0.3965620000000 1.0
C      1  0.6029920000000  0.5199510000000  0.4417440000000 1.0
C      1  0.5286910000000  0.5849490000000  0.5552320000000 1.0
C      1  0.5016490000000  0.4098110000000  0.5592180000000 1.0
C      1  0.4980850000000  0.5228230000000  0.3832880000000 1.0
C      1  0.4757160000000  0.5849390000000  0.5510690000000 1.0
C      1  0.4985230000000  0.5027980000000  0.4682640000000 1.0
C      1  0.4607750000000  0.5905910000000  0.5031430000000 1.0
C      1  0.5274410000000  0.4483040000000  0.4498710000000 1.0
C      1  0.4337650000000  0.4732010000000  0.5190550000000 1.0
END
