TITL C-951343-2256-564 -6.24860795492876e-07 125000 -450.274982550653 0 0 73 (C1) n - 1
REM
REM in /home/bkarasulu/work/CARBON/AIRSS/Generating-Clusters/EDIP-Nigel-Params/with-SteepDescent/Only-C1/SD-CG/HFTN-CG
REM
REM
REM
REM
REM
REM ./C.cell (11c1c37f851c82e70ff6c80c92926a4b)
REM
REM compiler GCC version 9.2.1 20190827 (Red Hat 9.2.1-1)
REM options -cpp -mtune=generic -march=x86-64 -g -O0 -fpre-include=/usr/include/finclude/math-vector-fortran.h
REM seed 883400168 1707022574 424439541 -1954427572 -1942797642 2017621763 -1414973768 -1996234395 60442680 -753389185 -1200598968 507681671 453778446 1310737783 1782707399 -1885584550 1044036378 -817465974 279019781 -839403053 -1458696472 -28506591 -24911021 -855802012 -920364977 -330702741 1519805593 -527236201 476311842 1514250599 -114063246 965262566 -2008414948
REM
CELL 1.54180   50.00000   50.00000   50.00000   90.00000   90.00000   90.00000
LATT -1
SFAC C  
C      1  0.5525520000000  0.4716070000000  0.5666040000000 1.0
C      1  0.5276820000000  0.5379470000000  0.5240440000000 1.0
C      1  0.4730200000000  0.4647870000000  0.5750380000000 1.0
C      1  0.4809430000000  0.5441140000000  0.4878900000000 1.0
C      1  0.4705380000000  0.4536510000000  0.4464380000000 1.0
C      1  0.4877810000000  0.5440730000000  0.4392950000000 1.0
C      1  0.4948720000000  0.4943110000000  0.4985340000000 1.0
C      1  0.4521480000000  0.4905180000000  0.4808700000000 1.0
C      1  0.4604140000000  0.4730170000000  0.5272390000000 1.0
C      1  0.5025380000000  0.5199750000000  0.4341830000000 1.0
C      1  0.4452060000000  0.4435200000000  0.4872220000000 1.0
C      1  0.5388490000000  0.4884000000000  0.4346100000000 1.0
C      1  0.4621690000000  0.5054890000000  0.4544150000000 1.0
C      1  0.4697920000000  0.5559130000000  0.5439460000000 1.0
C      1  0.5403480000000  0.4386600000000  0.5134120000000 1.0
C      1  0.4691290000000  0.5350230000000  0.4594840000000 1.0
C      1  0.5726020000000  0.5142730000000  0.4547310000000 1.0
C      1  0.4426960000000  0.5140340000000  0.4962330000000 1.0
C      1  0.5296660000000  0.5614830000000  0.4808010000000 1.0
C      1  0.4495920000000  0.5485440000000  0.4428440000000 1.0
C      1  0.5216100000000  0.5163210000000  0.5663370000000 1.0
C      1  0.4790120000000  0.5389210000000  0.5655980000000 1.0
C      1  0.5513750000000  0.5339900000000  0.4431090000000 1.0
C      1  0.4659440000000  0.5289680000000  0.5100630000000 1.0
C      1  0.5328780000000  0.4400310000000  0.4415010000000 1.0
C      1  0.4437110000000  0.5496420000000  0.5332780000000 1.0
C      1  0.5672380000000  0.4638450000000  0.4626790000000 1.0
C      1  0.4849620000000  0.4975250000000  0.4383250000000 1.0
C      1  0.4685730000000  0.5113130000000  0.5661940000000 1.0
C      1  0.5084320000000  0.5431390000000  0.5692600000000 1.0
C      1  0.5172220000000  0.5593870000000  0.5443180000000 1.0
C      1  0.4429550000000  0.4667320000000  0.4442880000000 1.0
C      1  0.4820870000000  0.4906720000000  0.5818580000000 1.0
C      1  0.4389930000000  0.5034470000000  0.4362520000000 1.0
C      1  0.5560480000000  0.5371700000000  0.5258680000000 1.0
C      1  0.4930230000000  0.5713200000000  0.5327950000000 1.0
C      1  0.4726140000000  0.4408650000000  0.4732480000000 1.0
C      1  0.4683650000000  0.4268060000000  0.5248500000000 1.0
C      1  0.4948990000000  0.4244260000000  0.5148590000000 1.0
C      1  0.5268460000000  0.4504060000000  0.4890240000000 1.0
C      1  0.4806750000000  0.4625880000000  0.5478020000000 1.0
C      1  0.4307380000000  0.5234970000000  0.5373810000000 1.0
C      1  0.4482100000000  0.4456800000000  0.5178330000000 1.0
C      1  0.5309430000000  0.5120370000000  0.4797960000000 1.0
C      1  0.4953860000000  0.5821350000000  0.5052560000000 1.0
C      1  0.5616760000000  0.4531270000000  0.5246240000000 1.0
C      1  0.5108290000000  0.4615260000000  0.5440630000000 1.0
C      1  0.5787090000000  0.5233890000000  0.5224640000000 1.0
C      1  0.5120540000000  0.4926590000000  0.5828820000000 1.0
C      1  0.5205650000000  0.5851690000000  0.4925340000000 1.0
C      1  0.4323290000000  0.5301420000000  0.4309620000000 1.0
C      1  0.4885050000000  0.5106250000000  0.5219510000000 1.0
C      1  0.4722690000000  0.4772140000000  0.4981580000000 1.0
C      1  0.4745540000000  0.5725320000000  0.4894680000000 1.0
C      1  0.5163640000000  0.5122490000000  0.5361820000000 1.0
C      1  0.5791250000000  0.5055960000000  0.5022390000000 1.0
C      1  0.4937560000000  0.4709930000000  0.4412200000000 1.0
C      1  0.5226510000000  0.4825730000000  0.4973150000000 1.0
C      1  0.5545740000000  0.4760310000000  0.5388880000000 1.0
C      1  0.5287720000000  0.5136550000000  0.4468100000000 1.0
C      1  0.5458740000000  0.4456650000000  0.4658560000000 1.0
C      1  0.5462010000000  0.5569710000000  0.4586400000000 1.0
C      1  0.4329640000000  0.4677320000000  0.4725840000000 1.0
C      1  0.4990930000000  0.4354240000000  0.4878590000000 1.0
C      1  0.5616110000000  0.5153630000000  0.4823480000000 1.0
C      1  0.5665970000000  0.4856380000000  0.4443480000000 1.0
C      1  0.5169360000000  0.5381000000000  0.4930970000000 1.0
C      1  0.4196960000000  0.5139640000000  0.5128460000000 1.0
C      1  0.5212020000000  0.4647480000000  0.4345800000000 1.0
C      1  0.5175930000000  0.4343380000000  0.5317470000000 1.0
C      1  0.4478110000000  0.5023620000000  0.5478170000000 1.0
C      1  0.5275690000000  0.4844250000000  0.5279760000000 1.0
C      1  0.5248440000000  0.4675870000000  0.5709350000000 1.0
END
