TITL C-950525-1983-105 -4.42436887122349e-06 125000 -943.459933867289 0 0 150 (C1) n - 1
REM
REM in /home/bkarasulu/work/CARBON/AIRSS/Generating-Clusters/EDIP-Nigel-Params/with-SteepDescent/Only-C1/SD-CG/HFTN-CG
REM
REM
REM
REM
REM
REM ./C.cell (11c1c37f851c82e70ff6c80c92926a4b)
REM
REM compiler GCC version 9.2.1 20190827 (Red Hat 9.2.1-1)
REM options -cpp -mtune=generic -march=x86-64 -g -O0 -fpre-include=/usr/include/finclude/math-vector-fortran.h
REM seed -1129874880 -1281801214 -962500311 -1524852477 -110098547 -1097886124 92918519 -1417340229 -685106217 -1336084948 -1315774601 -2002819139 -824076156 2090478689 -1472063290 2064914993 1668625818 1871390 -282053523 1733477963 1083513780 1484211493 -1309298400 1328542867 -665482734 1936242810 116997309 1273832086 -713461899 -181577058 836628625 -1399106578 -248844503
REM
CELL 1.54180   50.00000   50.00000   50.00000   90.00000   90.00000   90.00000
LATT -1
SFAC C  
C      1  0.5497060000000  0.5083080000000  0.4706090000000 1.0
C      1  0.5160680000000  0.4139920000000  0.4903430000000 1.0
C      1  0.5443010000000  0.4076450000000  0.4450600000000 1.0
C      1  0.4338730000000  0.5893130000000  0.4799480000000 1.0
C      1  0.4486530000000  0.5876010000000  0.5078200000000 1.0
C      1  0.5664790000000  0.5533030000000  0.4622680000000 1.0
C      1  0.5167770000000  0.4033230000000  0.5434320000000 1.0
C      1  0.5606860000000  0.5623350000000  0.5679230000000 1.0
C      1  0.5169820000000  0.4127340000000  0.5708850000000 1.0
C      1  0.4896760000000  0.5756540000000  0.4863300000000 1.0
C      1  0.5068300000000  0.5195870000000  0.3801400000000 1.0
C      1  0.3909920000000  0.4849580000000  0.5117300000000 1.0
C      1  0.5062510000000  0.5331370000000  0.4538060000000 1.0
C      1  0.5392290000000  0.4302730000000  0.5720170000000 1.0
C      1  0.5898570000000  0.5293060000000  0.5633070000000 1.0
C      1  0.4269140000000  0.4399160000000  0.5607280000000 1.0
C      1  0.4739000000000  0.5365620000000  0.4592200000000 1.0
C      1  0.5087590000000  0.5136630000000  0.4989320000000 1.0
C      1  0.4730320000000  0.4677270000000  0.5967130000000 1.0
C      1  0.5816590000000  0.5089590000000  0.5219470000000 1.0
C      1  0.4706590000000  0.5677380000000  0.5073500000000 1.0
C      1  0.4000250000000  0.4721040000000  0.5386540000000 1.0
C      1  0.5950100000000  0.5111780000000  0.4632010000000 1.0
C      1  0.4586000000000  0.5461630000000  0.4114430000000 1.0
C      1  0.5820760000000  0.5496210000000  0.5803760000000 1.0
C      1  0.4050130000000  0.4964920000000  0.4680920000000 1.0
C      1  0.4508850000000  0.5338980000000  0.4363170000000 1.0
C      1  0.5505920000000  0.4525190000000  0.4815470000000 1.0
C      1  0.4812050000000  0.5207170000000  0.5122990000000 1.0
C      1  0.5284870000000  0.4462480000000  0.4193450000000 1.0
C      1  0.4258880000000  0.5413130000000  0.4795230000000 1.0
C      1  0.4935640000000  0.5236390000000  0.6091450000000 1.0
C      1  0.4938250000000  0.6003600000000  0.5371810000000 1.0
C      1  0.4278030000000  0.4639550000000  0.4333670000000 1.0
C      1  0.4321330000000  0.4928160000000  0.4582080000000 1.0
C      1  0.5152310000000  0.5603730000000  0.4955070000000 1.0
C      1  0.5355320000000  0.5568970000000  0.5801110000000 1.0
C      1  0.4973930000000  0.4525680000000  0.5598030000000 1.0
C      1  0.5218740000000  0.4030380000000  0.4612070000000 1.0
C      1  0.4778350000000  0.4590130000000  0.4480100000000 1.0
C      1  0.5795670000000  0.4300560000000  0.4690710000000 1.0
C      1  0.5821700000000  0.4709200000000  0.4405850000000 1.0
C      1  0.5411060000000  0.5769480000000  0.4967490000000 1.0
C      1  0.4215250000000  0.4518560000000  0.4837380000000 1.0
C      1  0.4693330000000  0.4201960000000  0.5367760000000 1.0
C      1  0.4507750000000  0.4441680000000  0.5759440000000 1.0
C      1  0.4661350000000  0.4202660000000  0.5679150000000 1.0
C      1  0.4161460000000  0.5207610000000  0.5526670000000 1.0
C      1  0.5062750000000  0.4883830000000  0.4823800000000 1.0
C      1  0.4538730000000  0.4757390000000  0.5023890000000 1.0
C      1  0.3963010000000  0.5146020000000  0.5096900000000 1.0
C      1  0.5385610000000  0.4497270000000  0.5225240000000 1.0
C      1  0.4466250000000  0.5767820000000  0.4559380000000 1.0
C      1  0.5766920000000  0.4888960000000  0.4197900000000 1.0
C      1  0.4807240000000  0.4710020000000  0.5173340000000 1.0
C      1  0.5407890000000  0.3984280000000  0.5294940000000 1.0
C      1  0.6104570000000  0.5367740000000  0.5452910000000 1.0
C      1  0.5271880000000  0.4904430000000  0.4603750000000 1.0
C      1  0.5058890000000  0.4987100000000  0.6083020000000 1.0
C      1  0.5684660000000  0.4543170000000  0.5306790000000 1.0
C      1  0.5445660000000  0.5717120000000  0.4514620000000 1.0
C      1  0.5423570000000  0.5851330000000  0.5274500000000 1.0
C      1  0.5369960000000  0.5276730000000  0.5393760000000 1.0
C      1  0.5187860000000  0.5250680000000  0.5647700000000 1.0
C      1  0.4926110000000  0.4287870000000  0.5784110000000 1.0
C      1  0.5035530000000  0.4457570000000  0.4595640000000 1.0
C      1  0.4429870000000  0.5844680000000  0.5529220000000 1.0
C      1  0.4790660000000  0.5361170000000  0.5885220000000 1.0
C      1  0.4947880000000  0.4755720000000  0.4061030000000 1.0
C      1  0.4393720000000  0.4839330000000  0.4162740000000 1.0
C      1  0.4889360000000  0.4779960000000  0.6174330000000 1.0
C      1  0.5322500000000  0.4597540000000  0.4552470000000 1.0
C      1  0.4713250000000  0.4113930000000  0.4600360000000 1.0
C      1  0.5641370000000  0.4182170000000  0.4905090000000 1.0
C      1  0.5133600000000  0.4960400000000  0.5788990000000 1.0
C      1  0.5790620000000  0.5569250000000  0.5161920000000 1.0
C      1  0.5117130000000  0.5534890000000  0.5248370000000 1.0
C      1  0.4823340000000  0.5470310000000  0.5276150000000 1.0
C      1  0.5119010000000  0.5684920000000  0.5692170000000 1.0
C      1  0.5284950000000  0.4526830000000  0.5555640000000 1.0
C      1  0.5059140000000  0.5437900000000  0.3955190000000 1.0
C      1  0.5624070000000  0.4877390000000  0.5644930000000 1.0
C      1  0.5393030000000  0.5937320000000  0.4717650000000 1.0
C      1  0.5153840000000  0.5797020000000  0.5412430000000 1.0
C      1  0.4296100000000  0.4396020000000  0.5099030000000 1.0
C      1  0.4760270000000  0.5675800000000  0.4591390000000 1.0
C      1  0.5116560000000  0.5065460000000  0.4407010000000 1.0
C      1  0.4333340000000  0.4849860000000  0.5232430000000 1.0
C      1  0.5606230000000  0.5650200000000  0.5383780000000 1.0
C      1  0.5975500000000  0.5345550000000  0.5200750000000 1.0
C      1  0.4884660000000  0.4937520000000  0.4281460000000 1.0
C      1  0.5720560000000  0.4437160000000  0.4444950000000 1.0
C      1  0.4380890000000  0.5069610000000  0.4330370000000 1.0
C      1  0.4795020000000  0.4974970000000  0.5313080000000 1.0
C      1  0.4360050000000  0.4494430000000  0.4571820000000 1.0
C      1  0.5636730000000  0.5583850000000  0.4914470000000 1.0
C      1  0.5415710000000  0.5203970000000  0.4114220000000 1.0
C      1  0.4589080000000  0.5195760000000  0.5755790000000 1.0
C      1  0.6009370000000  0.4868780000000  0.5231140000000 1.0
C      1  0.5673170000000  0.5137300000000  0.5494580000000 1.0
C      1  0.4952810000000  0.6045440000000  0.4868840000000 1.0
C      1  0.4601650000000  0.5238160000000  0.4866390000000 1.0
C      1  0.4696230000000  0.4101050000000  0.4898850000000 1.0
C      1  0.5517070000000  0.4298640000000  0.4294340000000 1.0
C      1  0.4147330000000  0.4921140000000  0.5620150000000 1.0
C      1  0.5668260000000  0.5146990000000  0.4244770000000 1.0
C      1  0.5570170000000  0.5031560000000  0.5002150000000 1.0
C      1  0.5203690000000  0.5574960000000  0.4378480000000 1.0
C      1  0.4935900000000  0.3980650000000  0.5016960000000 1.0
C      1  0.5901580000000  0.4831320000000  0.4656460000000 1.0
C      1  0.4690170000000  0.5947810000000  0.5495070000000 1.0
C      1  0.4913190000000  0.4006720000000  0.5304040000000 1.0
C      1  0.4315840000000  0.5513890000000  0.4513730000000 1.0
C      1  0.5357360000000  0.4782900000000  0.5698980000000 1.0
C      1  0.4841600000000  0.4510130000000  0.4177240000000 1.0
C      1  0.5756130000000  0.4648720000000  0.5556010000000 1.0
C      1  0.4873900000000  0.4782550000000  0.5730250000000 1.0
C      1  0.5318350000000  0.5082230000000  0.5170260000000 1.0
C      1  0.4669220000000  0.4949360000000  0.5583840000000 1.0
C      1  0.4415060000000  0.4777860000000  0.5537860000000 1.0
C      1  0.5165620000000  0.5351160000000  0.4811910000000 1.0
C      1  0.5021210000000  0.4403780000000  0.4874650000000 1.0
C      1  0.4157590000000  0.4465910000000  0.5354430000000 1.0
C      1  0.4838090000000  0.5580750000000  0.4097620000000 1.0
C      1  0.4292120000000  0.5808920000000  0.5284810000000 1.0
C      1  0.4945270000000  0.5441250000000  0.5643720000000 1.0
C      1  0.4555090000000  0.4945960000000  0.4787220000000 1.0
C      1  0.5715420000000  0.4743540000000  0.4886330000000 1.0
C      1  0.5167270000000  0.6102010000000  0.4701470000000 1.0
C      1  0.5866200000000  0.4658490000000  0.5117910000000 1.0
C      1  0.4019670000000  0.5223640000000  0.4816140000000 1.0
C      1  0.4938510000000  0.5721360000000  0.4343380000000 1.0
C      1  0.4806770000000  0.4483280000000  0.5364280000000 1.0
C      1  0.5079860000000  0.4647520000000  0.5022990000000 1.0
C      1  0.4382060000000  0.5360040000000  0.5646910000000 1.0
C      1  0.5700150000000  0.5229400000000  0.4537670000000 1.0
C      1  0.4218850000000  0.5142650000000  0.5242390000000 1.0
C      1  0.4009570000000  0.4736000000000  0.4860190000000 1.0
C      1  0.4512200000000  0.4275230000000  0.4499380000000 1.0
C      1  0.4181640000000  0.5669760000000  0.4942240000000 1.0
C      1  0.4993700000000  0.4172700000000  0.4473080000000 1.0
C      1  0.4946230000000  0.6140560000000  0.5129210000000 1.0
C      1  0.5038920000000  0.4289200000000  0.4183960000000 1.0
C      1  0.4504950000000  0.4187980000000  0.5119170000000 1.0
C      1  0.5295770000000  0.5467740000000  0.4116550000000 1.0
C      1  0.5227210000000  0.4765910000000  0.3972210000000 1.0
C      1  0.5294660000000  0.5044510000000  0.3896960000000 1.0
C      1  0.4374990000000  0.5635330000000  0.5704350000000 1.0
C      1  0.5401030000000  0.4193540000000  0.5090720000000 1.0
C      1  0.4806110000000  0.4862350000000  0.4648270000000 1.0
END
