TITL C-951335-1172-81 -1.67696226840803e-06 125000 -813.270329537949 0 0 132 (C1) n - 1
REM
REM in /home/bkarasulu/work/CARBON/AIRSS/Generating-Clusters/EDIP-Nigel-Params/with-SteepDescent/Only-C1/SD-CG/HFTN-CG
REM
REM
REM
REM
REM
REM ./C.cell (11c1c37f851c82e70ff6c80c92926a4b)
REM
REM compiler GCC version 9.2.1 20190827 (Red Hat 9.2.1-1)
REM options -cpp -mtune=generic -march=x86-64 -g -O0 -fpre-include=/usr/include/finclude/math-vector-fortran.h
REM seed 1795775775 -1627125474 -711021969 1226651389 -1666729592 -794673335 547564967 -1921246560 278938440 -397650433 1240510129 1170189790 -1230623445 748043878 965772659 -1573768698 -579848591 -1303704813 542613326 -1666910866 1465678616 -1048439957 -2115932272 -1078231400 -2145346748 -1409428271 -1496543547 -956733066 -512390733 1234112351 -1645015468 -1608232683 1539634087
REM
CELL 1.54180   50.00000   50.00000   50.00000   90.00000   90.00000   90.00000
LATT -1
SFAC C  
C      1  0.5121630000000  0.4224040000000  0.4696910000000 1.0
C      1  0.5401570000000  0.5041260000000  0.5573100000000 1.0
C      1  0.4424580000000  0.4667320000000  0.4142890000000 1.0
C      1  0.5367410000000  0.5101800000000  0.5871020000000 1.0
C      1  0.4439410000000  0.4820560000000  0.5561290000000 1.0
C      1  0.4969000000000  0.5944660000000  0.4994550000000 1.0
C      1  0.5137640000000  0.4992730000000  0.4368100000000 1.0
C      1  0.4798980000000  0.5200740000000  0.5876760000000 1.0
C      1  0.5044390000000  0.5013320000000  0.5010460000000 1.0
C      1  0.4512110000000  0.4889770000000  0.3996370000000 1.0
C      1  0.5707590000000  0.5497050000000  0.4488040000000 1.0
C      1  0.5177080000000  0.4934880000000  0.6006660000000 1.0
C      1  0.4625620000000  0.5066350000000  0.4882780000000 1.0
C      1  0.4904730000000  0.4093930000000  0.4574680000000 1.0
C      1  0.4425120000000  0.5678110000000  0.5184240000000 1.0
C      1  0.4684830000000  0.5066390000000  0.4135530000000 1.0
C      1  0.4594410000000  0.5618730000000  0.5591660000000 1.0
C      1  0.4933430000000  0.5861490000000  0.4463620000000 1.0
C      1  0.5838960000000  0.4388290000000  0.5097510000000 1.0
C      1  0.4207110000000  0.5039090000000  0.4358500000000 1.0
C      1  0.4473220000000  0.5452720000000  0.4371000000000 1.0
C      1  0.5485230000000  0.4089990000000  0.4998740000000 1.0
C      1  0.5366060000000  0.4255910000000  0.4541110000000 1.0
C      1  0.5448920000000  0.4772920000000  0.4074840000000 1.0
C      1  0.5560590000000  0.4256560000000  0.4764250000000 1.0
C      1  0.4699470000000  0.4957460000000  0.4416770000000 1.0
C      1  0.4198640000000  0.5667740000000  0.5370390000000 1.0
C      1  0.5253020000000  0.5733590000000  0.5351900000000 1.0
C      1  0.4718550000000  0.4189780000000  0.4967230000000 1.0
C      1  0.5593630000000  0.5017170000000  0.5081060000000 1.0
C      1  0.4089570000000  0.4596500000000  0.4851420000000 1.0
C      1  0.4059840000000  0.4318880000000  0.4757470000000 1.0
C      1  0.4636240000000  0.4605900000000  0.5650860000000 1.0
C      1  0.4631300000000  0.5352940000000  0.4141780000000 1.0
C      1  0.5279370000000  0.5380200000000  0.5848100000000 1.0
C      1  0.4532350000000  0.5153480000000  0.5753210000000 1.0
C      1  0.4205900000000  0.5399130000000  0.5475600000000 1.0
C      1  0.5091760000000  0.4513330000000  0.4803500000000 1.0
C      1  0.5758060000000  0.5055050000000  0.4317490000000 1.0
C      1  0.5320850000000  0.4639700000000  0.5255040000000 1.0
C      1  0.5003580000000  0.5811660000000  0.5480580000000 1.0
C      1  0.5753550000000  0.5686340000000  0.5319620000000 1.0
C      1  0.4648200000000  0.4361700000000  0.5486270000000 1.0
C      1  0.5087620000000  0.4243890000000  0.5632010000000 1.0
C      1  0.5572300000000  0.5503160000000  0.4918720000000 1.0
C      1  0.5704040000000  0.4144280000000  0.5170060000000 1.0
C      1  0.4872460000000  0.5655700000000  0.5698340000000 1.0
C      1  0.5215370000000  0.4068440000000  0.5095440000000 1.0
C      1  0.5530670000000  0.5059560000000  0.4108980000000 1.0
C      1  0.4824550000000  0.5943050000000  0.4719910000000 1.0
C      1  0.5787070000000  0.4890970000000  0.5272130000000 1.0
C      1  0.4551450000000  0.5061980000000  0.5377990000000 1.0
C      1  0.4537570000000  0.5940030000000  0.5285410000000 1.0
C      1  0.4399850000000  0.5409550000000  0.5703910000000 1.0
C      1  0.4827430000000  0.4681290000000  0.4409370000000 1.0
C      1  0.4190180000000  0.4403620000000  0.5237980000000 1.0
C      1  0.5208570000000  0.5231830000000  0.4216960000000 1.0
C      1  0.4947720000000  0.4960190000000  0.5826120000000 1.0
C      1  0.4136460000000  0.4189300000000  0.5010500000000 1.0
C      1  0.4318240000000  0.5213240000000  0.5255980000000 1.0
C      1  0.4128810000000  0.4989990000000  0.5184230000000 1.0
C      1  0.4899360000000  0.4775350000000  0.5156460000000 1.0
C      1  0.4391240000000  0.4630000000000  0.4926790000000 1.0
C      1  0.5348870000000  0.5222820000000  0.4776690000000 1.0
C      1  0.5523830000000  0.5466220000000  0.5666830000000 1.0
C      1  0.4612980000000  0.4431040000000  0.4787710000000 1.0
C      1  0.4831540000000  0.5920810000000  0.5259580000000 1.0
C      1  0.5562850000000  0.5242870000000  0.4455350000000 1.0
C      1  0.4575810000000  0.5787050000000  0.4735810000000 1.0
C      1  0.4069440000000  0.5037920000000  0.4889620000000 1.0
C      1  0.4486100000000  0.4084480000000  0.5112550000000 1.0
C      1  0.4897170000000  0.5577300000000  0.4410220000000 1.0
C      1  0.5047200000000  0.5251660000000  0.5224660000000 1.0
C      1  0.5257050000000  0.4977570000000  0.4626120000000 1.0
C      1  0.4991530000000  0.5401820000000  0.5774890000000 1.0
C      1  0.5862820000000  0.4728890000000  0.4713470000000 1.0
C      1  0.5171450000000  0.4716550000000  0.4238080000000 1.0
C      1  0.5369450000000  0.4541300000000  0.4445770000000 1.0
C      1  0.5154950000000  0.5470710000000  0.4791510000000 1.0
C      1  0.4654100000000  0.4067850000000  0.4477620000000 1.0
C      1  0.4230110000000  0.4272490000000  0.4539080000000 1.0
C      1  0.4838740000000  0.4606670000000  0.4698020000000 1.0
C      1  0.6047350000000  0.5280870000000  0.5139680000000 1.0
C      1  0.6035650000000  0.4920460000000  0.4854800000000 1.0
C      1  0.4890240000000  0.4204940000000  0.5445870000000 1.0
C      1  0.4848380000000  0.5160000000000  0.5445330000000 1.0
C      1  0.5234350000000  0.4785630000000  0.5513720000000 1.0
C      1  0.5606660000000  0.4611960000000  0.4279220000000 1.0
C      1  0.5705240000000  0.5006760000000  0.5543500000000 1.0
C      1  0.5530120000000  0.4475580000000  0.5406050000000 1.0
C      1  0.5005300000000  0.5437500000000  0.4175380000000 1.0
C      1  0.5059040000000  0.4574320000000  0.5975590000000 1.0
C      1  0.4444680000000  0.5885680000000  0.5564870000000 1.0
C      1  0.4971280000000  0.4224790000000  0.5157960000000 1.0
C      1  0.4605320000000  0.4512310000000  0.4300590000000 1.0
C      1  0.5329950000000  0.5299420000000  0.5371690000000 1.0
C      1  0.5808500000000  0.5395730000000  0.5304610000000 1.0
C      1  0.4412580000000  0.4869320000000  0.4474620000000 1.0
C      1  0.4211530000000  0.5290120000000  0.4768440000000 1.0
C      1  0.5558340000000  0.5299040000000  0.5162190000000 1.0
C      1  0.5776540000000  0.5288880000000  0.5585340000000 1.0
C      1  0.4268460000000  0.4732540000000  0.5284710000000 1.0
C      1  0.5305000000000  0.5727570000000  0.4651930000000 1.0
C      1  0.5765840000000  0.4471810000000  0.4826020000000 1.0
C      1  0.4936400000000  0.4851340000000  0.5448770000000 1.0
C      1  0.5352470000000  0.4862530000000  0.5040350000000 1.0
C      1  0.5468330000000  0.4527160000000  0.5685210000000 1.0
C      1  0.5336290000000  0.4700630000000  0.4715580000000 1.0
C      1  0.4949080000000  0.5525010000000  0.5108380000000 1.0
C      1  0.4663940000000  0.5481870000000  0.5295390000000 1.0
C      1  0.5238660000000  0.5854350000000  0.5090450000000 1.0
C      1  0.4407910000000  0.4895240000000  0.4780650000000 1.0
C      1  0.4260790000000  0.5285330000000  0.4479210000000 1.0
C      1  0.5217510000000  0.4434210000000  0.5780600000000 1.0
C      1  0.4846320000000  0.5104120000000  0.4685010000000 1.0
C      1  0.5502070000000  0.5682730000000  0.4456660000000 1.0
C      1  0.4687100000000  0.5531470000000  0.4859550000000 1.0
C      1  0.4463050000000  0.5311840000000  0.4941060000000 1.0
C      1  0.5442520000000  0.5785200000000  0.4902040000000 1.0
C      1  0.4889590000000  0.5410650000000  0.4663720000000 1.0
C      1  0.4513630000000  0.4316470000000  0.4516370000000 1.0
C      1  0.6046490000000  0.4981840000000  0.5146150000000 1.0
C      1  0.6020060000000  0.5303700000000  0.4846000000000 1.0
C      1  0.5510890000000  0.5689610000000  0.5474300000000 1.0
C      1  0.5790180000000  0.4785180000000  0.4430870000000 1.0
C      1  0.5058960000000  0.4518670000000  0.5106590000000 1.0
C      1  0.3945500000000  0.4816330000000  0.4738410000000 1.0
C      1  0.4778720000000  0.4627750000000  0.5905120000000 1.0
C      1  0.4482700000000  0.5714200000000  0.4478850000000 1.0
C      1  0.4421830000000  0.4255220000000  0.5338990000000 1.0
C      1  0.5783770000000  0.4582680000000  0.5309560000000 1.0
C      1  0.5824430000000  0.5498810000000  0.4760330000000 1.0
END
