TITL C-950523-3027-520 -5.84044764574141e-05 125000 -330.902892485738 0 0 55 (C1) n - 1
REM
REM in /home/bkarasulu/work/CARBON/AIRSS/Generating-Clusters/EDIP-Nigel-Params/with-SteepDescent/Only-C1/SD-CG/HFTN-CG
REM
REM
REM
REM
REM
REM ./C.cell (11c1c37f851c82e70ff6c80c92926a4b)
REM
REM compiler GCC version 9.2.1 20190827 (Red Hat 9.2.1-1)
REM options -cpp -mtune=generic -march=x86-64 -g -O0 -fpre-include=/usr/include/finclude/math-vector-fortran.h
REM seed -1062972018 1435717484 1451957424 138870165 -120365333 494729375 -776609676 1830121149 -1592882463 -1590081765 -1022088711 -1999467038 1585115361 -1540092662 -1590176872 825280414 493231371 -852453951 1948552916 -454483941 1716886942 734353909 -629629012 -1428670984 -993677688 60635874 -1057306539 640467143 905813693 450720947 -1731307908 -1776546921 1424228241
REM
CELL 1.54180   50.00000   50.00000   50.00000   90.00000   90.00000   90.00000
LATT -1
SFAC C  
C      1  0.4497530000000  0.4605740000000  0.4670700000000 1.0
C      1  0.5212250000000  0.4693260000000  0.5687320000000 1.0
C      1  0.5253960000000  0.5215060000000  0.4404570000000 1.0
C      1  0.4436520000000  0.5607270000000  0.5215230000000 1.0
C      1  0.5138210000000  0.4963710000000  0.5592870000000 1.0
C      1  0.5505190000000  0.5304420000000  0.4863590000000 1.0
C      1  0.5426980000000  0.4576980000000  0.5549030000000 1.0
C      1  0.5102800000000  0.5527410000000  0.4769150000000 1.0
C      1  0.4454490000000  0.5050030000000  0.4880290000000 1.0
C      1  0.5484320000000  0.5441950000000  0.5110330000000 1.0
C      1  0.4786270000000  0.5377780000000  0.5317290000000 1.0
C      1  0.4892200000000  0.4381800000000  0.4536970000000 1.0
C      1  0.4764930000000  0.5341560000000  0.4470010000000 1.0
C      1  0.5239370000000  0.4365930000000  0.4854470000000 1.0
C      1  0.5450640000000  0.4549560000000  0.5269570000000 1.0
C      1  0.4974350000000  0.5123140000000  0.4493240000000 1.0
C      1  0.5651880000000  0.4914350000000  0.4496270000000 1.0
C      1  0.4507540000000  0.4431620000000  0.4895750000000 1.0
C      1  0.4667320000000  0.5768320000000  0.5160720000000 1.0
C      1  0.4828280000000  0.5537060000000  0.4678690000000 1.0
C      1  0.5286040000000  0.5353480000000  0.5289560000000 1.0
C      1  0.5221440000000  0.4400640000000  0.5154310000000 1.0
C      1  0.4734690000000  0.5000590000000  0.4977870000000 1.0
C      1  0.5576520000000  0.4985390000000  0.5367000000000 1.0
C      1  0.5713480000000  0.5110420000000  0.4811040000000 1.0
C      1  0.5402010000000  0.4955720000000  0.4348400000000 1.0
C      1  0.4837600000000  0.5097850000000  0.5233400000000 1.0
C      1  0.4488670000000  0.5281000000000  0.4471990000000 1.0
C      1  0.5103330000000  0.5140160000000  0.4782600000000 1.0
C      1  0.4665600000000  0.5077550000000  0.5669700000000 1.0
C      1  0.4765820000000  0.4358440000000  0.4997680000000 1.0
C      1  0.4362520000000  0.4843250000000  0.4714010000000 1.0
C      1  0.5348640000000  0.5417970000000  0.4637060000000 1.0
C      1  0.4963210000000  0.4277900000000  0.4786220000000 1.0
C      1  0.5185440000000  0.4849840000000  0.4896110000000 1.0
C      1  0.4419480000000  0.5313450000000  0.4747470000000 1.0
C      1  0.4379160000000  0.5459350000000  0.5461630000000 1.0
C      1  0.4595080000000  0.5524350000000  0.4870460000000 1.0
C      1  0.4626370000000  0.5341220000000  0.5568860000000 1.0
C      1  0.4982240000000  0.4530690000000  0.5699460000000 1.0
C      1  0.5312300000000  0.4646250000000  0.4701000000000 1.0
C      1  0.5211520000000  0.4729720000000  0.4414180000000 1.0
C      1  0.5055070000000  0.5513000000000  0.5365210000000 1.0
C      1  0.4794000000000  0.4650630000000  0.4613200000000 1.0
C      1  0.4889270000000  0.4767900000000  0.4885360000000 1.0
C      1  0.4927910000000  0.4834020000000  0.4409740000000 1.0
C      1  0.4932070000000  0.4483390000000  0.5216540000000 1.0
C      1  0.5341680000000  0.5114620000000  0.5440170000000 1.0
C      1  0.5695740000000  0.4838850000000  0.4931100000000 1.0
C      1  0.4944210000000  0.5717890000000  0.5198630000000 1.0
C      1  0.4183360000000  0.5538980000000  0.5623080000000 1.0
C      1  0.5610610000000  0.4696780000000  0.4690450000000 1.0
C      1  0.4853880000000  0.4937220000000  0.5491930000000 1.0
C      1  0.5485240000000  0.4818760000000  0.5144480000000 1.0
C      1  0.4830750000000  0.4615800000000  0.5474070000000 1.0
END
