TITL C-950536-5891-733 7.01052451379054e-07 125000 -572.132998281201 0 0 92 (C1) n - 1
REM
REM in /home/bkarasulu/work/CARBON/AIRSS/Generating-Clusters/EDIP-Nigel-Params/with-SteepDescent/Only-C1/SD-CG/HFTN-CG
REM
REM
REM
REM
REM
REM ./C.cell (11c1c37f851c82e70ff6c80c92926a4b)
REM
REM compiler GCC version 9.2.1 20190827 (Red Hat 9.2.1-1)
REM options -cpp -mtune=generic -march=x86-64 -g -O0 -fpre-include=/usr/include/finclude/math-vector-fortran.h
REM seed -79857839 -2114140405 1146496450 930908979 -1675721749 -1846918202 930594598 -1799428666 -1047498745 -381850386 278636848 1031537681 -1984177300 61277077 -895583592 797930145 386790153 469159607 1623763689 -1715297986 -1446807285 -1113099908 1439399831 2081917113 849878695 -2028116869 -1512481860 -853340966 -896825239 992383774 71359572 -890016702 546296811
REM
CELL 1.54180   50.00000   50.00000   50.00000   90.00000   90.00000   90.00000
LATT -1
SFAC C  
C      1  0.5504350000000  0.5018000000000  0.4752720000000 1.0
C      1  0.5493890000000  0.5285010000000  0.4643990000000 1.0
C      1  0.5141560000000  0.4655970000000  0.4855170000000 1.0
C      1  0.5149980000000  0.5058050000000  0.4110110000000 1.0
C      1  0.5194170000000  0.5566660000000  0.4401320000000 1.0
C      1  0.4175930000000  0.4977780000000  0.5045470000000 1.0
C      1  0.5134160000000  0.4764270000000  0.5177950000000 1.0
C      1  0.4748040000000  0.5522990000000  0.4530400000000 1.0
C      1  0.5110460000000  0.5102750000000  0.5592130000000 1.0
C      1  0.5322110000000  0.4752170000000  0.4380910000000 1.0
C      1  0.4185840000000  0.5125590000000  0.4779110000000 1.0
C      1  0.5634870000000  0.4551380000000  0.4677490000000 1.0
C      1  0.5273270000000  0.5542920000000  0.5298740000000 1.0
C      1  0.4917720000000  0.4176590000000  0.5193120000000 1.0
C      1  0.4864180000000  0.5802720000000  0.5197150000000 1.0
C      1  0.4833410000000  0.4746040000000  0.5818050000000 1.0
C      1  0.5188110000000  0.5388920000000  0.5642510000000 1.0
C      1  0.5312330000000  0.4777910000000  0.5821170000000 1.0
C      1  0.5741860000000  0.4835090000000  0.4668240000000 1.0
C      1  0.5793300000000  0.4874740000000  0.5106140000000 1.0
C      1  0.4950120000000  0.5446140000000  0.4339600000000 1.0
C      1  0.5490390000000  0.4879750000000  0.5606230000000 1.0
C      1  0.5008930000000  0.5056880000000  0.4599370000000 1.0
C      1  0.5759480000000  0.5367990000000  0.5368960000000 1.0
C      1  0.4684150000000  0.5545210000000  0.5316640000000 1.0
C      1  0.4245810000000  0.4987190000000  0.4508650000000 1.0
C      1  0.4485720000000  0.4259970000000  0.4605280000000 1.0
C      1  0.4473720000000  0.5421080000000  0.4501380000000 1.0
C      1  0.4649660000000  0.5103520000000  0.5103740000000 1.0
C      1  0.5702670000000  0.5547570000000  0.4942070000000 1.0
C      1  0.5260580000000  0.5458710000000  0.4663200000000 1.0
C      1  0.5715020000000  0.5312670000000  0.5094740000000 1.0
C      1  0.4399990000000  0.5341150000000  0.4776070000000 1.0
C      1  0.4659820000000  0.5181740000000  0.4827270000000 1.0
C      1  0.5278280000000  0.4469980000000  0.5466110000000 1.0
C      1  0.5558380000000  0.5056800000000  0.5058100000000 1.0
C      1  0.4812350000000  0.4668940000000  0.4872110000000 1.0
C      1  0.4638750000000  0.5259900000000  0.5692280000000 1.0
C      1  0.4753710000000  0.4274910000000  0.4677230000000 1.0
C      1  0.5651250000000  0.4635180000000  0.5175400000000 1.0
C      1  0.5538580000000  0.5764150000000  0.4925480000000 1.0
C      1  0.5023900000000  0.5304300000000  0.4797200000000 1.0
C      1  0.4933880000000  0.4481420000000  0.5841920000000 1.0
C      1  0.4692620000000  0.5545930000000  0.5617890000000 1.0
C      1  0.4384150000000  0.5135510000000  0.5566810000000 1.0
C      1  0.4613180000000  0.4746690000000  0.4278240000000 1.0
C      1  0.5280150000000  0.5031080000000  0.5248570000000 1.0
C      1  0.4353350000000  0.4794780000000  0.5206390000000 1.0
C      1  0.5079700000000  0.5749450000000  0.5408580000000 1.0
C      1  0.5337770000000  0.4291380000000  0.5015080000000 1.0
C      1  0.5021420000000  0.5780680000000  0.4927800000000 1.0
C      1  0.5191860000000  0.4166600000000  0.4802450000000 1.0
C      1  0.5194350000000  0.4269360000000  0.5266350000000 1.0
C      1  0.4922500000000  0.4367070000000  0.4461050000000 1.0
C      1  0.5199790000000  0.4509940000000  0.5746140000000 1.0
C      1  0.4367790000000  0.5582290000000  0.4960970000000 1.0
C      1  0.4395350000000  0.5509310000000  0.5237280000000 1.0
C      1  0.4430750000000  0.4847940000000  0.5491240000000 1.0
C      1  0.4727070000000  0.4798740000000  0.5537050000000 1.0
C      1  0.4829370000000  0.4569520000000  0.4293460000000 1.0
C      1  0.5282310000000  0.5661800000000  0.4876870000000 1.0
C      1  0.4674850000000  0.4449310000000  0.5074790000000 1.0
C      1  0.5492020000000  0.4657150000000  0.5413320000000 1.0
C      1  0.4947350000000  0.5147920000000  0.4306990000000 1.0
C      1  0.5115830000000  0.5288450000000  0.5138030000000 1.0
C      1  0.4908220000000  0.4126070000000  0.4890420000000 1.0
C      1  0.5625940000000  0.5142780000000  0.5639930000000 1.0
C      1  0.5430040000000  0.4493260000000  0.4463550000000 1.0
C      1  0.5552130000000  0.5545660000000  0.5466340000000 1.0
C      1  0.4666910000000  0.5037490000000  0.4228800000000 1.0
C      1  0.4977910000000  0.5625720000000  0.5661650000000 1.0
C      1  0.4383050000000  0.4524670000000  0.5110920000000 1.0
C      1  0.4577560000000  0.5770440000000  0.4927390000000 1.0
C      1  0.5070620000000  0.4936060000000  0.5846900000000 1.0
C      1  0.4861100000000  0.4544400000000  0.5352840000000 1.0
C      1  0.4419020000000  0.5179400000000  0.4334710000000 1.0
C      1  0.4446380000000  0.4760820000000  0.4528580000000 1.0
C      1  0.5185340000000  0.4374270000000  0.4594880000000 1.0
C      1  0.4225760000000  0.4499770000000  0.4882930000000 1.0
C      1  0.5411810000000  0.5147290000000  0.4094900000000 1.0
C      1  0.4334180000000  0.4493300000000  0.4628970000000 1.0
C      1  0.4798110000000  0.5684280000000  0.4772400000000 1.0
C      1  0.4329430000000  0.5227390000000  0.5285400000000 1.0
C      1  0.4835230000000  0.4855840000000  0.5110010000000 1.0
C      1  0.5488800000000  0.4903750000000  0.4201050000000 1.0
C      1  0.4828080000000  0.5277140000000  0.5258610000000 1.0
C      1  0.5945090000000  0.4850050000000  0.4866320000000 1.0
C      1  0.4676330000000  0.4880540000000  0.4696440000000 1.0
C      1  0.5535890000000  0.4493780000000  0.4951950000000 1.0
C      1  0.5245410000000  0.4871540000000  0.4651340000000 1.0
C      1  0.5484970000000  0.5396080000000  0.5714760000000 1.0
C      1  0.4828520000000  0.5106600000000  0.5511710000000 1.0
END
