TITL C-950528-5794-673 -2.44149685173635e-06 125000 -174.14685003518 0 0 30 (C1) n - 1
REM
REM in /home/bkarasulu/work/CARBON/AIRSS/Generating-Clusters/EDIP-Nigel-Params/with-SteepDescent/Only-C1/SD-CG/HFTN-CG
REM
REM
REM
REM
REM
REM ./C.cell (11c1c37f851c82e70ff6c80c92926a4b)
REM
REM compiler GCC version 9.2.1 20190827 (Red Hat 9.2.1-1)
REM options -cpp -mtune=generic -march=x86-64 -g -O0 -fpre-include=/usr/include/finclude/math-vector-fortran.h
REM seed 1705932226 193425962 -1890639091 -1986851665 -1338913749 1160010479 -1740050481 194507711 -881489696 -2030060708 -2045857859 1844016629 -422878937 1280947738 -1284404369 -783628656 -136853880 -250819758 1616447571 585774909 285475896 -1635192393 1043068488 -329292760 -1424507008 -445418980 -711152878 -517884036 52556846 -2138154598 -1735963153 1856446645 1222363277
REM
CELL 1.54180   50.00000   50.00000   50.00000   90.00000   90.00000   90.00000
LATT -1
SFAC C  
C      1  0.4801500000000  0.5031140000000  0.4800660000000 1.0
C      1  0.5087180000000  0.4690820000000  0.5086460000000 1.0
C      1  0.5220450000000  0.5186930000000  0.4504880000000 1.0
C      1  0.4698510000000  0.4829180000000  0.5232960000000 1.0
C      1  0.5303070000000  0.4983680000000  0.4724390000000 1.0
C      1  0.5133930000000  0.5331820000000  0.5019460000000 1.0
C      1  0.5246460000000  0.4474190000000  0.4987570000000 1.0
C      1  0.4757460000000  0.4415320000000  0.5008410000000 1.0
C      1  0.5504270000000  0.5117200000000  0.4911470000000 1.0
C      1  0.4677700000000  0.4816260000000  0.4627500000000 1.0
C      1  0.4605500000000  0.5207580000000  0.4955300000000 1.0
C      1  0.4947430000000  0.5451520000000  0.4818010000000 1.0
C      1  0.5073280000000  0.4954790000000  0.4920910000000 1.0
C      1  0.4682100000000  0.5477360000000  0.4913990000000 1.0
C      1  0.4831580000000  0.4999940000000  0.4414810000000 1.0
C      1  0.4635180000000  0.5116350000000  0.5232030000000 1.0
C      1  0.5268660000000  0.5277950000000  0.5480750000000 1.0
C      1  0.4467050000000  0.4721650000000  0.4790490000000 1.0
C      1  0.4597160000000  0.4641870000000  0.5028540000000 1.0
C      1  0.5413770000000  0.5380430000000  0.4956890000000 1.0
C      1  0.4893230000000  0.4719820000000  0.5422720000000 1.0
C      1  0.5170760000000  0.5063670000000  0.5660350000000 1.0
C      1  0.4973550000000  0.5333000000000  0.4554320000000 1.0
C      1  0.5157900000000  0.4812580000000  0.5501720000000 1.0
C      1  0.5012420000000  0.4338250000000  0.4938580000000 1.0
C      1  0.5554210000000  0.4981690000000  0.5156540000000 1.0
C      1  0.4806690000000  0.5287840000000  0.5376120000000 1.0
C      1  0.5059640000000  0.5392210000000  0.5305800000000 1.0
C      1  0.5294920000000  0.5018260000000  0.5288460000000 1.0
C      1  0.5124420000000  0.4946670000000  0.4379910000000 1.0
END
