TITL C-951341-1326-610 -1.39671691806596e-08 125000 -1052.05684542883 0 0 167 (C1) n - 1
REM
REM in /home/bkarasulu/work/CARBON/AIRSS/Generating-Clusters/EDIP-Nigel-Params/with-SteepDescent/Only-C1/SD-CG/HFTN-CG
REM
REM
REM
REM
REM
REM ./C.cell (11c1c37f851c82e70ff6c80c92926a4b)
REM
REM compiler GCC version 9.2.1 20190827 (Red Hat 9.2.1-1)
REM options -cpp -mtune=generic -march=x86-64 -g -O0 -fpre-include=/usr/include/finclude/math-vector-fortran.h
REM seed -46670502 1156801076 -220367251 -499522784 -1832132765 -1219661771 649150127 648199866 -1510012335 284935911 -23156345 -307318045 -617582774 867916601 1493803583 1966232647 -1018712107 877410894 -1237203485 -1282911840 1774201293 -765600611 -1430219563 -1763281212 1852229933 -856743073 820889012 101457658 2146290655 1426407998 1053691669 -320805641 959742332
REM
CELL 1.54180   50.00000   50.00000   50.00000   90.00000   90.00000   90.00000
LATT -1
SFAC C  
C      1  0.4806680000000  0.5412200000000  0.4412600000000 1.0
C      1  0.4171060000000  0.4351610000000  0.4454130000000 1.0
C      1  0.4637770000000  0.5226760000000  0.6088710000000 1.0
C      1  0.4470130000000  0.4992120000000  0.4949310000000 1.0
C      1  0.5236440000000  0.5216380000000  0.4674180000000 1.0
C      1  0.4343810000000  0.5997460000000  0.5244660000000 1.0
C      1  0.5757450000000  0.4504090000000  0.4328530000000 1.0
C      1  0.4857950000000  0.4163130000000  0.4478910000000 1.0
C      1  0.5363630000000  0.5152730000000  0.4946260000000 1.0
C      1  0.4693390000000  0.5557950000000  0.5035090000000 1.0
C      1  0.4305940000000  0.4346950000000  0.5631260000000 1.0
C      1  0.4836840000000  0.4125150000000  0.5591270000000 1.0
C      1  0.4211360000000  0.4304760000000  0.5144680000000 1.0
C      1  0.5567130000000  0.4317090000000  0.4495960000000 1.0
C      1  0.5282520000000  0.4636440000000  0.5879810000000 1.0
C      1  0.5536340000000  0.4925990000000  0.5056740000000 1.0
C      1  0.4889770000000  0.4710130000000  0.3898510000000 1.0
C      1  0.5517020000000  0.4846670000000  0.5352510000000 1.0
C      1  0.5543480000000  0.6009530000000  0.4878480000000 1.0
C      1  0.5298930000000  0.5289260000000  0.5414080000000 1.0
C      1  0.5257890000000  0.4566330000000  0.5061670000000 1.0
C      1  0.5539540000000  0.4725750000000  0.4645640000000 1.0
C      1  0.5643590000000  0.5022130000000  0.4213510000000 1.0
C      1  0.5610670000000  0.5321330000000  0.4194960000000 1.0
C      1  0.5975660000000  0.4789630000000  0.5204160000000 1.0
C      1  0.5819880000000  0.4710960000000  0.4537710000000 1.0
C      1  0.5126190000000  0.4234950000000  0.4376220000000 1.0
C      1  0.4856200000000  0.5663580000000  0.5251550000000 1.0
C      1  0.5718300000000  0.4434920000000  0.5008260000000 1.0
C      1  0.5181060000000  0.4358740000000  0.5852490000000 1.0
C      1  0.5113350000000  0.5081890000000  0.4415620000000 1.0
C      1  0.4459970000000  0.6171070000000  0.5445720000000 1.0
C      1  0.3803180000000  0.5291400000000  0.5011640000000 1.0
C      1  0.5209960000000  0.5130790000000  0.5998610000000 1.0
C      1  0.4350800000000  0.5363840000000  0.4646090000000 1.0
C      1  0.4714430000000  0.4274740000000  0.5358020000000 1.0
C      1  0.4993970000000  0.5104850000000  0.5781690000000 1.0
C      1  0.4816730000000  0.5326280000000  0.4886310000000 1.0
C      1  0.4905940000000  0.5484060000000  0.5480690000000 1.0
C      1  0.4540120000000  0.4968110000000  0.4265100000000 1.0
C      1  0.4154590000000  0.5486750000000  0.5306940000000 1.0
C      1  0.5503730000000  0.4382720000000  0.5479320000000 1.0
C      1  0.4239200000000  0.5229780000000  0.5424880000000 1.0
C      1  0.5359990000000  0.5568330000000  0.5872250000000 1.0
C      1  0.3948610000000  0.4910490000000  0.4682600000000 1.0
C      1  0.4629200000000  0.4238240000000  0.4323260000000 1.0
C      1  0.4642800000000  0.5047330000000  0.5183880000000 1.0
C      1  0.5528490000000  0.3974250000000  0.5160390000000 1.0
C      1  0.5487150000000  0.5758770000000  0.4413600000000 1.0
C      1  0.4823070000000  0.4769600000000  0.6031200000000 1.0
C      1  0.5226260000000  0.4283210000000  0.4978510000000 1.0
C      1  0.5957930000000  0.5054910000000  0.5074140000000 1.0
C      1  0.4284820000000  0.4816810000000  0.4380740000000 1.0
C      1  0.4456220000000  0.5252250000000  0.4192060000000 1.0
C      1  0.5124290000000  0.5692200000000  0.4727560000000 1.0
C      1  0.5097260000000  0.4715250000000  0.4661300000000 1.0
C      1  0.5131230000000  0.4030290000000  0.5520340000000 1.0
C      1  0.4338450000000  0.5718290000000  0.5355530000000 1.0
C      1  0.5864480000000  0.4994730000000  0.5633510000000 1.0
C      1  0.4657470000000  0.4308300000000  0.4054070000000 1.0
C      1  0.5788920000000  0.5484310000000  0.5663430000000 1.0
C      1  0.4662510000000  0.5998650000000  0.5552030000000 1.0
C      1  0.5434460000000  0.5654810000000  0.5153810000000 1.0
C      1  0.5512830000000  0.4663240000000  0.4930800000000 1.0
C      1  0.5211080000000  0.5731950000000  0.4294340000000 1.0
C      1  0.4699880000000  0.5473690000000  0.5972030000000 1.0
C      1  0.4818540000000  0.4706850000000  0.4585980000000 1.0
C      1  0.4682120000000  0.5695290000000  0.4280870000000 1.0
C      1  0.5816500000000  0.5440470000000  0.4643400000000 1.0
C      1  0.4044490000000  0.4755080000000  0.5280600000000 1.0
C      1  0.5335290000000  0.4600610000000  0.5354730000000 1.0
C      1  0.4389480000000  0.4184780000000  0.4471380000000 1.0
C      1  0.4198790000000  0.5629890000000  0.4273200000000 1.0
C      1  0.4034710000000  0.5458480000000  0.5041490000000 1.0
C      1  0.5366350000000  0.4092010000000  0.4442090000000 1.0
C      1  0.5481020000000  0.5125020000000  0.5830900000000 1.0
C      1  0.5984350000000  0.4566770000000  0.5008370000000 1.0
C      1  0.4887590000000  0.4472870000000  0.4052290000000 1.0
C      1  0.6086650000000  0.5090050000000  0.4829300000000 1.0
C      1  0.5355070000000  0.5787220000000  0.5417000000000 1.0
C      1  0.4945910000000  0.5874400000000  0.4360650000000 1.0
C      1  0.4420410000000  0.4374570000000  0.5365380000000 1.0
C      1  0.5679260000000  0.4249730000000  0.4769220000000 1.0
C      1  0.4427330000000  0.4556500000000  0.5771370000000 1.0
C      1  0.5190050000000  0.5503150000000  0.4115850000000 1.0
C      1  0.4150440000000  0.4938450000000  0.5478710000000 1.0
C      1  0.5065640000000  0.3844790000000  0.4751430000000 1.0
C      1  0.5940350000000  0.5181520000000  0.4611260000000 1.0
C      1  0.4643670000000  0.5492570000000  0.5674520000000 1.0
C      1  0.4603730000000  0.5167810000000  0.4723300000000 1.0
C      1  0.5808790000000  0.5295590000000  0.5194910000000 1.0
C      1  0.5852730000000  0.4977740000000  0.4419380000000 1.0
C      1  0.5233890000000  0.5575380000000  0.5592940000000 1.0
C      1  0.4581170000000  0.5762860000000  0.4860520000000 1.0
C      1  0.5329460000000  0.4206220000000  0.5654060000000 1.0
C      1  0.4454520000000  0.4676020000000  0.4922840000000 1.0
C      1  0.4051180000000  0.4969600000000  0.4427070000000 1.0
C      1  0.4514020000000  0.6030420000000  0.4989290000000 1.0
C      1  0.4897480000000  0.3988910000000  0.4926350000000 1.0
C      1  0.4745510000000  0.4985820000000  0.4496050000000 1.0
C      1  0.6023220000000  0.4647850000000  0.4740180000000 1.0
C      1  0.4870230000000  0.5960380000000  0.5317730000000 1.0
C      1  0.4646740000000  0.4860140000000  0.5403200000000 1.0
C      1  0.5593840000000  0.5402440000000  0.5844820000000 1.0
C      1  0.5005230000000  0.5290880000000  0.4215240000000 1.0
C      1  0.4910170000000  0.5143260000000  0.3972520000000 1.0
C      1  0.5013940000000  0.5218760000000  0.5355530000000 1.0
C      1  0.4551480000000  0.4998600000000  0.5673850000000 1.0
C      1  0.4943160000000  0.5907270000000  0.4656020000000 1.0
C      1  0.5377640000000  0.5039450000000  0.5548040000000 1.0
C      1  0.4751260000000  0.4197370000000  0.4765830000000 1.0
C      1  0.4781630000000  0.6142290000000  0.5076530000000 1.0
C      1  0.5054650000000  0.4114210000000  0.5145280000000 1.0
C      1  0.4681880000000  0.4930950000000  0.3982930000000 1.0
C      1  0.4712010000000  0.4547740000000  0.5866360000000 1.0
C      1  0.5009010000000  0.4749260000000  0.4979320000000 1.0
C      1  0.3788000000000  0.5084840000000  0.4829750000000 1.0
C      1  0.5642950000000  0.5509650000000  0.4419470000000 1.0
C      1  0.4993310000000  0.6137840000000  0.4853310000000 1.0
C      1  0.5281620000000  0.4889310000000  0.4247030000000 1.0
C      1  0.4265910000000  0.4590820000000  0.4592510000000 1.0
C      1  0.5430120000000  0.5411740000000  0.4006980000000 1.0
C      1  0.5121860000000  0.4907500000000  0.3964150000000 1.0
C      1  0.5616740000000  0.4650540000000  0.4119990000000 1.0
C      1  0.4043120000000  0.4656500000000  0.4782540000000 1.0
C      1  0.4924110000000  0.4750190000000  0.5410900000000 1.0
C      1  0.4499400000000  0.5746710000000  0.5601330000000 1.0
C      1  0.4454670000000  0.5265850000000  0.5613210000000 1.0
C      1  0.5125380000000  0.4804910000000  0.6074780000000 1.0
C      1  0.5675680000000  0.5779420000000  0.5033150000000 1.0
C      1  0.5240460000000  0.6049840000000  0.5019290000000 1.0
C      1  0.5831220000000  0.5549250000000  0.4920900000000 1.0
C      1  0.5715120000000  0.4531630000000  0.5632530000000 1.0
C      1  0.4920270000000  0.5094490000000  0.5091850000000 1.0
C      1  0.4426420000000  0.4671230000000  0.5267180000000 1.0
C      1  0.4056530000000  0.4553960000000  0.5066720000000 1.0
C      1  0.5189670000000  0.5437980000000  0.6072330000000 1.0
C      1  0.4941950000000  0.5563070000000  0.6066360000000 1.0
C      1  0.5382920000000  0.4507580000000  0.4054040000000 1.0
C      1  0.4887780000000  0.4314500000000  0.5823750000000 1.0
C      1  0.4730700000000  0.4551600000000  0.4842420000000 1.0
C      1  0.4282720000000  0.4134060000000  0.4940930000000 1.0
C      1  0.5249640000000  0.3897030000000  0.5263800000000 1.0
C      1  0.4383280000000  0.5663050000000  0.4678230000000 1.0
C      1  0.5466880000000  0.5348770000000  0.5165690000000 1.0
C      1  0.5012650000000  0.5424060000000  0.4679130000000 1.0
C      1  0.5317730000000  0.4624560000000  0.4456940000000 1.0
C      1  0.5144250000000  0.4377710000000  0.4131120000000 1.0
C      1  0.4316560000000  0.4826850000000  0.5718100000000 1.0
C      1  0.4408620000000  0.5769230000000  0.4405770000000 1.0
C      1  0.5794310000000  0.4771090000000  0.5454060000000 1.0
C      1  0.5180310000000  0.6023430000000  0.5341730000000 1.0
C      1  0.4246520000000  0.5360230000000  0.4360350000000 1.0
C      1  0.4173020000000  0.5237280000000  0.4872150000000 1.0
C      1  0.5648860000000  0.4244300000000  0.5257730000000 1.0
C      1  0.5838270000000  0.5263830000000  0.5501590000000 1.0
C      1  0.4741200000000  0.5026160000000  0.5907040000000 1.0
C      1  0.5203420000000  0.5749820000000  0.4994780000000 1.0
C      1  0.5448670000000  0.4094500000000  0.4886940000000 1.0
C      1  0.5117070000000  0.4877220000000  0.5620800000000 1.0
C      1  0.4909450000000  0.4480120000000  0.5328920000000 1.0
C      1  0.5592350000000  0.4657100000000  0.5873860000000 1.0
C      1  0.5330970000000  0.3911270000000  0.4680100000000 1.0
C      1  0.4621010000000  0.5467520000000  0.4074140000000 1.0
C      1  0.5544080000000  0.5956070000000  0.4603470000000 1.0
C      1  0.4467760000000  0.4109690000000  0.4738040000000 1.0
C      1  0.5701850000000  0.4934890000000  0.5884140000000 1.0
END
