TITL C-950532-2784-17 -7.75368091898995e-08 125000 -763.575286970901 0 0 124 (C1) n - 1
REM
REM in /home/bkarasulu/work/CARBON/AIRSS/Generating-Clusters/EDIP-Nigel-Params/with-SteepDescent/Only-C1/SD-CG/HFTN-CG
REM
REM
REM
REM
REM
REM ./C.cell (11c1c37f851c82e70ff6c80c92926a4b)
REM
REM compiler GCC version 9.2.1 20190827 (Red Hat 9.2.1-1)
REM options -cpp -mtune=generic -march=x86-64 -g -O0 -fpre-include=/usr/include/finclude/math-vector-fortran.h
REM seed 1444487799 -1371020486 1145230051 793632226 393238205 944329544 1736045699 1360741959 452472561 -1408703332 -2551012 -1134455025 -458699999 -304828402 -1153110200 -992677992 1088580322 -575373636 -1627739205 -1062415084 830064075 1079291365 524379681 -719454158 -1922954772 1856609540 -62655844 -871516126 -1081630029 -1876736453 168228797 -1355114342 -258209494
REM
CELL 1.54180   50.00000   50.00000   50.00000   90.00000   90.00000   90.00000
LATT -1
SFAC C  
C      1  0.4571280000000  0.5490150000000  0.5305520000000 1.0
C      1  0.4920200000000  0.5052910000000  0.4001080000000 1.0
C      1  0.5530940000000  0.4363510000000  0.5171140000000 1.0
C      1  0.5497540000000  0.4976180000000  0.4490490000000 1.0
C      1  0.5029700000000  0.4224210000000  0.5614740000000 1.0
C      1  0.5105450000000  0.6034510000000  0.5161060000000 1.0
C      1  0.4657420000000  0.5142090000000  0.4984290000000 1.0
C      1  0.4410500000000  0.5708130000000  0.5425730000000 1.0
C      1  0.4475780000000  0.4648800000000  0.5675640000000 1.0
C      1  0.4490060000000  0.5406480000000  0.5030180000000 1.0
C      1  0.5833480000000  0.5236620000000  0.4821760000000 1.0
C      1  0.4863400000000  0.4674190000000  0.4968230000000 1.0
C      1  0.4201270000000  0.5317950000000  0.5052250000000 1.0
C      1  0.4609490000000  0.5032760000000  0.4703290000000 1.0
C      1  0.4447510000000  0.4552010000000  0.4628360000000 1.0
C      1  0.5365410000000  0.4434520000000  0.4260840000000 1.0
C      1  0.4912180000000  0.5979700000000  0.4961580000000 1.0
C      1  0.4153810000000  0.5166830000000  0.5303140000000 1.0
C      1  0.4570340000000  0.5929570000000  0.5328240000000 1.0
C      1  0.5603640000000  0.4477770000000  0.4405830000000 1.0
C      1  0.4006210000000  0.4755280000000  0.5020610000000 1.0
C      1  0.4062130000000  0.4844840000000  0.4509470000000 1.0
C      1  0.4927590000000  0.5907040000000  0.4675900000000 1.0
C      1  0.5230700000000  0.5591450000000  0.4538740000000 1.0
C      1  0.4714750000000  0.5690460000000  0.4329540000000 1.0
C      1  0.4882010000000  0.4633430000000  0.4209900000000 1.0
C      1  0.4255040000000  0.4786910000000  0.4302640000000 1.0
C      1  0.4672080000000  0.5847730000000  0.5058360000000 1.0
C      1  0.4953060000000  0.5162800000000  0.4982140000000 1.0
C      1  0.5699640000000  0.4750200000000  0.4438170000000 1.0
C      1  0.4046880000000  0.4924390000000  0.4781840000000 1.0
C      1  0.4441200000000  0.5271150000000  0.4285740000000 1.0
C      1  0.5340700000000  0.4317650000000  0.4635620000000 1.0
C      1  0.5007220000000  0.5875250000000  0.5381140000000 1.0
C      1  0.4764490000000  0.4970190000000  0.5844730000000 1.0
C      1  0.5473010000000  0.5582920000000  0.4734110000000 1.0
C      1  0.4411960000000  0.4697880000000  0.5168760000000 1.0
C      1  0.4870460000000  0.5354230000000  0.4026120000000 1.0
C      1  0.5748650000000  0.5341590000000  0.5297080000000 1.0
C      1  0.4403770000000  0.5482760000000  0.5739510000000 1.0
C      1  0.5215950000000  0.4600590000000  0.5355250000000 1.0
C      1  0.5006760000000  0.5040800000000  0.5721440000000 1.0
C      1  0.4290610000000  0.4584670000000  0.5446540000000 1.0
C      1  0.5387480000000  0.4736190000000  0.4910590000000 1.0
C      1  0.5463650000000  0.5719940000000  0.5208380000000 1.0
C      1  0.5468730000000  0.4661230000000  0.5180040000000 1.0
C      1  0.5750760000000  0.5086710000000  0.5451880000000 1.0
C      1  0.4530570000000  0.4390530000000  0.5032630000000 1.0
C      1  0.4698670000000  0.5413220000000  0.4253760000000 1.0
C      1  0.5395720000000  0.5323200000000  0.5748760000000 1.0
C      1  0.4618770000000  0.4747680000000  0.4780660000000 1.0
C      1  0.6014630000000  0.4330390000000  0.5149480000000 1.0
C      1  0.6048900000000  0.4524450000000  0.4696790000000 1.0
C      1  0.4745800000000  0.4561730000000  0.5627340000000 1.0
C      1  0.4664930000000  0.3940470000000  0.5234120000000 1.0
C      1  0.5904700000000  0.5396280000000  0.5055980000000 1.0
C      1  0.5475970000000  0.4827850000000  0.5782320000000 1.0
C      1  0.4874230000000  0.4073670000000  0.5074120000000 1.0
C      1  0.4287830000000  0.4266720000000  0.5393570000000 1.0
C      1  0.5226800000000  0.4674870000000  0.5655950000000 1.0
C      1  0.5037500000000  0.4998470000000  0.5430440000000 1.0
C      1  0.5929850000000  0.4767980000000  0.4612280000000 1.0
C      1  0.5218450000000  0.4280110000000  0.5385870000000 1.0
C      1  0.4968990000000  0.5452480000000  0.4652720000000 1.0
C      1  0.4988330000000  0.5446630000000  0.4964300000000 1.0
C      1  0.5091510000000  0.4494600000000  0.4607470000000 1.0
C      1  0.4546990000000  0.5658680000000  0.4861390000000 1.0
C      1  0.5451220000000  0.5013570000000  0.4822510000000 1.0
C      1  0.4052280000000  0.4476600000000  0.5021680000000 1.0
C      1  0.4515340000000  0.4928140000000  0.5733300000000 1.0
C      1  0.5390150000000  0.4201240000000  0.4923430000000 1.0
C      1  0.5599790000000  0.4578850000000  0.5700430000000 1.0
C      1  0.4878260000000  0.4783620000000  0.5276400000000 1.0
C      1  0.4721120000000  0.4416520000000  0.4305170000000 1.0
C      1  0.4913720000000  0.5461210000000  0.5944460000000 1.0
C      1  0.4780420000000  0.5349920000000  0.5497960000000 1.0
C      1  0.5518130000000  0.5557100000000  0.5665810000000 1.0
C      1  0.5596020000000  0.5749530000000  0.4946290000000 1.0
C      1  0.4750920000000  0.5670900000000  0.4626330000000 1.0
C      1  0.4568590000000  0.4309880000000  0.4731670000000 1.0
C      1  0.5195870000000  0.5326900000000  0.4057730000000 1.0
C      1  0.4090660000000  0.5205350000000  0.4812090000000 1.0
C      1  0.5174240000000  0.4109260000000  0.5129790000000 1.0
C      1  0.5675910000000  0.5397390000000  0.4626290000000 1.0
C      1  0.5077290000000  0.5028740000000  0.4736670000000 1.0
C      1  0.4766660000000  0.4307260000000  0.5470780000000 1.0
C      1  0.5769240000000  0.4812560000000  0.5304210000000 1.0
C      1  0.5247010000000  0.4902790000000  0.4344770000000 1.0
C      1  0.5795150000000  0.4331850000000  0.5322190000000 1.0
C      1  0.4544420000000  0.4103160000000  0.5448120000000 1.0
C      1  0.5315790000000  0.5032840000000  0.5360490000000 1.0
C      1  0.5148940000000  0.4620880000000  0.4341050000000 1.0
C      1  0.5129640000000  0.5870970000000  0.4452280000000 1.0
C      1  0.4700800000000  0.5475180000000  0.5753630000000 1.0
C      1  0.4779270000000  0.4923680000000  0.4236420000000 1.0
C      1  0.4822590000000  0.4319670000000  0.4563130000000 1.0
C      1  0.6052000000000  0.4548340000000  0.4978610000000 1.0
C      1  0.4607000000000  0.4930370000000  0.5226260000000 1.0
C      1  0.5643430000000  0.5593500000000  0.5417210000000 1.0
C      1  0.5266480000000  0.5484940000000  0.5114120000000 1.0
C      1  0.4360630000000  0.5132310000000  0.4554420000000 1.0
C      1  0.4364350000000  0.4525930000000  0.4346920000000 1.0
C      1  0.5884230000000  0.4948270000000  0.4834290000000 1.0
C      1  0.5331260000000  0.5418940000000  0.4311430000000 1.0
C      1  0.5106000000000  0.5302670000000  0.5801900000000 1.0
C      1  0.4949660000000  0.5827260000000  0.4232840000000 1.0
C      1  0.4812520000000  0.4355320000000  0.5173130000000 1.0
C      1  0.5216790000000  0.5017760000000  0.4076240000000 1.0
C      1  0.5019160000000  0.4491280000000  0.5785250000000 1.0
C      1  0.4082200000000  0.4869100000000  0.5286650000000 1.0
C      1  0.5494040000000  0.5074850000000  0.5604190000000 1.0
C      1  0.4855260000000  0.5106450000000  0.4527000000000 1.0
C      1  0.5865500000000  0.5669050000000  0.4988140000000 1.0
C      1  0.4471150000000  0.4982240000000  0.4197670000000 1.0
C      1  0.5105980000000  0.4721470000000  0.4807940000000 1.0
C      1  0.5967990000000  0.4811060000000  0.5075540000000 1.0
C      1  0.5377080000000  0.5192390000000  0.5111940000000 1.0
C      1  0.4544530000000  0.5091900000000  0.5483050000000 1.0
C      1  0.5002240000000  0.5566740000000  0.5334660000000 1.0
C      1  0.4242310000000  0.5317250000000  0.5548760000000 1.0
C      1  0.4247960000000  0.4288870000000  0.5105180000000 1.0
C      1  0.4781530000000  0.5997950000000  0.5503490000000 1.0
C      1  0.5799720000000  0.4575790000000  0.5493480000000 1.0
C      1  0.5565570000000  0.5255260000000  0.4397000000000 1.0
END
