TITL C-951347-9520-470 -4.02950054592849e-06 125000 -1077.57920891373 0 0 171 (C1) n - 1
REM
REM in /home/bkarasulu/work/CARBON/AIRSS/Generating-Clusters/EDIP-Nigel-Params/with-SteepDescent/Only-C1/SD-CG/HFTN-CG
REM
REM
REM
REM
REM
REM ./C.cell (11c1c37f851c82e70ff6c80c92926a4b)
REM
REM compiler GCC version 9.2.1 20190827 (Red Hat 9.2.1-1)
REM options -cpp -mtune=generic -march=x86-64 -g -O0 -fpre-include=/usr/include/finclude/math-vector-fortran.h
REM seed -1246784986 89558312 945297569 -1473849653 811489976 -915247293 2048777793 394800864 1472011830 -1607675005 2052118553 1461842626 -1762081732 -125743648 357629999 918903910 -1429689256 -1138677037 1735914636 -210604988 2115668728 742476951 158943728 1675809486 2079555082 1563958068 666284260 2066789476 604414508 349106843 70989204 -325055431 -476383546
REM
CELL 1.54180   50.00000   50.00000   50.00000   90.00000   90.00000   90.00000
LATT -1
SFAC C  
C      1  0.4904890000000  0.5811880000000  0.4369340000000 1.0
C      1  0.4943660000000  0.4605270000000  0.4960100000000 1.0
C      1  0.4851560000000  0.4868240000000  0.5056140000000 1.0
C      1  0.5076120000000  0.4814810000000  0.4525570000000 1.0
C      1  0.4860230000000  0.5878090000000  0.5496200000000 1.0
C      1  0.5960020000000  0.5581380000000  0.5359690000000 1.0
C      1  0.5173800000000  0.5362970000000  0.4583620000000 1.0
C      1  0.4686330000000  0.4110610000000  0.5421110000000 1.0
C      1  0.4590290000000  0.3927390000000  0.5148110000000 1.0
C      1  0.5160920000000  0.4630830000000  0.4030840000000 1.0
C      1  0.4436060000000  0.5674920000000  0.4697350000000 1.0
C      1  0.4025320000000  0.4260230000000  0.4763460000000 1.0
C      1  0.5589890000000  0.5947040000000  0.4992130000000 1.0
C      1  0.5484530000000  0.5468080000000  0.4978570000000 1.0
C      1  0.4693270000000  0.4352770000000  0.5225440000000 1.0
C      1  0.4843860000000  0.5907730000000  0.5189880000000 1.0
C      1  0.3980570000000  0.4613930000000  0.5050870000000 1.0
C      1  0.5712340000000  0.5074350000000  0.5756110000000 1.0
C      1  0.4905910000000  0.5349720000000  0.5356740000000 1.0
C      1  0.4480640000000  0.5631070000000  0.5335660000000 1.0
C      1  0.5255740000000  0.5456900000000  0.4264040000000 1.0
C      1  0.5127020000000  0.5783440000000  0.5601280000000 1.0
C      1  0.3818420000000  0.5150060000000  0.4925030000000 1.0
C      1  0.5144280000000  0.4005700000000  0.5334720000000 1.0
C      1  0.5892040000000  0.5769170000000  0.5152020000000 1.0
C      1  0.4310970000000  0.3973190000000  0.5056700000000 1.0
C      1  0.5055780000000  0.6072770000000  0.4763130000000 1.0
C      1  0.4246260000000  0.4090910000000  0.4799780000000 1.0
C      1  0.5172650000000  0.5578350000000  0.5843110000000 1.0
C      1  0.5316660000000  0.4437350000000  0.4718370000000 1.0
C      1  0.5211000000000  0.4412380000000  0.4211000000000 1.0
C      1  0.5192410000000  0.5300110000000  0.5326340000000 1.0
C      1  0.4795130000000  0.5397500000000  0.4903780000000 1.0
C      1  0.5480500000000  0.5555080000000  0.5358500000000 1.0
C      1  0.5726330000000  0.5020190000000  0.4855650000000 1.0
C      1  0.5289080000000  0.6095560000000  0.4612600000000 1.0
C      1  0.4645730000000  0.4960690000000  0.3946780000000 1.0
C      1  0.4472770000000  0.5340790000000  0.5945910000000 1.0
C      1  0.4546060000000  0.5176540000000  0.4502900000000 1.0
C      1  0.4750970000000  0.5179830000000  0.5528060000000 1.0
C      1  0.6028060000000  0.4899940000000  0.5150540000000 1.0
C      1  0.4587990000000  0.5968700000000  0.5042560000000 1.0
C      1  0.4866860000000  0.4648690000000  0.4000950000000 1.0
C      1  0.4971970000000  0.4074440000000  0.5563240000000 1.0
C      1  0.5022490000000  0.5560020000000  0.4779640000000 1.0
C      1  0.4874660000000  0.4678370000000  0.5555590000000 1.0
C      1  0.4359700000000  0.4641330000000  0.4156900000000 1.0
C      1  0.5594060000000  0.5164610000000  0.4616930000000 1.0
C      1  0.5585900000000  0.5337450000000  0.5732190000000 1.0
C      1  0.3966950000000  0.5091060000000  0.5171370000000 1.0
C      1  0.5393830000000  0.4017460000000  0.4827340000000 1.0
C      1  0.5127270000000  0.4473670000000  0.5146040000000 1.0
C      1  0.4693860000000  0.4914750000000  0.5966970000000 1.0
C      1  0.5504460000000  0.4757600000000  0.4958600000000 1.0
C      1  0.5557170000000  0.4927370000000  0.5951030000000 1.0
C      1  0.4414090000000  0.5658430000000  0.4401680000000 1.0
C      1  0.4044930000000  0.4964520000000  0.4501290000000 1.0
C      1  0.4100390000000  0.5418760000000  0.4899130000000 1.0
C      1  0.4628320000000  0.5879700000000  0.4767250000000 1.0
C      1  0.5804790000000  0.4236930000000  0.4976210000000 1.0
C      1  0.4401280000000  0.4338120000000  0.5123490000000 1.0
C      1  0.6108460000000  0.5367520000000  0.5256730000000 1.0
C      1  0.5816810000000  0.4537440000000  0.5400490000000 1.0
C      1  0.4657110000000  0.4618980000000  0.5368660000000 1.0
C      1  0.4044330000000  0.5346780000000  0.4596350000000 1.0
C      1  0.4503450000000  0.4199790000000  0.4717370000000 1.0
C      1  0.4565430000000  0.5237490000000  0.3987540000000 1.0
C      1  0.5220010000000  0.5599310000000  0.5007410000000 1.0
C      1  0.5494090000000  0.4212290000000  0.4589150000000 1.0
C      1  0.4293130000000  0.5423780000000  0.5439490000000 1.0
C      1  0.4565960000000  0.4811070000000  0.5158910000000 1.0
C      1  0.4450350000000  0.5179560000000  0.5498090000000 1.0
C      1  0.5927520000000  0.5683550000000  0.4873850000000 1.0
C      1  0.5409410000000  0.4284930000000  0.5567210000000 1.0
C      1  0.4530320000000  0.4439450000000  0.4555620000000 1.0
C      1  0.4912470000000  0.5271110000000  0.6141090000000 1.0
C      1  0.5745490000000  0.5597960000000  0.4315020000000 1.0
C      1  0.5392950000000  0.4473750000000  0.4997330000000 1.0
C      1  0.6001160000000  0.5015670000000  0.4574840000000 1.0
C      1  0.5423560000000  0.4099820000000  0.5342120000000 1.0
C      1  0.4251030000000  0.4350160000000  0.5395960000000 1.0
C      1  0.3798030000000  0.5065810000000  0.4647620000000 1.0
C      1  0.4502250000000  0.4414580000000  0.4260670000000 1.0
C      1  0.5182810000000  0.5751480000000  0.4278740000000 1.0
C      1  0.4171110000000  0.4969360000000  0.4218750000000 1.0
C      1  0.5038000000000  0.4546030000000  0.4677780000000 1.0
C      1  0.5310300000000  0.5874630000000  0.5103950000000 1.0
C      1  0.4548060000000  0.4859000000000  0.4211600000000 1.0
C      1  0.5027330000000  0.4182080000000  0.5128030000000 1.0
C      1  0.4128050000000  0.4698960000000  0.4601390000000 1.0
C      1  0.4976000000000  0.4246640000000  0.4269350000000 1.0
C      1  0.4785310000000  0.5374350000000  0.4138900000000 1.0
C      1  0.4342860000000  0.5828810000000  0.5140890000000 1.0
C      1  0.4755140000000  0.5525840000000  0.5182520000000 1.0
C      1  0.5837120000000  0.4536800000000  0.4549640000000 1.0
C      1  0.5346970000000  0.5814850000000  0.5405490000000 1.0
C      1  0.5566320000000  0.4858260000000  0.4230110000000 1.0
C      1  0.4327260000000  0.5134770000000  0.5775370000000 1.0
C      1  0.4051950000000  0.4804460000000  0.5246720000000 1.0
C      1  0.5078900000000  0.6050570000000  0.5056360000000 1.0
C      1  0.4409370000000  0.4874180000000  0.5879310000000 1.0
C      1  0.5890420000000  0.4476220000000  0.5114090000000 1.0
C      1  0.4687390000000  0.5641310000000  0.4258300000000 1.0
C      1  0.5717420000000  0.5520560000000  0.5522840000000 1.0
C      1  0.4921650000000  0.4237840000000  0.4569640000000 1.0
C      1  0.5732090000000  0.5851420000000  0.4749080000000 1.0
C      1  0.4318930000000  0.5228860000000  0.4178960000000 1.0
C      1  0.4405990000000  0.5061480000000  0.5212530000000 1.0
C      1  0.3956710000000  0.4532840000000  0.4777200000000 1.0
C      1  0.5233330000000  0.4515870000000  0.5952350000000 1.0
C      1  0.6003290000000  0.4734270000000  0.4679110000000 1.0
C      1  0.4174340000000  0.4631280000000  0.5475790000000 1.0
C      1  0.5573770000000  0.5375640000000  0.4220580000000 1.0
C      1  0.5137530000000  0.4603350000000  0.5427080000000 1.0
C      1  0.5100320000000  0.4071400000000  0.4849590000000 1.0
C      1  0.5464600000000  0.5429740000000  0.4673150000000 1.0
C      1  0.5188940000000  0.4996880000000  0.5718790000000 1.0
C      1  0.4595890000000  0.4920170000000  0.4645710000000 1.0
C      1  0.4201600000000  0.5711110000000  0.4891800000000 1.0
C      1  0.5520190000000  0.5187690000000  0.5052260000000 1.0
C      1  0.6101540000000  0.5220370000000  0.4775700000000 1.0
C      1  0.5098540000000  0.5039710000000  0.6092580000000 1.0
C      1  0.5519900000000  0.4183880000000  0.5056430000000 1.0
C      1  0.5657710000000  0.4590530000000  0.4322550000000 1.0
C      1  0.4829410000000  0.5047990000000  0.4825960000000 1.0
C      1  0.4535090000000  0.5383800000000  0.4754200000000 1.0
C      1  0.5111940000000  0.5049000000000  0.4709190000000 1.0
C      1  0.6060850000000  0.5495350000000  0.4687690000000 1.0
C      1  0.4366700000000  0.4627490000000  0.4996870000000 1.0
C      1  0.4875320000000  0.4959870000000  0.5692450000000 1.0
C      1  0.5162440000000  0.5004850000000  0.5239070000000 1.0
C      1  0.4915580000000  0.5512490000000  0.5968360000000 1.0
C      1  0.5173280000000  0.5097170000000  0.3988530000000 1.0
C      1  0.5678720000000  0.4942150000000  0.5509000000000 1.0
C      1  0.4710680000000  0.4014120000000  0.4668120000000 1.0
C      1  0.4984730000000  0.4672000000000  0.6049660000000 1.0
C      1  0.4369890000000  0.4653720000000  0.5701860000000 1.0
C      1  0.4902800000000  0.5837070000000  0.4669370000000 1.0
C      1  0.4928320000000  0.4912450000000  0.4280870000000 1.0
C      1  0.4057430000000  0.5321450000000  0.5313910000000 1.0
C      1  0.6082950000000  0.5168740000000  0.5064060000000 1.0
C      1  0.5579530000000  0.5701340000000  0.4540130000000 1.0
C      1  0.4449620000000  0.4215030000000  0.5588920000000 1.0
C      1  0.4760630000000  0.4388010000000  0.4114130000000 1.0
C      1  0.5459500000000  0.4667440000000  0.5834590000000 1.0
C      1  0.4672140000000  0.5518690000000  0.5803690000000 1.0
C      1  0.5314670000000  0.4871010000000  0.4071610000000 1.0
C      1  0.5579740000000  0.4518200000000  0.5594470000000 1.0
C      1  0.4408410000000  0.4675720000000  0.4693620000000 1.0
C      1  0.6037470000000  0.4681820000000  0.4967540000000 1.0
C      1  0.4349560000000  0.5260230000000  0.4962420000000 1.0
C      1  0.4779030000000  0.3882530000000  0.4921910000000 1.0
C      1  0.4644000000000  0.5166100000000  0.6124210000000 1.0
C      1  0.5476220000000  0.4356830000000  0.4312030000000 1.0
C      1  0.4618550000000  0.5735380000000  0.5595420000000 1.0
C      1  0.4832490000000  0.4503030000000  0.5795930000000 1.0
C      1  0.5912570000000  0.4811230000000  0.5407560000000 1.0
C      1  0.5273130000000  0.5272390000000  0.5621770000000 1.0
C      1  0.4529520000000  0.4421950000000  0.5787250000000 1.0
C      1  0.5435290000000  0.5426750000000  0.5995350000000 1.0
C      1  0.5309430000000  0.4845930000000  0.5462190000000 1.0
C      1  0.5699840000000  0.5109300000000  0.4345700000000 1.0
C      1  0.5303950000000  0.4986510000000  0.4977470000000 1.0
C      1  0.4223350000000  0.5440570000000  0.4362350000000 1.0
C      1  0.5781380000000  0.4274310000000  0.4675530000000 1.0
C      1  0.4805840000000  0.5187000000000  0.4360560000000 1.0
C      1  0.5077080000000  0.5350660000000  0.4050120000000 1.0
C      1  0.5149720000000  0.4283020000000  0.5727360000000 1.0
C      1  0.5375160000000  0.5889590000000  0.4442310000000 1.0
C      1  0.5382270000000  0.5131380000000  0.6091470000000 1.0
C      1  0.5996470000000  0.5524280000000  0.4415100000000 1.0
END
