TITL C-950534-5965-618 -3.76005621866885e-06 125000 -901.098584388244 0 0 145 (C1) n - 1
REM
REM in /home/bkarasulu/work/CARBON/AIRSS/Generating-Clusters/EDIP-Nigel-Params/with-SteepDescent/Only-C1/SD-CG/HFTN-CG
REM
REM
REM
REM
REM
REM ./C.cell (11c1c37f851c82e70ff6c80c92926a4b)
REM
REM compiler GCC version 9.2.1 20190827 (Red Hat 9.2.1-1)
REM options -cpp -mtune=generic -march=x86-64 -g -O0 -fpre-include=/usr/include/finclude/math-vector-fortran.h
REM seed -1277987429 -366505919 -1722196953 -810431046 141360515 -848205043 1236122645 2115815523 -1317157153 1147153743 740822644 1667016355 2061015315 376936288 -1243403196 -1980975223 -296258337 -1392591036 585725962 1379341020 -247731902 -730294995 -1838766882 -1725590720 -1826372530 144844770 1303312692 -711261047 1747609754 -830667453 344227762 855784978 -931735574
REM
CELL 1.54180   50.00000   50.00000   50.00000   90.00000   90.00000   90.00000
LATT -1
SFAC C  
C      1  0.4135080000000  0.5526370000000  0.5240600000000 1.0
C      1  0.5238950000000  0.4818420000000  0.5420930000000 1.0
C      1  0.3991290000000  0.4722460000000  0.5582440000000 1.0
C      1  0.4219250000000  0.4319480000000  0.5279130000000 1.0
C      1  0.5765620000000  0.4775000000000  0.4289210000000 1.0
C      1  0.3986080000000  0.4775220000000  0.5306450000000 1.0
C      1  0.5076010000000  0.5482720000000  0.5414900000000 1.0
C      1  0.4804810000000  0.5153600000000  0.5278680000000 1.0
C      1  0.5753830000000  0.5223260000000  0.4492220000000 1.0
C      1  0.4825580000000  0.5593020000000  0.5294590000000 1.0
C      1  0.5745890000000  0.4542630000000  0.5009590000000 1.0
C      1  0.5118830000000  0.5921950000000  0.5252610000000 1.0
C      1  0.5418070000000  0.5155570000000  0.4214320000000 1.0
C      1  0.4696090000000  0.5944920000000  0.5523940000000 1.0
C      1  0.5947130000000  0.5566190000000  0.4695060000000 1.0
C      1  0.5162210000000  0.4649900000000  0.5893750000000 1.0
C      1  0.4815180000000  0.5982180000000  0.5254790000000 1.0
C      1  0.5428080000000  0.4934000000000  0.4684400000000 1.0
C      1  0.5729020000000  0.5598090000000  0.5387180000000 1.0
C      1  0.4692540000000  0.4739710000000  0.5558480000000 1.0
C      1  0.5272600000000  0.5427160000000  0.5192900000000 1.0
C      1  0.5292090000000  0.4476020000000  0.4639150000000 1.0
C      1  0.4513740000000  0.5136300000000  0.5294080000000 1.0
C      1  0.4151830000000  0.4507040000000  0.4617850000000 1.0
C      1  0.5332870000000  0.4737440000000  0.5151610000000 1.0
C      1  0.5017720000000  0.5695820000000  0.4844370000000 1.0
C      1  0.4261690000000  0.4698810000000  0.4328090000000 1.0
C      1  0.5901220000000  0.5445030000000  0.4943860000000 1.0
C      1  0.4549010000000  0.4674820000000  0.4405810000000 1.0
C      1  0.5606800000000  0.4634760000000  0.4104160000000 1.0
C      1  0.5678410000000  0.5347350000000  0.5560080000000 1.0
C      1  0.5263150000000  0.5084870000000  0.5538780000000 1.0
C      1  0.4663670000000  0.4964860000000  0.5780990000000 1.0
C      1  0.5055280000000  0.4420940000000  0.5377410000000 1.0
C      1  0.4980360000000  0.4101450000000  0.4627880000000 1.0
C      1  0.5919780000000  0.4638960000000  0.5256310000000 1.0
C      1  0.4996660000000  0.4825400000000  0.6039550000000 1.0
C      1  0.5041910000000  0.5574540000000  0.6016540000000 1.0
C      1  0.5056120000000  0.4935050000000  0.4426910000000 1.0
C      1  0.4254780000000  0.4768110000000  0.5653320000000 1.0
C      1  0.4850190000000  0.5416380000000  0.4293820000000 1.0
C      1  0.5269600000000  0.4183310000000  0.4717710000000 1.0
C      1  0.4728600000000  0.5173110000000  0.4188420000000 1.0
C      1  0.5404820000000  0.4243530000000  0.4269220000000 1.0
C      1  0.4843940000000  0.4322720000000  0.4495700000000 1.0
C      1  0.5816380000000  0.5034310000000  0.5566230000000 1.0
C      1  0.5291170000000  0.5896330000000  0.5506210000000 1.0
C      1  0.4146510000000  0.5386480000000  0.4980160000000 1.0
C      1  0.4141700000000  0.4587330000000  0.5113440000000 1.0
C      1  0.5754130000000  0.4282210000000  0.4536530000000 1.0
C      1  0.5374040000000  0.5419540000000  0.4354130000000 1.0
C      1  0.5425760000000  0.4784230000000  0.5822680000000 1.0
C      1  0.5858080000000  0.5034040000000  0.4676540000000 1.0
C      1  0.3983950000000  0.5067730000000  0.5254260000000 1.0
C      1  0.5096770000000  0.4365840000000  0.5093000000000 1.0
C      1  0.5223070000000  0.5638490000000  0.5615860000000 1.0
C      1  0.4384180000000  0.4361370000000  0.4721270000000 1.0
C      1  0.5909880000000  0.5146660000000  0.4952650000000 1.0
C      1  0.4077820000000  0.4937110000000  0.4782930000000 1.0
C      1  0.4930860000000  0.5060790000000  0.5030940000000 1.0
C      1  0.4806160000000  0.5142010000000  0.4758430000000 1.0
C      1  0.5608900000000  0.6006740000000  0.5149170000000 1.0
C      1  0.5648020000000  0.4358370000000  0.4177140000000 1.0
C      1  0.4939020000000  0.5314700000000  0.5998460000000 1.0
C      1  0.4372080000000  0.5709350000000  0.5268420000000 1.0
C      1  0.5525400000000  0.5436310000000  0.4711190000000 1.0
C      1  0.4412360000000  0.4121330000000  0.5160570000000 1.0
C      1  0.5194820000000  0.5200000000000  0.5013440000000 1.0
C      1  0.4861770000000  0.4086500000000  0.5469810000000 1.0
C      1  0.4680690000000  0.4216070000000  0.5256020000000 1.0
C      1  0.4790100000000  0.4047410000000  0.4838600000000 1.0
C      1  0.5090190000000  0.5845320000000  0.4375890000000 1.0
C      1  0.5504060000000  0.4106550000000  0.4520470000000 1.0
C      1  0.5259060000000  0.4508060000000  0.4343420000000 1.0
C      1  0.4773050000000  0.5606110000000  0.4990630000000 1.0
C      1  0.5480260000000  0.5231070000000  0.5356500000000 1.0
C      1  0.4916100000000  0.4932010000000  0.4161900000000 1.0
C      1  0.4257920000000  0.4957120000000  0.4217400000000 1.0
C      1  0.5033560000000  0.5207330000000  0.4559460000000 1.0
C      1  0.4598750000000  0.4464780000000  0.5660240000000 1.0
C      1  0.4093380000000  0.5303160000000  0.5435350000000 1.0
C      1  0.5210920000000  0.4710700000000  0.4786920000000 1.0
C      1  0.5293430000000  0.5155180000000  0.3961270000000 1.0
C      1  0.4351700000000  0.5389170000000  0.4420870000000 1.0
C      1  0.4369680000000  0.5240800000000  0.5549840000000 1.0
C      1  0.4552960000000  0.5446660000000  0.5675910000000 1.0
C      1  0.4541000000000  0.5817470000000  0.5022640000000 1.0
C      1  0.5345010000000  0.4208000000000  0.5525070000000 1.0
C      1  0.4899730000000  0.4765270000000  0.5087580000000 1.0
C      1  0.5932830000000  0.4944620000000  0.5293280000000 1.0
C      1  0.4955200000000  0.4707100000000  0.5383600000000 1.0
C      1  0.4088270000000  0.5448400000000  0.4505830000000 1.0
C      1  0.4979460000000  0.5223080000000  0.5510380000000 1.0
C      1  0.4422870000000  0.4717250000000  0.5067580000000 1.0
C      1  0.5057900000000  0.4397690000000  0.5820610000000 1.0
C      1  0.5172400000000  0.4025650000000  0.5366830000000 1.0
C      1  0.5548120000000  0.5810830000000  0.4590440000000 1.0
C      1  0.4132010000000  0.5583290000000  0.4752990000000 1.0
C      1  0.5685030000000  0.5557010000000  0.5097770000000 1.0
C      1  0.4922580000000  0.4721960000000  0.4653350000000 1.0
C      1  0.5585230000000  0.5872240000000  0.5403870000000 1.0
C      1  0.4588530000000  0.5672380000000  0.5475260000000 1.0
C      1  0.4594250000000  0.4920440000000  0.4643870000000 1.0
C      1  0.5352920000000  0.4708090000000  0.3981790000000 1.0
C      1  0.5363850000000  0.4890450000000  0.4376430000000 1.0
C      1  0.5113480000000  0.5765530000000  0.5833200000000 1.0
C      1  0.5313800000000  0.4167170000000  0.5039240000000 1.0
C      1  0.4576940000000  0.4412650000000  0.4527010000000 1.0
C      1  0.5107200000000  0.5554870000000  0.4300770000000 1.0
C      1  0.5826040000000  0.4515340000000  0.4709240000000 1.0
C      1  0.5298350000000  0.5209830000000  0.4739110000000 1.0
C      1  0.4978230000000  0.5892780000000  0.4642570000000 1.0
C      1  0.4473980000000  0.4841480000000  0.5346220000000 1.0
C      1  0.5584070000000  0.4295650000000  0.5111850000000 1.0
C      1  0.5578960000000  0.4321650000000  0.5399320000000 1.0
C      1  0.5121890000000  0.5083130000000  0.6045080000000 1.0
C      1  0.3958240000000  0.5145330000000  0.4967660000000 1.0
C      1  0.4010430000000  0.4648510000000  0.4831620000000 1.0
C      1  0.4772540000000  0.4678770000000  0.4194780000000 1.0
C      1  0.5820630000000  0.4769770000000  0.4565120000000 1.0
C      1  0.5691200000000  0.5042160000000  0.5140920000000 1.0
C      1  0.5751880000000  0.4548940000000  0.5487040000000 1.0
C      1  0.4412900000000  0.5228370000000  0.4997660000000 1.0
C      1  0.4373630000000  0.5011110000000  0.5744870000000 1.0
C      1  0.4819080000000  0.4296980000000  0.5008810000000 1.0
C      1  0.5233980000000  0.5724140000000  0.5048720000000 1.0
C      1  0.4362780000000  0.4364130000000  0.5527790000000 1.0
C      1  0.4387570000000  0.5748830000000  0.4747830000000 1.0
C      1  0.4712010000000  0.4586190000000  0.4914600000000 1.0
C      1  0.5531480000000  0.5786830000000  0.4972730000000 1.0
C      1  0.4966330000000  0.4474430000000  0.4289850000000 1.0
C      1  0.4823450000000  0.4271000000000  0.5719150000000 1.0
C      1  0.4785910000000  0.5244590000000  0.5750640000000 1.0
C      1  0.4371950000000  0.4948170000000  0.4865000000000 1.0
C      1  0.5639740000000  0.4791340000000  0.5612550000000 1.0
C      1  0.4422350000000  0.4114500000000  0.4864810000000 1.0
C      1  0.5152250000000  0.4914190000000  0.3958320000000 1.0
C      1  0.5327900000000  0.5970730000000  0.4497140000000 1.0
C      1  0.5572910000000  0.4801210000000  0.5011680000000 1.0
C      1  0.4452130000000  0.5146930000000  0.4292390000000 1.0
C      1  0.5868260000000  0.5480500000000  0.4441840000000 1.0
C      1  0.5619350000000  0.5623580000000  0.4359800000000 1.0
C      1  0.4540330000000  0.5535360000000  0.4589630000000 1.0
C      1  0.5347980000000  0.5070790000000  0.5848230000000 1.0
C      1  0.4635660000000  0.5377550000000  0.4834150000000 1.0
END
