TITL C-950530-3293-657 -8.91301548315392e-07 125000 -759.704521093219 0 0 122 (C1) n - 1
REM
REM in /home/bkarasulu/work/CARBON/AIRSS/Generating-Clusters/EDIP-Nigel-Params/with-SteepDescent/Only-C1/SD-CG/HFTN-CG
REM
REM
REM
REM
REM
REM ./C.cell (11c1c37f851c82e70ff6c80c92926a4b)
REM
REM compiler GCC version 9.2.1 20190827 (Red Hat 9.2.1-1)
REM options -cpp -mtune=generic -march=x86-64 -g -O0 -fpre-include=/usr/include/finclude/math-vector-fortran.h
REM seed 1232743550 1622266909 1064806585 -941792074 56291780 -825163988 596673740 -1824902304 -1334998745 1473251714 -1695452024 -986439076 1638278348 967928928 884498607 -638009142 -358524441 867905313 461234793 1266544790 1183076119 1469193763 -1037935511 -67952021 1423772170 -2123327205 -642755129 27689868 1499588616 323292828 1903607644 1995682853 -1021689838
REM
CELL 1.54180   50.00000   50.00000   50.00000   90.00000   90.00000   90.00000
LATT -1
SFAC C  
C      1  0.4891240000000  0.5337960000000  0.5748780000000 1.0
C      1  0.5258850000000  0.4426470000000  0.4863790000000 1.0
C      1  0.4822590000000  0.4831620000000  0.5684760000000 1.0
C      1  0.4476010000000  0.5241700000000  0.5094240000000 1.0
C      1  0.5645460000000  0.4733190000000  0.4457530000000 1.0
C      1  0.4463620000000  0.5550720000000  0.5634700000000 1.0
C      1  0.4480520000000  0.5498280000000  0.4368970000000 1.0
C      1  0.5027350000000  0.5706130000000  0.5022020000000 1.0
C      1  0.4571060000000  0.4073280000000  0.4554920000000 1.0
C      1  0.5476800000000  0.4903990000000  0.5276120000000 1.0
C      1  0.4413460000000  0.4430530000000  0.4533610000000 1.0
C      1  0.4605980000000  0.4884280000000  0.4762710000000 1.0
C      1  0.5942230000000  0.5027620000000  0.5094290000000 1.0
C      1  0.5242390000000  0.5501860000000  0.4980830000000 1.0
C      1  0.4409960000000  0.4880280000000  0.4238980000000 1.0
C      1  0.5128760000000  0.5259980000000  0.4037440000000 1.0
C      1  0.4293840000000  0.4625760000000  0.4339150000000 1.0
C      1  0.4927210000000  0.5198190000000  0.5275100000000 1.0
C      1  0.5062220000000  0.4874500000000  0.6052580000000 1.0
C      1  0.4635290000000  0.5719120000000  0.4760580000000 1.0
C      1  0.4694620000000  0.5237480000000  0.5942690000000 1.0
C      1  0.5456220000000  0.5030270000000  0.4813320000000 1.0
C      1  0.5682040000000  0.4840700000000  0.4750760000000 1.0
C      1  0.5890090000000  0.5391450000000  0.5437970000000 1.0
C      1  0.4759360000000  0.5559680000000  0.5566020000000 1.0
C      1  0.5287270000000  0.4160310000000  0.4457870000000 1.0
C      1  0.4178640000000  0.4630810000000  0.5020140000000 1.0
C      1  0.5255580000000  0.4735040000000  0.5405340000000 1.0
C      1  0.4872490000000  0.4963050000000  0.5121430000000 1.0
C      1  0.5270350000000  0.4542410000000  0.4150680000000 1.0
C      1  0.4361750000000  0.5661510000000  0.4877280000000 1.0
C      1  0.5256930000000  0.4144560000000  0.4757370000000 1.0
C      1  0.5857180000000  0.5169810000000  0.5674460000000 1.0
C      1  0.4735460000000  0.5995050000000  0.4852600000000 1.0
C      1  0.5302210000000  0.5014290000000  0.5914480000000 1.0
C      1  0.5536410000000  0.5499910000000  0.5541870000000 1.0
C      1  0.5213690000000  0.5275360000000  0.5189270000000 1.0
C      1  0.4378890000000  0.5065360000000  0.5524360000000 1.0
C      1  0.5836750000000  0.4681140000000  0.5473090000000 1.0
C      1  0.4421310000000  0.5282070000000  0.4575260000000 1.0
C      1  0.4317800000000  0.4832850000000  0.4655090000000 1.0
C      1  0.5016280000000  0.4167180000000  0.4325680000000 1.0
C      1  0.5043860000000  0.5934080000000  0.4829850000000 1.0
C      1  0.4586310000000  0.4955910000000  0.5066990000000 1.0
C      1  0.4275440000000  0.5053240000000  0.4446940000000 1.0
C      1  0.5415030000000  0.4432870000000  0.4384020000000 1.0
C      1  0.5266930000000  0.5083320000000  0.4598980000000 1.0
C      1  0.5707660000000  0.4622800000000  0.4969680000000 1.0
C      1  0.5009070000000  0.4407100000000  0.4135710000000 1.0
C      1  0.4030810000000  0.5136920000000  0.5143830000000 1.0
C      1  0.4796090000000  0.5534640000000  0.4947350000000 1.0
C      1  0.5003150000000  0.5705220000000  0.5697670000000 1.0
C      1  0.4388760000000  0.4357280000000  0.5377040000000 1.0
C      1  0.5719630000000  0.4901790000000  0.5645780000000 1.0
C      1  0.4702320000000  0.5415040000000  0.5209270000000 1.0
C      1  0.4312820000000  0.5550030000000  0.5378430000000 1.0
C      1  0.5352700000000  0.5289460000000  0.5454490000000 1.0
C      1  0.4590500000000  0.5340050000000  0.4159550000000 1.0
C      1  0.4784900000000  0.4585270000000  0.4216200000000 1.0
C      1  0.5020730000000  0.4090770000000  0.5037880000000 1.0
C      1  0.5377570000000  0.4332950000000  0.5691950000000 1.0
C      1  0.4948890000000  0.5103520000000  0.5574960000000 1.0
C      1  0.5059490000000  0.4985860000000  0.4041290000000 1.0
C      1  0.4841320000000  0.4206180000000  0.5467930000000 1.0
C      1  0.5329590000000  0.4186330000000  0.5438560000000 1.0
C      1  0.4033680000000  0.5290450000000  0.4897930000000 1.0
C      1  0.4718600000000  0.4496340000000  0.4499160000000 1.0
C      1  0.5171200000000  0.5484460000000  0.4204410000000 1.0
C      1  0.4641510000000  0.4396000000000  0.5492820000000 1.0
C      1  0.5322530000000  0.4612580000000  0.4627090000000 1.0
C      1  0.5511860000000  0.4806750000000  0.5837620000000 1.0
C      1  0.5547110000000  0.5216990000000  0.4369690000000 1.0
C      1  0.4961090000000  0.5459930000000  0.4414610000000 1.0
C      1  0.4452800000000  0.5269580000000  0.5754350000000 1.0
C      1  0.4729810000000  0.4674010000000  0.5443420000000 1.0
C      1  0.5267320000000  0.4833480000000  0.4173850000000 1.0
C      1  0.4688970000000  0.5146960000000  0.4624570000000 1.0
C      1  0.4962250000000  0.4515750000000  0.4964560000000 1.0
C      1  0.4268300000000  0.5245310000000  0.5307910000000 1.0
C      1  0.4967080000000  0.4703460000000  0.5232030000000 1.0
C      1  0.5861000000000  0.5298210000000  0.5156270000000 1.0
C      1  0.5703820000000  0.4421400000000  0.5508250000000 1.0
C      1  0.4063670000000  0.4902050000000  0.4941970000000 1.0
C      1  0.4956690000000  0.5829770000000  0.5278360000000 1.0
C      1  0.5762330000000  0.4804000000000  0.5203270000000 1.0
C      1  0.5483670000000  0.4462580000000  0.5057220000000 1.0
C      1  0.5928270000000  0.5017280000000  0.4795180000000 1.0
C      1  0.5621340000000  0.5649350000000  0.4852350000000 1.0
C      1  0.4634770000000  0.5956640000000  0.5143660000000 1.0
C      1  0.5217700000000  0.5852970000000  0.4621860000000 1.0
C      1  0.5036110000000  0.4666380000000  0.5838640000000 1.0
C      1  0.5299690000000  0.4621840000000  0.5698600000000 1.0
C      1  0.4781740000000  0.4981310000000  0.6043380000000 1.0
C      1  0.4843900000000  0.4682460000000  0.4711310000000 1.0
C      1  0.4314710000000  0.5370650000000  0.4852220000000 1.0
C      1  0.5916860000000  0.5278690000000  0.4682890000000 1.0
C      1  0.4413330000000  0.5746790000000  0.5157780000000 1.0
C      1  0.4287100000000  0.4163190000000  0.4926570000000 1.0
C      1  0.5831800000000  0.5439980000000  0.4897930000000 1.0
C      1  0.5067220000000  0.4188160000000  0.5307550000000 1.0
C      1  0.4758710000000  0.4189020000000  0.4973450000000 1.0
C      1  0.5332010000000  0.5034190000000  0.5068630000000 1.0
C      1  0.5419060000000  0.5479490000000  0.4370380000000 1.0
C      1  0.5119530000000  0.5348590000000  0.4675540000000 1.0
C      1  0.5553970000000  0.4297340000000  0.5288310000000 1.0
C      1  0.4873140000000  0.5283260000000  0.4813040000000 1.0
C      1  0.4706450000000  0.5652640000000  0.4471030000000 1.0
C      1  0.4815850000000  0.4224040000000  0.4535260000000 1.0
C      1  0.5439180000000  0.5750420000000  0.5392610000000 1.0
C      1  0.5426320000000  0.5660980000000  0.4611530000000 1.0
C      1  0.5700960000000  0.5397590000000  0.5777520000000 1.0
C      1  0.4271760000000  0.4423870000000  0.4819600000000 1.0
C      1  0.5098250000000  0.4812910000000  0.4583320000000 1.0
C      1  0.4482010000000  0.4822530000000  0.5340400000000 1.0
C      1  0.4798290000000  0.5199220000000  0.4320430000000 1.0
C      1  0.5503690000000  0.5763720000000  0.5101450000000 1.0
C      1  0.4534170000000  0.4065980000000  0.4838900000000 1.0
C      1  0.5157240000000  0.5830460000000  0.5484710000000 1.0
C      1  0.4284080000000  0.4605930000000  0.5291720000000 1.0
C      1  0.4776640000000  0.4872100000000  0.4113000000000 1.0
C      1  0.5522030000000  0.4942180000000  0.4277190000000 1.0
C      1  0.5237090000000  0.5061470000000  0.5610270000000 1.0
END
