TITL C-951345-2650-499 -2.12913899523032e-06 125000 -722.231452570563 0 0 117 (C1) n - 1
REM
REM in /home/bkarasulu/work/CARBON/AIRSS/Generating-Clusters/EDIP-Nigel-Params/with-SteepDescent/Only-C1/SD-CG/HFTN-CG
REM
REM
REM
REM
REM
REM ./C.cell (11c1c37f851c82e70ff6c80c92926a4b)
REM
REM compiler GCC version 9.2.1 20190827 (Red Hat 9.2.1-1)
REM options -cpp -mtune=generic -march=x86-64 -g -O0 -fpre-include=/usr/include/finclude/math-vector-fortran.h
REM seed 1198146541 345360282 531716647 -66817152 2067358551 434466065 419289731 2022111572 -1977181695 1492893564 2075292142 345939422 -722871558 172531193 -113594513 -230912396 -1214843043 1583946330 -2024992388 349406866 -1853825687 1624261623 633341945 -326874576 703897800 -820528635 864692510 845618899 -1987451634 -518733732 867433137 799993583 1395251122
REM
CELL 1.54180   50.00000   50.00000   50.00000   90.00000   90.00000   90.00000
LATT -1
SFAC C  
C      1  0.5307740000000  0.4167920000000  0.4665090000000 1.0
C      1  0.5531520000000  0.5044140000000  0.5282750000000 1.0
C      1  0.5180930000000  0.5461670000000  0.5722910000000 1.0
C      1  0.5460780000000  0.5362520000000  0.5693430000000 1.0
C      1  0.4803440000000  0.5572070000000  0.4297420000000 1.0
C      1  0.4239790000000  0.5533360000000  0.4806610000000 1.0
C      1  0.4663720000000  0.5548730000000  0.5893560000000 1.0
C      1  0.4313680000000  0.4626500000000  0.5325160000000 1.0
C      1  0.5913110000000  0.5242340000000  0.5033220000000 1.0
C      1  0.4860240000000  0.4754440000000  0.5442240000000 1.0
C      1  0.4895680000000  0.4284670000000  0.5338620000000 1.0
C      1  0.4649850000000  0.5806200000000  0.4755520000000 1.0
C      1  0.5575880000000  0.4364070000000  0.4857730000000 1.0
C      1  0.4357950000000  0.5531610000000  0.5327320000000 1.0
C      1  0.4035220000000  0.4934830000000  0.5132520000000 1.0
C      1  0.5057480000000  0.5157600000000  0.4566220000000 1.0
C      1  0.5472860000000  0.5651200000000  0.4660930000000 1.0
C      1  0.4188900000000  0.4797220000000  0.4803890000000 1.0
C      1  0.4893960000000  0.4547510000000  0.4984350000000 1.0
C      1  0.5253060000000  0.4651510000000  0.5232650000000 1.0
C      1  0.4682910000000  0.4853830000000  0.4141800000000 1.0
C      1  0.4594000000000  0.4598780000000  0.4257070000000 1.0
C      1  0.5796870000000  0.4740380000000  0.4564080000000 1.0
C      1  0.5756920000000  0.5227920000000  0.4769940000000 1.0
C      1  0.4045110000000  0.4736110000000  0.5392690000000 1.0
C      1  0.4659630000000  0.5906520000000  0.5256230000000 1.0
C      1  0.5198200000000  0.5397340000000  0.5082050000000 1.0
C      1  0.5333180000000  0.5011570000000  0.4586410000000 1.0
C      1  0.5335330000000  0.5120120000000  0.5071230000000 1.0
C      1  0.3970140000000  0.5170770000000  0.5351420000000 1.0
C      1  0.4705710000000  0.5323160000000  0.4976870000000 1.0
C      1  0.5138630000000  0.4895630000000  0.5096570000000 1.0
C      1  0.4105880000000  0.5416140000000  0.5380510000000 1.0
C      1  0.5294350000000  0.5613540000000  0.4439550000000 1.0
C      1  0.4298430000000  0.4435540000000  0.5097170000000 1.0
C      1  0.5808280000000  0.5143690000000  0.4309280000000 1.0
C      1  0.5692430000000  0.4281910000000  0.5132800000000 1.0
C      1  0.4737330000000  0.5656120000000  0.5646070000000 1.0
C      1  0.5987120000000  0.4965530000000  0.5096840000000 1.0
C      1  0.4941480000000  0.4930630000000  0.5659790000000 1.0
C      1  0.4809900000000  0.5321390000000  0.4149080000000 1.0
C      1  0.5332350000000  0.4896150000000  0.5652890000000 1.0
C      1  0.5482970000000  0.4164080000000  0.5309030000000 1.0
C      1  0.5041950000000  0.5164050000000  0.4232220000000 1.0
C      1  0.4615910000000  0.4271890000000  0.5421260000000 1.0
C      1  0.5728240000000  0.5502440000000  0.4623920000000 1.0
C      1  0.4537170000000  0.5808390000000  0.5021970000000 1.0
C      1  0.5618560000000  0.4704440000000  0.4321390000000 1.0
C      1  0.5005450000000  0.4065750000000  0.5167220000000 1.0
C      1  0.4649870000000  0.4621660000000  0.5802010000000 1.0
C      1  0.5465850000000  0.4372410000000  0.5618450000000 1.0
C      1  0.5289470000000  0.4716150000000  0.4660110000000 1.0
C      1  0.4445560000000  0.5531890000000  0.5042450000000 1.0
C      1  0.5268470000000  0.4162740000000  0.5103500000000 1.0
C      1  0.4847970000000  0.4881530000000  0.5177120000000 1.0
C      1  0.5358580000000  0.4575560000000  0.4397270000000 1.0
C      1  0.5721850000000  0.5427700000000  0.4331200000000 1.0
C      1  0.4687250000000  0.4296760000000  0.4937120000000 1.0
C      1  0.5050470000000  0.4529240000000  0.5432630000000 1.0
C      1  0.4974530000000  0.4678600000000  0.4707770000000 1.0
C      1  0.4367700000000  0.5233980000000  0.4340550000000 1.0
C      1  0.5641950000000  0.5677440000000  0.5363860000000 1.0
C      1  0.4444700000000  0.5634080000000  0.4610040000000 1.0
C      1  0.4413720000000  0.4864270000000  0.5155430000000 1.0
C      1  0.5658830000000  0.4577280000000  0.5514680000000 1.0
C      1  0.4980090000000  0.5405220000000  0.4848990000000 1.0
C      1  0.5683780000000  0.5436270000000  0.5502790000000 1.0
C      1  0.5511280000000  0.5599130000000  0.5131560000000 1.0
C      1  0.4508920000000  0.4514740000000  0.5555600000000 1.0
C      1  0.4358390000000  0.5058180000000  0.5598970000000 1.0
C      1  0.5188580000000  0.4483170000000  0.5698080000000 1.0
C      1  0.4314840000000  0.5063660000000  0.4824440000000 1.0
C      1  0.5016920000000  0.4165100000000  0.4658290000000 1.0
C      1  0.4864330000000  0.4466430000000  0.4263550000000 1.0
C      1  0.5789260000000  0.4749760000000  0.5072750000000 1.0
C      1  0.4098310000000  0.5250850000000  0.4428620000000 1.0
C      1  0.4538580000000  0.4431610000000  0.4609070000000 1.0
C      1  0.4841620000000  0.4962170000000  0.4656890000000 1.0
C      1  0.4703760000000  0.5080500000000  0.5777930000000 1.0
C      1  0.4773210000000  0.5301320000000  0.5963620000000 1.0
C      1  0.5064540000000  0.5303020000000  0.5946200000000 1.0
C      1  0.4609470000000  0.5157690000000  0.4740200000000 1.0
C      1  0.5282250000000  0.5265990000000  0.4080880000000 1.0
C      1  0.5226850000000  0.4448240000000  0.4994600000000 1.0
C      1  0.5808670000000  0.4521320000000  0.5262740000000 1.0
C      1  0.5781520000000  0.5194070000000  0.5328100000000 1.0
C      1  0.4065480000000  0.4981450000000  0.5567910000000 1.0
C      1  0.4530180000000  0.5746680000000  0.5459840000000 1.0
C      1  0.5647020000000  0.4659480000000  0.4814310000000 1.0
C      1  0.5107060000000  0.4627060000000  0.4207700000000 1.0
C      1  0.5559810000000  0.4987500000000  0.4275560000000 1.0
C      1  0.4532100000000  0.4868110000000  0.5883490000000 1.0
C      1  0.5017360000000  0.5684770000000  0.4466080000000 1.0
C      1  0.5894880000000  0.5032940000000  0.4570300000000 1.0
C      1  0.5116790000000  0.5818350000000  0.4984390000000 1.0
C      1  0.5079880000000  0.5713370000000  0.5271990000000 1.0
C      1  0.4871520000000  0.4422100000000  0.4554160000000 1.0
C      1  0.5016270000000  0.4712370000000  0.5872990000000 1.0
C      1  0.4972520000000  0.4882350000000  0.4142680000000 1.0
C      1  0.5414270000000  0.4300820000000  0.4451670000000 1.0
C      1  0.4490110000000  0.4229300000000  0.5157080000000 1.0
C      1  0.5479700000000  0.5117710000000  0.4813470000000 1.0
C      1  0.5469870000000  0.4788090000000  0.5414530000000 1.0
C      1  0.4937540000000  0.5700200000000  0.4755170000000 1.0
C      1  0.5433480000000  0.5476990000000  0.4226550000000 1.0
C      1  0.4358230000000  0.4565630000000  0.4834630000000 1.0
C      1  0.5201830000000  0.5037880000000  0.5992120000000 1.0
C      1  0.5013810000000  0.5637530000000  0.5551150000000 1.0
C      1  0.4568200000000  0.5135670000000  0.4139200000000 1.0
C      1  0.5473490000000  0.5096800000000  0.5829720000000 1.0
C      1  0.4864360000000  0.4058450000000  0.4896200000000 1.0
C      1  0.4129900000000  0.5272700000000  0.4713130000000 1.0
C      1  0.4564240000000  0.5377590000000  0.4508670000000 1.0
C      1  0.4736340000000  0.5156750000000  0.5221880000000 1.0
C      1  0.5446970000000  0.5047290000000  0.4012430000000 1.0
C      1  0.4465000000000  0.5102010000000  0.5319310000000 1.0
C      1  0.5399600000000  0.5758400000000  0.4924120000000 1.0
END
