TITL C-951342-2639-47 1.40304154966544e-06 125000 -347.318601262747 0 0 58 (C1) n - 1
REM
REM in /home/bkarasulu/work/CARBON/AIRSS/Generating-Clusters/EDIP-Nigel-Params/with-SteepDescent/Only-C1/SD-CG/HFTN-CG
REM
REM
REM
REM
REM
REM ./C.cell (11c1c37f851c82e70ff6c80c92926a4b)
REM
REM compiler GCC version 9.2.1 20190827 (Red Hat 9.2.1-1)
REM options -cpp -mtune=generic -march=x86-64 -g -O0 -fpre-include=/usr/include/finclude/math-vector-fortran.h
REM seed 1798883619 -707311323 832027197 1481148909 1827680659 218872718 -1011072238 812907009 -492988594 -1768043133 -1404134508 -1266286398 -392676157 -469605839 -847423324 422697233 378420610 999507986 -757895280 1626628398 -823996506 1759816525 -190943997 1288292772 -2128766095 1268257380 -1014500726 -1183506274 -1545341168 658057044 1019164113 930772018 1129584900
REM
CELL 1.54180   50.00000   50.00000   50.00000   90.00000   90.00000   90.00000
LATT -1
SFAC C  
C      1  0.5346770000000  0.5052440000000  0.4353500000000 1.0
C      1  0.5385140000000  0.4579080000000  0.5334810000000 1.0
C      1  0.4387780000000  0.4554930000000  0.5165400000000 1.0
C      1  0.5471920000000  0.5447410000000  0.5377050000000 1.0
C      1  0.4344550000000  0.5255400000000  0.5409790000000 1.0
C      1  0.5571840000000  0.5385310000000  0.4866850000000 1.0
C      1  0.4526600000000  0.4752160000000  0.5588080000000 1.0
C      1  0.4999550000000  0.4586190000000  0.5688820000000 1.0
C      1  0.4725680000000  0.4697470000000  0.4755390000000 1.0
C      1  0.4952990000000  0.4604530000000  0.4988890000000 1.0
C      1  0.4998120000000  0.5355090000000  0.5525990000000 1.0
C      1  0.4751800000000  0.4740760000000  0.4261940000000 1.0
C      1  0.4581380000000  0.5545080000000  0.5115480000000 1.0
C      1  0.4436950000000  0.4414930000000  0.4941560000000 1.0
C      1  0.5232030000000  0.4963290000000  0.5668700000000 1.0
C      1  0.4469820000000  0.5327970000000  0.4560050000000 1.0
C      1  0.4541460000000  0.4916420000000  0.4265730000000 1.0
C      1  0.4864820000000  0.5540850000000  0.5058250000000 1.0
C      1  0.4807470000000  0.4762070000000  0.5503970000000 1.0
C      1  0.5600610000000  0.4945970000000  0.4825970000000 1.0
C      1  0.4986750000000  0.5319480000000  0.4524050000000 1.0
C      1  0.4432730000000  0.5094470000000  0.4964430000000 1.0
C      1  0.4869700000000  0.4542070000000  0.5269260000000 1.0
C      1  0.5315330000000  0.4875640000000  0.4777430000000 1.0
C      1  0.5072550000000  0.4579570000000  0.4431220000000 1.0
C      1  0.5180220000000  0.4741050000000  0.5834550000000 1.0
C      1  0.5123010000000  0.4462390000000  0.5431670000000 1.0
C      1  0.5665790000000  0.5157640000000  0.4998960000000 1.0
C      1  0.4365590000000  0.5037690000000  0.5237040000000 1.0
C      1  0.5383110000000  0.5554140000000  0.5019440000000 1.0
C      1  0.5678700000000  0.4993570000000  0.4550240000000 1.0
C      1  0.5494350000000  0.4952260000000  0.5552080000000 1.0
C      1  0.5066230000000  0.5048710000000  0.4455530000000 1.0
C      1  0.4496280000000  0.4899980000000  0.4763790000000 1.0
C      1  0.5206350000000  0.5667620000000  0.4803470000000 1.0
C      1  0.5512050000000  0.4791540000000  0.4388690000000 1.0
C      1  0.5223910000000  0.5488470000000  0.4566590000000 1.0
C      1  0.4981420000000  0.5279500000000  0.5043560000000 1.0
C      1  0.4901450000000  0.4788200000000  0.4494540000000 1.0
C      1  0.4513500000000  0.5476480000000  0.5388260000000 1.0
C      1  0.5010870000000  0.5053940000000  0.5476570000000 1.0
C      1  0.5321790000000  0.4632620000000  0.4582600000000 1.0
C      1  0.4394550000000  0.4771350000000  0.5341600000000 1.0
C      1  0.4397700000000  0.5354060000000  0.4844870000000 1.0
C      1  0.5332060000000  0.4435100000000  0.4824660000000 1.0
C      1  0.5081540000000  0.5054350000000  0.5181740000000 1.0
C      1  0.5464170000000  0.4545210000000  0.5059220000000 1.0
C      1  0.4742750000000  0.5463490000000  0.5545110000000 1.0
C      1  0.5192270000000  0.5496100000000  0.5355440000000 1.0
C      1  0.5571580000000  0.5194340000000  0.5432690000000 1.0
C      1  0.4453660000000  0.5034780000000  0.4507220000000 1.0
C      1  0.5484640000000  0.5332760000000  0.4583900000000 1.0
C      1  0.4584710000000  0.4444990000000  0.4715960000000 1.0
C      1  0.4944500000000  0.5737180000000  0.4874280000000 1.0
C      1  0.5582220000000  0.4686960000000  0.5508310000000 1.0
C      1  0.5177050000000  0.4808390000000  0.5032290000000 1.0
C      1  0.5070880000000  0.4356500000000  0.4887540000000 1.0
C      1  0.4726770000000  0.5420030000000  0.4495000000000 1.0
END
