TITL C-950531-5884-43 -1.37024035462483e-06 125000 -246.243399049237 0 0 40 (C1) n - 1
REM
REM in /home/bkarasulu/work/CARBON/AIRSS/Generating-Clusters/EDIP-Nigel-Params/with-SteepDescent/Only-C1/SD-CG/HFTN-CG
REM
REM
REM
REM
REM
REM ./C.cell (11c1c37f851c82e70ff6c80c92926a4b)
REM
REM compiler GCC version 9.2.1 20190827 (Red Hat 9.2.1-1)
REM options -cpp -mtune=generic -march=x86-64 -g -O0 -fpre-include=/usr/include/finclude/math-vector-fortran.h
REM seed 1388306821 -1365369781 1468624983 -947013893 748132455 1578434970 -21255675 30094388 1295613524 -1428082151 612995872 268869187 838116138 1316808254 1231409215 -1228448778 -964442885 -289262489 549445336 -1265438579 1426835600 1564322296 586663748 -236628165 1262727612 -1836209931 1845077576 -1891445195 1714584971 -2003135719 -2018488201 -254580928 -251366300
REM
CELL 1.54180   50.00000   50.00000   50.00000   90.00000   90.00000   90.00000
LATT -1
SFAC C  
C      1  0.5082760000000  0.4556600000000  0.4815890000000 1.0
C      1  0.5088370000000  0.4584020000000  0.5333110000000 1.0
C      1  0.5541260000000  0.5307190000000  0.4512190000000 1.0
C      1  0.4540970000000  0.5221360000000  0.5389470000000 1.0
C      1  0.5659180000000  0.5372850000000  0.4751320000000 1.0
C      1  0.5346100000000  0.5125130000000  0.4408700000000 1.0
C      1  0.4850790000000  0.5059640000000  0.4380670000000 1.0
C      1  0.4547670000000  0.5463450000000  0.5245720000000 1.0
C      1  0.5013970000000  0.5520790000000  0.5248170000000 1.0
C      1  0.4695520000000  0.4677380000000  0.5563220000000 1.0
C      1  0.5350880000000  0.4908710000000  0.4619710000000 1.0
C      1  0.5249910000000  0.5073470000000  0.5339430000000 1.0
C      1  0.5197890000000  0.4674270000000  0.4588200000000 1.0
C      1  0.4442940000000  0.5046970000000  0.4624610000000 1.0
C      1  0.5688090000000  0.4758680000000  0.5215050000000 1.0
C      1  0.4380300000000  0.5015410000000  0.5281630000000 1.0
C      1  0.5738270000000  0.4999810000000  0.5325150000000 1.0
C      1  0.4631810000000  0.4900250000000  0.4457970000000 1.0
C      1  0.4815350000000  0.5139470000000  0.5471100000000 1.0
C      1  0.5146690000000  0.4959790000000  0.5074240000000 1.0
C      1  0.5532190000000  0.5172290000000  0.5245630000000 1.0
C      1  0.4782110000000  0.5495050000000  0.5092430000000 1.0
C      1  0.4703860000000  0.4739870000000  0.5063830000000 1.0
C      1  0.5517720000000  0.5228650000000  0.4949850000000 1.0
C      1  0.4810710000000  0.5271510000000  0.4893500000000 1.0
C      1  0.5057730000000  0.5299710000000  0.5415430000000 1.0
C      1  0.5210090000000  0.4662020000000  0.5069560000000 1.0
C      1  0.4789420000000  0.4577600000000  0.4819510000000 1.0
C      1  0.5157880000000  0.4817080000000  0.5519570000000 1.0
C      1  0.4414170000000  0.4822060000000  0.5078950000000 1.0
C      1  0.5070490000000  0.5299470000000  0.4737680000000 1.0
C      1  0.4790710000000  0.4579670000000  0.5312670000000 1.0
C      1  0.4683680000000  0.4649070000000  0.4569790000000 1.0
C      1  0.4579450000000  0.5269080000000  0.4720740000000 1.0
C      1  0.4880080000000  0.4889430000000  0.5613760000000 1.0
C      1  0.5064190000000  0.5234240000000  0.4446980000000 1.0
C      1  0.5494610000000  0.4627540000000  0.5083060000000 1.0
C      1  0.4321060000000  0.4892670000000  0.4825170000000 1.0
C      1  0.5274550000000  0.5102730000000  0.4846660000000 1.0
C      1  0.4856580000000  0.5005030000000  0.5049680000000 1.0
END
