TITL C-950526-5686-435 -4.50461147887617e-06 125000 -434.646267445123 0 0 71 (C1) n - 1
REM
REM in /home/bkarasulu/work/CARBON/AIRSS/Generating-Clusters/EDIP-Nigel-Params/with-SteepDescent/Only-C1/SD-CG/HFTN-CG
REM
REM
REM
REM
REM
REM ./C.cell (11c1c37f851c82e70ff6c80c92926a4b)
REM
REM compiler GCC version 9.2.1 20190827 (Red Hat 9.2.1-1)
REM options -cpp -mtune=generic -march=x86-64 -g -O0 -fpre-include=/usr/include/finclude/math-vector-fortran.h
REM seed 1099507964 1522598442 -1800108949 352318543 -1974159882 506662000 61535851 -1735580431 -1992405422 865656131 899235285 -349155183 -1498311368 -1551647275 -2024165625 -1513938757 -2123180582 -1816980129 -1172156707 678621223 1983313885 -515304081 -1098433873 152547499 -1854189352 -1579126629 -1982343024 493233494 -162947461 1365436624 1469593206 1161232891 912349185
REM
CELL 1.54180   50.00000   50.00000   50.00000   90.00000   90.00000   90.00000
LATT -1
SFAC C  
C      1  0.4487080000000  0.5198350000000  0.4978690000000 1.0
C      1  0.4600000000000  0.5458530000000  0.5348350000000 1.0
C      1  0.5305670000000  0.5687320000000  0.4564440000000 1.0
C      1  0.4855810000000  0.4962810000000  0.4897050000000 1.0
C      1  0.5571080000000  0.5314170000000  0.5312200000000 1.0
C      1  0.4668020000000  0.4282530000000  0.5036470000000 1.0
C      1  0.4289190000000  0.4825130000000  0.5267250000000 1.0
C      1  0.4928400000000  0.4573760000000  0.5673210000000 1.0
C      1  0.5160070000000  0.5451210000000  0.5514170000000 1.0
C      1  0.4581490000000  0.4339230000000  0.4539190000000 1.0
C      1  0.5021660000000  0.4742310000000  0.4134200000000 1.0
C      1  0.4632090000000  0.5443880000000  0.4751390000000 1.0
C      1  0.5512000000000  0.4429160000000  0.4795450000000 1.0
C      1  0.4510360000000  0.5442030000000  0.4490860000000 1.0
C      1  0.5108110000000  0.4731040000000  0.5310250000000 1.0
C      1  0.5448290000000  0.5673960000000  0.4846960000000 1.0
C      1  0.5084790000000  0.5136750000000  0.5814310000000 1.0
C      1  0.5286890000000  0.5116140000000  0.4212440000000 1.0
C      1  0.4682960000000  0.4974540000000  0.5123940000000 1.0
C      1  0.5725410000000  0.4955370000000  0.4977590000000 1.0
C      1  0.5024500000000  0.5018780000000  0.4178890000000 1.0
C      1  0.5377570000000  0.5531710000000  0.5331230000000 1.0
C      1  0.4499500000000  0.4362080000000  0.4823300000000 1.0
C      1  0.4407250000000  0.5458690000000  0.5132510000000 1.0
C      1  0.4230100000000  0.4819760000000  0.4971540000000 1.0
C      1  0.5019680000000  0.4601040000000  0.4376770000000 1.0
C      1  0.5643590000000  0.4846550000000  0.4714010000000 1.0
C      1  0.4717050000000  0.4725020000000  0.5303210000000 1.0
C      1  0.4485020000000  0.5645530000000  0.4920450000000 1.0
C      1  0.5202830000000  0.5394960000000  0.5788680000000 1.0
C      1  0.4772500000000  0.4806750000000  0.5582850000000 1.0
C      1  0.5089020000000  0.4531400000000  0.5080680000000 1.0
C      1  0.5685790000000  0.4773740000000  0.5216700000000 1.0
C      1  0.5368230000000  0.4414810000000  0.5034080000000 1.0
C      1  0.4893500000000  0.4337080000000  0.5194640000000 1.0
C      1  0.4982670000000  0.5613930000000  0.5053670000000 1.0
C      1  0.4366200000000  0.4982930000000  0.4538950000000 1.0
C      1  0.4552270000000  0.5235380000000  0.5536970000000 1.0
C      1  0.5156010000000  0.4713510000000  0.4616700000000 1.0
C      1  0.4851540000000  0.5119940000000  0.4398700000000 1.0
C      1  0.5035030000000  0.5293030000000  0.4571010000000 1.0
C      1  0.5506400000000  0.4541990000000  0.5254110000000 1.0
C      1  0.4448730000000  0.4596380000000  0.5325650000000 1.0
C      1  0.4842680000000  0.5381380000000  0.5180000000000 1.0
C      1  0.4384030000000  0.4628800000000  0.4808070000000 1.0
C      1  0.5300070000000  0.4953130000000  0.5726130000000 1.0
C      1  0.5219520000000  0.4661460000000  0.5680050000000 1.0
C      1  0.5015160000000  0.5227100000000  0.5380540000000 1.0
C      1  0.5645610000000  0.5437320000000  0.4812770000000 1.0
C      1  0.4556770000000  0.5179110000000  0.4402680000000 1.0
C      1  0.5577180000000  0.5223400000000  0.5017610000000 1.0
C      1  0.5395550000000  0.4506340000000  0.5511530000000 1.0
C      1  0.4850680000000  0.5676690000000  0.4794600000000 1.0
C      1  0.5358900000000  0.4945370000000  0.4680320000000 1.0
C      1  0.5480070000000  0.5066610000000  0.5478780000000 1.0
C      1  0.4414150000000  0.4691400000000  0.4531080000000 1.0
C      1  0.5023800000000  0.5593980000000  0.4557090000000 1.0
C      1  0.4265150000000  0.5069660000000  0.4817230000000 1.0
C      1  0.5220850000000  0.5014230000000  0.5263310000000 1.0
C      1  0.5267930000000  0.5582460000000  0.5063400000000 1.0
C      1  0.5718750000000  0.4898070000000  0.5464560000000 1.0
C      1  0.4357880000000  0.5065540000000  0.5409400000000 1.0
C      1  0.4981580000000  0.4693090000000  0.4849210000000 1.0
C      1  0.5501870000000  0.5437450000000  0.4533340000000 1.0
C      1  0.5698910000000  0.4575330000000  0.4669370000000 1.0
C      1  0.4835290000000  0.5101900000000  0.5612690000000 1.0
C      1  0.5313410000000  0.5193860000000  0.4489130000000 1.0
C      1  0.5286060000000  0.5097710000000  0.4959850000000 1.0
C      1  0.4882030000000  0.4366850000000  0.5477760000000 1.0
C      1  0.5008790000000  0.5217680000000  0.4868830000000 1.0
C      1  0.4823030000000  0.4410850000000  0.4426930000000 1.0
END
