TITL C-950526-5686-285 -6.13939746966089e-07 125000 -162.129885615103 0 0 28 (C1) n - 1
REM
REM in /home/bkarasulu/work/CARBON/AIRSS/Generating-Clusters/EDIP-Nigel-Params/with-SteepDescent/Only-C1/SD-CG/HFTN-CG
REM
REM
REM
REM
REM
REM ./C.cell (11c1c37f851c82e70ff6c80c92926a4b)
REM
REM compiler GCC version 9.2.1 20190827 (Red Hat 9.2.1-1)
REM options -cpp -mtune=generic -march=x86-64 -g -O0 -fpre-include=/usr/include/finclude/math-vector-fortran.h
REM seed 483848120 1978940809 -1588204960 -58293532 774502829 -131153352 1056036805 2082980899 -1708460214 -2001084267 -433739383 1393989058 -129409203 152500507 -1828654092 1247464731 -1832875567 -855683212 -702333061 -2040147135 871521799 -24967536 -170464610 1624946308 552570013 1586923604 -585565231 373399946 -1232388054 -121823266 -1905167618 -752071925 -1350856806
REM
CELL 1.54180   50.00000   50.00000   50.00000   90.00000   90.00000   90.00000
LATT -1
SFAC C  
C      1  0.4400200000000  0.4867750000000  0.5018120000000 1.0
C      1  0.4994660000000  0.4812500000000  0.5824950000000 1.0
C      1  0.5391930000000  0.5232380000000  0.4336850000000 1.0
C      1  0.4477580000000  0.5030310000000  0.5237310000000 1.0
C      1  0.5307360000000  0.5380430000000  0.5154320000000 1.0
C      1  0.4815460000000  0.5075280000000  0.4904750000000 1.0
C      1  0.4726830000000  0.4537320000000  0.5235460000000 1.0
C      1  0.4986050000000  0.4499550000000  0.5098390000000 1.0
C      1  0.5021220000000  0.4952000000000  0.5601410000000 1.0
C      1  0.5073180000000  0.4904600000000  0.4846310000000 1.0
C      1  0.5250720000000  0.4898690000000  0.5092780000000 1.0
C      1  0.5132610000000  0.5319790000000  0.4413600000000 1.0
C      1  0.5258500000000  0.5090710000000  0.5549790000000 1.0
C      1  0.4753120000000  0.5064450000000  0.5200000000000 1.0
C      1  0.4515300000000  0.4573530000000  0.5030980000000 1.0
C      1  0.4902450000000  0.4848210000000  0.5346880000000 1.0
C      1  0.5325280000000  0.5329030000000  0.4878870000000 1.0
C      1  0.4754310000000  0.5553940000000  0.4969760000000 1.0
C      1  0.5575520000000  0.5254390000000  0.4772300000000 1.0
C      1  0.5509910000000  0.5083160000000  0.4559220000000 1.0
C      1  0.4583430000000  0.4926180000000  0.4775250000000 1.0
C      1  0.5214170000000  0.4980140000000  0.4575590000000 1.0
C      1  0.4668860000000  0.4630310000000  0.4760880000000 1.0
C      1  0.5201760000000  0.4647290000000  0.5224250000000 1.0
C      1  0.4834990000000  0.5361140000000  0.4804030000000 1.0
C      1  0.4962080000000  0.4620440000000  0.4824910000000 1.0
C      1  0.5104140000000  0.5395130000000  0.4692230000000 1.0
C      1  0.5258390000000  0.5131340000000  0.5270840000000 1.0
END
