TITL C-951337-3020-512 -2.77199319529221e-07 125000 -924.441970789035 0 0 148 (C1) n - 1
REM
REM in /home/bkarasulu/work/CARBON/AIRSS/Generating-Clusters/EDIP-Nigel-Params/with-SteepDescent/Only-C1/SD-CG/HFTN-CG
REM
REM
REM
REM
REM
REM ./C.cell (11c1c37f851c82e70ff6c80c92926a4b)
REM
REM compiler GCC version 9.2.1 20190827 (Red Hat 9.2.1-1)
REM options -cpp -mtune=generic -march=x86-64 -g -O0 -fpre-include=/usr/include/finclude/math-vector-fortran.h
REM seed -160809829 311638199 -668186135 1407027762 980540210 1365833248 -265133897 -1851424930 1158493158 -1095059360 1753715147 605652236 783547789 627476211 1935593627 1389703651 -668270428 997465228 1609189732 1896704343 -42486445 -1029907861 -699271204 -2088098162 702544130 -1252245599 2051534724 88686000 1272285285 427086170 -899668267 -570721676 -1379830027
REM
CELL 1.54180   50.00000   50.00000   50.00000   90.00000   90.00000   90.00000
LATT -1
SFAC C  
C      1  0.4521660000000  0.4557080000000  0.4328060000000 1.0
C      1  0.5810260000000  0.4458950000000  0.4619720000000 1.0
C      1  0.5830250000000  0.4420290000000  0.5348450000000 1.0
C      1  0.5626420000000  0.5618640000000  0.4382810000000 1.0
C      1  0.4167400000000  0.4802830000000  0.5267920000000 1.0
C      1  0.4474890000000  0.4790980000000  0.4538500000000 1.0
C      1  0.4715700000000  0.4092780000000  0.5540410000000 1.0
C      1  0.3879240000000  0.5489330000000  0.5056840000000 1.0
C      1  0.4482980000000  0.4089660000000  0.5366060000000 1.0
C      1  0.5261780000000  0.5403100000000  0.4597950000000 1.0
C      1  0.4324740000000  0.5037890000000  0.5377610000000 1.0
C      1  0.4632440000000  0.5986780000000  0.5041560000000 1.0
C      1  0.5549380000000  0.4982500000000  0.4635430000000 1.0
C      1  0.4733520000000  0.5695350000000  0.5279440000000 1.0
C      1  0.4657520000000  0.4454650000000  0.5191980000000 1.0
C      1  0.4248150000000  0.4507850000000  0.4226170000000 1.0
C      1  0.4358910000000  0.4216050000000  0.4596100000000 1.0
C      1  0.5390560000000  0.5741870000000  0.5583000000000 1.0
C      1  0.4772390000000  0.4650890000000  0.5555290000000 1.0
C      1  0.3935710000000  0.5338980000000  0.5271230000000 1.0
C      1  0.4717920000000  0.4628730000000  0.4945380000000 1.0
C      1  0.4535510000000  0.5424810000000  0.5677150000000 1.0
C      1  0.5081210000000  0.5116660000000  0.5796600000000 1.0
C      1  0.4741360000000  0.5137590000000  0.4759410000000 1.0
C      1  0.5667880000000  0.4332190000000  0.5131310000000 1.0
C      1  0.5676260000000  0.5203510000000  0.5718240000000 1.0
C      1  0.5394760000000  0.4859120000000  0.4866020000000 1.0
C      1  0.4990410000000  0.4424880000000  0.5790400000000 1.0
C      1  0.4416780000000  0.4240540000000  0.4887840000000 1.0
C      1  0.4201360000000  0.4679400000000  0.4989980000000 1.0
C      1  0.4085170000000  0.5460960000000  0.4871390000000 1.0
C      1  0.4638680000000  0.4866620000000  0.3974290000000 1.0
C      1  0.5458580000000  0.5040370000000  0.5093640000000 1.0
C      1  0.4895200000000  0.4456500000000  0.5362750000000 1.0
C      1  0.4871250000000  0.4283340000000  0.4515860000000 1.0
C      1  0.6013590000000  0.4626760000000  0.5297280000000 1.0
C      1  0.5380740000000  0.5929480000000  0.5014160000000 1.0
C      1  0.5907520000000  0.5088640000000  0.5327360000000 1.0
C      1  0.3983490000000  0.4745030000000  0.4797480000000 1.0
C      1  0.4444840000000  0.4942990000000  0.5627630000000 1.0
C      1  0.5919150000000  0.5549120000000  0.5028390000000 1.0
C      1  0.4949120000000  0.4815550000000  0.5053020000000 1.0
C      1  0.3965420000000  0.4534440000000  0.4617780000000 1.0
C      1  0.5035290000000  0.4178410000000  0.4916610000000 1.0
C      1  0.4067140000000  0.5267230000000  0.4661070000000 1.0
C      1  0.4531280000000  0.5154470000000  0.5799070000000 1.0
C      1  0.5108400000000  0.4897360000000  0.4815020000000 1.0
C      1  0.4745190000000  0.5606140000000  0.5759760000000 1.0
C      1  0.4307600000000  0.4348020000000  0.5318440000000 1.0
C      1  0.5048590000000  0.4328720000000  0.4267870000000 1.0
C      1  0.4791310000000  0.5427680000000  0.4796930000000 1.0
C      1  0.5311210000000  0.4975100000000  0.5929140000000 1.0
C      1  0.5185610000000  0.5339010000000  0.5614390000000 1.0
C      1  0.3972480000000  0.5006410000000  0.4699710000000 1.0
C      1  0.5377730000000  0.4741860000000  0.5759810000000 1.0
C      1  0.4359080000000  0.4676570000000  0.5695470000000 1.0
C      1  0.4590840000000  0.4272740000000  0.4419920000000 1.0
C      1  0.4304460000000  0.5725100000000  0.5306560000000 1.0
C      1  0.5880260000000  0.5394010000000  0.5289840000000 1.0
C      1  0.5238690000000  0.4385090000000  0.5026300000000 1.0
C      1  0.4972490000000  0.4059760000000  0.4667570000000 1.0
C      1  0.5477400000000  0.5611640000000  0.4633540000000 1.0
C      1  0.5596160000000  0.5496810000000  0.5371490000000 1.0
C      1  0.4201630000000  0.4586440000000  0.5467310000000 1.0
C      1  0.5292600000000  0.5277250000000  0.5074350000000 1.0
C      1  0.5145550000000  0.5835170000000  0.5451620000000 1.0
C      1  0.4970550000000  0.4150010000000  0.5663890000000 1.0
C      1  0.5630730000000  0.5866520000000  0.5137940000000 1.0
C      1  0.5243020000000  0.4131400000000  0.5533180000000 1.0
C      1  0.4563500000000  0.4047420000000  0.5070200000000 1.0
C      1  0.5809150000000  0.4985900000000  0.5578900000000 1.0
C      1  0.5308630000000  0.4561960000000  0.4541940000000 1.0
C      1  0.5467950000000  0.5512720000000  0.5095170000000 1.0
C      1  0.5409850000000  0.4226400000000  0.5209890000000 1.0
C      1  0.4923700000000  0.5524410000000  0.5089180000000 1.0
C      1  0.5135020000000  0.5908580000000  0.5166010000000 1.0
C      1  0.5701600000000  0.4899760000000  0.4169490000000 1.0
C      1  0.4529030000000  0.5102510000000  0.4084960000000 1.0
C      1  0.4691440000000  0.5017990000000  0.4489770000000 1.0
C      1  0.4534260000000  0.4478800000000  0.5807490000000 1.0
C      1  0.4719370000000  0.5301910000000  0.4157150000000 1.0
C      1  0.4154450000000  0.5278330000000  0.5429350000000 1.0
C      1  0.5712040000000  0.4410390000000  0.4347190000000 1.0
C      1  0.4565620000000  0.5438850000000  0.5117200000000 1.0
C      1  0.5288030000000  0.4922670000000  0.4012170000000 1.0
C      1  0.5528880000000  0.5181390000000  0.5970370000000 1.0
C      1  0.5271140000000  0.5570550000000  0.5787600000000 1.0
C      1  0.4382100000000  0.5829030000000  0.5049850000000 1.0
C      1  0.4936240000000  0.4480260000000  0.4057650000000 1.0
C      1  0.4987470000000  0.5507230000000  0.4562590000000 1.0
C      1  0.4863670000000  0.4522550000000  0.4694830000000 1.0
C      1  0.5726370000000  0.5192350000000  0.4772320000000 1.0
C      1  0.4701660000000  0.5074080000000  0.6023510000000 1.0
C      1  0.4274900000000  0.5329260000000  0.4469090000000 1.0
C      1  0.4932940000000  0.5247150000000  0.6028830000000 1.0
C      1  0.4875350000000  0.5047310000000  0.5264330000000 1.0
C      1  0.5797950000000  0.5160800000000  0.4287060000000 1.0
C      1  0.5478040000000  0.4989430000000  0.5381940000000 1.0
C      1  0.4762320000000  0.4686170000000  0.4160820000000 1.0
C      1  0.4987490000000  0.5284550000000  0.4057820000000 1.0
C      1  0.5284150000000  0.4480130000000  0.5849730000000 1.0
C      1  0.4533740000000  0.5041880000000  0.4927870000000 1.0
C      1  0.5046680000000  0.5575060000000  0.4043100000000 1.0
C      1  0.4137870000000  0.4379460000000  0.4461480000000 1.0
C      1  0.4879340000000  0.5520950000000  0.5990070000000 1.0
C      1  0.5467970000000  0.5265600000000  0.5518400000000 1.0
C      1  0.4915500000000  0.5951570000000  0.4974260000000 1.0
C      1  0.5438900000000  0.4282030000000  0.5693890000000 1.0
C      1  0.5683570000000  0.4379040000000  0.5584520000000 1.0
C      1  0.5825770000000  0.4645260000000  0.4216100000000 1.0
C      1  0.5330710000000  0.4369930000000  0.4331240000000 1.0
C      1  0.4898870000000  0.5866980000000  0.4444100000000 1.0
C      1  0.5427460000000  0.4536170000000  0.4821780000000 1.0
C      1  0.4347760000000  0.5084740000000  0.4315060000000 1.0
C      1  0.5799560000000  0.4767410000000  0.4576570000000 1.0
C      1  0.4674710000000  0.5584760000000  0.4151720000000 1.0
C      1  0.5942540000000  0.5182880000000  0.4563550000000 1.0
C      1  0.4764060000000  0.4531380000000  0.5970980000000 1.0
C      1  0.5146980000000  0.5070490000000  0.4209500000000 1.0
C      1  0.4570500000000  0.5134640000000  0.5199000000000 1.0
C      1  0.4949950000000  0.4911200000000  0.5538760000000 1.0
C      1  0.5737380000000  0.4306010000000  0.4851590000000 1.0
C      1  0.5669270000000  0.5474890000000  0.4865760000000 1.0
C      1  0.6125040000000  0.4906810000000  0.4919980000000 1.0
C      1  0.4628290000000  0.5713690000000  0.4405830000000 1.0
C      1  0.5579900000000  0.5361200000000  0.4269290000000 1.0
C      1  0.4468470000000  0.4772780000000  0.4853710000000 1.0
C      1  0.6055900000000  0.4917090000000  0.4648700000000 1.0
C      1  0.5256490000000  0.4797170000000  0.5485860000000 1.0
C      1  0.4850040000000  0.4127920000000  0.5129230000000 1.0
C      1  0.4328450000000  0.5500670000000  0.5482350000000 1.0
C      1  0.4885600000000  0.5721730000000  0.5530310000000 1.0
C      1  0.5893020000000  0.5828070000000  0.5054620000000 1.0
C      1  0.4435850000000  0.5561140000000  0.4575230000000 1.0
C      1  0.5059420000000  0.5298440000000  0.5254780000000 1.0
C      1  0.5425110000000  0.5447970000000  0.5995560000000 1.0
C      1  0.6058170000000  0.4881860000000  0.5188760000000 1.0
C      1  0.5333610000000  0.5874650000000  0.4729510000000 1.0
C      1  0.5097470000000  0.5733640000000  0.4271940000000 1.0
C      1  0.4761230000000  0.4800200000000  0.6052560000000 1.0
C      1  0.5544810000000  0.4907240000000  0.3938770000000 1.0
C      1  0.4929390000000  0.4872530000000  0.4355520000000 1.0
C      1  0.5371250000000  0.5191520000000  0.4416960000000 1.0
C      1  0.5035390000000  0.5914960000000  0.4710130000000 1.0
C      1  0.5108980000000  0.4603950000000  0.5216050000000 1.0
C      1  0.4306760000000  0.5644330000000  0.4828260000000 1.0
C      1  0.4218700000000  0.4381160000000  0.5038590000000 1.0
C      1  0.5053870000000  0.4713550000000  0.4589120000000 1.0
END
