TITL C-951335-1172-78 -2.94601041155179e-06 125000 -1054.58962162426 0 0 169 (C1) n - 1
REM
REM in /home/bkarasulu/work/CARBON/AIRSS/Generating-Clusters/EDIP-Nigel-Params/with-SteepDescent/Only-C1/SD-CG/HFTN-CG
REM
REM
REM
REM
REM
REM ./C.cell (11c1c37f851c82e70ff6c80c92926a4b)
REM
REM compiler GCC version 9.2.1 20190827 (Red Hat 9.2.1-1)
REM options -cpp -mtune=generic -march=x86-64 -g -O0 -fpre-include=/usr/include/finclude/math-vector-fortran.h
REM seed -1636776020 897169035 2067217703 -1731021343 -231410976 368688062 1418896990 1448919975 2034974979 -1953232272 1735480676 -368319183 -1608058081 -1473631655 173125849 1036242145 961449579 544658730 -685001917 -387852332 638346090 -1373439107 -1619428494 -1369522739 1507192060 -1959810264 1300719052 -578049041 -246816490 -126082585 1568775253 -343173263 1539511528
REM
CELL 1.54180   50.00000   50.00000   50.00000   90.00000   90.00000   90.00000
LATT -1
SFAC C  
C      1  0.4420140000000  0.5283860000000  0.4277020000000 1.0
C      1  0.4947700000000  0.4114540000000  0.5659520000000 1.0
C      1  0.4593770000000  0.4473240000000  0.4429160000000 1.0
C      1  0.4507490000000  0.5091630000000  0.4767110000000 1.0
C      1  0.4400990000000  0.4394740000000  0.4221310000000 1.0
C      1  0.4647790000000  0.3900950000000  0.4849300000000 1.0
C      1  0.4825560000000  0.4070470000000  0.5406850000000 1.0
C      1  0.5206140000000  0.4487900000000  0.4888140000000 1.0
C      1  0.5493270000000  0.4460650000000  0.4113160000000 1.0
C      1  0.5288490000000  0.4901700000000  0.5021560000000 1.0
C      1  0.5849220000000  0.5155570000000  0.4580960000000 1.0
C      1  0.5111090000000  0.5291270000000  0.6107510000000 1.0
C      1  0.4856580000000  0.4116010000000  0.4883510000000 1.0
C      1  0.5682190000000  0.5132560000000  0.5036580000000 1.0
C      1  0.5562880000000  0.4536160000000  0.5725280000000 1.0
C      1  0.5585240000000  0.4833030000000  0.5022790000000 1.0
C      1  0.4268550000000  0.5755780000000  0.5138540000000 1.0
C      1  0.4797890000000  0.5609220000000  0.4169150000000 1.0
C      1  0.6048560000000  0.4648830000000  0.4932520000000 1.0
C      1  0.5899990000000  0.5445080000000  0.5346500000000 1.0
C      1  0.4395760000000  0.5323530000000  0.4911000000000 1.0
C      1  0.4989430000000  0.4176820000000  0.4268950000000 1.0
C      1  0.5639410000000  0.4898410000000  0.4179180000000 1.0
C      1  0.5397140000000  0.4508770000000  0.5965130000000 1.0
C      1  0.4893650000000  0.4544710000000  0.5404100000000 1.0
C      1  0.5239210000000  0.5120260000000  0.5205650000000 1.0
C      1  0.4114150000000  0.5437160000000  0.4812740000000 1.0
C      1  0.4475220000000  0.4864500000000  0.4941060000000 1.0
C      1  0.5834260000000  0.4475860000000  0.5279920000000 1.0
C      1  0.4770980000000  0.4228840000000  0.4467760000000 1.0
C      1  0.4105470000000  0.5644870000000  0.4623190000000 1.0
C      1  0.4291060000000  0.4702560000000  0.5882990000000 1.0
C      1  0.5118850000000  0.4561780000000  0.5886870000000 1.0
C      1  0.4980300000000  0.6200440000000  0.5260160000000 1.0
C      1  0.5083740000000  0.4685640000000  0.4176000000000 1.0
C      1  0.5503660000000  0.4694360000000  0.6153610000000 1.0
C      1  0.5097590000000  0.6143900000000  0.4764030000000 1.0
C      1  0.4520360000000  0.4114850000000  0.5379240000000 1.0
C      1  0.4798440000000  0.5147540000000  0.5042590000000 1.0
C      1  0.5307780000000  0.6060930000000  0.4926530000000 1.0
C      1  0.4265560000000  0.4099550000000  0.4954210000000 1.0
C      1  0.4612960000000  0.4414720000000  0.4933650000000 1.0
C      1  0.5742470000000  0.4774150000000  0.5754840000000 1.0
C      1  0.4646330000000  0.5900080000000  0.5461230000000 1.0
C      1  0.4693570000000  0.4740140000000  0.5308680000000 1.0
C      1  0.4051050000000  0.5543100000000  0.5085250000000 1.0
C      1  0.5343840000000  0.5660670000000  0.4227180000000 1.0
C      1  0.4781290000000  0.5409560000000  0.3957250000000 1.0
C      1  0.5578850000000  0.5160000000000  0.4721360000000 1.0
C      1  0.4451010000000  0.4280280000000  0.5637980000000 1.0
C      1  0.5336780000000  0.4503880000000  0.4622700000000 1.0
C      1  0.5865760000000  0.5314090000000  0.4329050000000 1.0
C      1  0.5841670000000  0.4727240000000  0.4306870000000 1.0
C      1  0.4813490000000  0.5524350000000  0.5787140000000 1.0
C      1  0.4595440000000  0.5519480000000  0.4379940000000 1.0
C      1  0.4787420000000  0.4759890000000  0.4161660000000 1.0
C      1  0.5137540000000  0.4700930000000  0.5466410000000 1.0
C      1  0.4252080000000  0.4984230000000  0.5529660000000 1.0
C      1  0.5681640000000  0.4966070000000  0.5509360000000 1.0
C      1  0.4500460000000  0.5812050000000  0.4426640000000 1.0
C      1  0.5548150000000  0.5724190000000  0.4413700000000 1.0
C      1  0.5645330000000  0.4723460000000  0.5306100000000 1.0
C      1  0.5621470000000  0.4419840000000  0.4609080000000 1.0
C      1  0.4837940000000  0.6051530000000  0.4728950000000 1.0
C      1  0.5487790000000  0.5584610000000  0.5828590000000 1.0
C      1  0.4567950000000  0.5453540000000  0.5379790000000 1.0
C      1  0.4309090000000  0.4169560000000  0.4652330000000 1.0
C      1  0.4413170000000  0.4737100000000  0.5461660000000 1.0
C      1  0.5233020000000  0.4834490000000  0.3947860000000 1.0
C      1  0.5189690000000  0.5084800000000  0.5920350000000 1.0
C      1  0.5705540000000  0.4460290000000  0.4321600000000 1.0
C      1  0.4670700000000  0.5984300000000  0.4955360000000 1.0
C      1  0.5309210000000  0.5237660000000  0.4374670000000 1.0
C      1  0.4422110000000  0.4453240000000  0.4681340000000 1.0
C      1  0.5147950000000  0.5714580000000  0.5229210000000 1.0
C      1  0.5116060000000  0.5856400000000  0.5654530000000 1.0
C      1  0.5505160000000  0.5093530000000  0.5861640000000 1.0
C      1  0.3989930000000  0.5023860000000  0.5141180000000 1.0
C      1  0.5050220000000  0.4860850000000  0.4649580000000 1.0
C      1  0.5575320000000  0.4038410000000  0.4943380000000 1.0
C      1  0.4908480000000  0.4287590000000  0.5226390000000 1.0
C      1  0.5507960000000  0.5245360000000  0.5306810000000 1.0
C      1  0.4312780000000  0.5831670000000  0.4649260000000 1.0
C      1  0.5415770000000  0.4572450000000  0.5460720000000 1.0
C      1  0.4802560000000  0.5012470000000  0.5305670000000 1.0
C      1  0.4173730000000  0.4647920000000  0.4701450000000 1.0
C      1  0.5824770000000  0.5354190000000  0.5592530000000 1.0
C      1  0.5016150000000  0.5206860000000  0.4340030000000 1.0
C      1  0.4567010000000  0.4023730000000  0.4579340000000 1.0
C      1  0.5408800000000  0.5589760000000  0.5342590000000 1.0
C      1  0.5192450000000  0.6021080000000  0.5197180000000 1.0
C      1  0.5676280000000  0.5380740000000  0.4011380000000 1.0
C      1  0.5437660000000  0.5784130000000  0.4895720000000 1.0
C      1  0.4105340000000  0.5289340000000  0.5246860000000 1.0
C      1  0.4776180000000  0.5935950000000  0.4469350000000 1.0
C      1  0.4217870000000  0.4478770000000  0.5668770000000 1.0
C      1  0.4763690000000  0.5433480000000  0.4626090000000 1.0
C      1  0.6129460000000  0.4904580000000  0.5003740000000 1.0
C      1  0.4104340000000  0.4622860000000  0.4264890000000 1.0
C      1  0.4751730000000  0.4884590000000  0.5982660000000 1.0
C      1  0.4752080000000  0.4968390000000  0.3974820000000 1.0
C      1  0.4402210000000  0.5257500000000  0.5215360000000 1.0
C      1  0.5202810000000  0.4278160000000  0.5121270000000 1.0
C      1  0.5648460000000  0.5736910000000  0.4680880000000 1.0
C      1  0.4227080000000  0.5698050000000  0.5626370000000 1.0
C      1  0.5388960000000  0.5379510000000  0.4637940000000 1.0
C      1  0.4984820000000  0.5646910000000  0.4632880000000 1.0
C      1  0.4750970000000  0.6045870000000  0.5228760000000 1.0
C      1  0.4185090000000  0.4535080000000  0.5151650000000 1.0
C      1  0.5667880000000  0.4242880000000  0.5243820000000 1.0
C      1  0.4649890000000  0.5151300000000  0.6051050000000 1.0
C      1  0.5861070000000  0.5566810000000  0.4838250000000 1.0
C      1  0.4143020000000  0.4336290000000  0.4344060000000 1.0
C      1  0.4952060000000  0.5179400000000  0.4046790000000 1.0
C      1  0.4847570000000  0.5378090000000  0.6056580000000 1.0
C      1  0.5118100000000  0.3970490000000  0.4810150000000 1.0
C      1  0.5035690000000  0.4826970000000  0.5995910000000 1.0
C      1  0.4572160000000  0.5382650000000  0.5678060000000 1.0
C      1  0.4055500000000  0.4589630000000  0.5406750000000 1.0
C      1  0.5295200000000  0.4006780000000  0.5031770000000 1.0
C      1  0.4923090000000  0.4337280000000  0.5831130000000 1.0
C      1  0.4516520000000  0.5258370000000  0.4000700000000 1.0
C      1  0.6072220000000  0.4467960000000  0.5138510000000 1.0
C      1  0.5895180000000  0.4851120000000  0.4568680000000 1.0
C      1  0.5362050000000  0.5712820000000  0.5617470000000 1.0
C      1  0.5834090000000  0.5610760000000  0.5128350000000 1.0
C      1  0.6004810000000  0.5308730000000  0.4785290000000 1.0
C      1  0.5182080000000  0.3979370000000  0.4331980000000 1.0
C      1  0.4219370000000  0.4989660000000  0.5821640000000 1.0
C      1  0.5236100000000  0.4745100000000  0.4459430000000 1.0
C      1  0.5562440000000  0.4121710000000  0.4662940000000 1.0
C      1  0.4408120000000  0.5022220000000  0.4454830000000 1.0
C      1  0.4919430000000  0.5500410000000  0.5314880000000 1.0
C      1  0.5211310000000  0.5542770000000  0.4827850000000 1.0
C      1  0.5584070000000  0.5740050000000  0.5159810000000 1.0
C      1  0.5404480000000  0.4315090000000  0.5332240000000 1.0
C      1  0.4575100000000  0.4661220000000  0.5933690000000 1.0
C      1  0.4870390000000  0.5062160000000  0.4549220000000 1.0
C      1  0.4331230000000  0.5507600000000  0.5804030000000 1.0
C      1  0.5053260000000  0.5708030000000  0.4322980000000 1.0
C      1  0.5783880000000  0.4670630000000  0.4790430000000 1.0
C      1  0.4157330000000  0.4829790000000  0.4466850000000 1.0
C      1  0.5081910000000  0.5158720000000  0.5655270000000 1.0
C      1  0.4392570000000  0.4323010000000  0.5122990000000 1.0
C      1  0.4364910000000  0.5219310000000  0.5959790000000 1.0
C      1  0.4708100000000  0.4689870000000  0.5009940000000 1.0
C      1  0.5449790000000  0.4962340000000  0.4412420000000 1.0
C      1  0.4192920000000  0.4774870000000  0.4974520000000 1.0
C      1  0.4670710000000  0.4851190000000  0.4422330000000 1.0
C      1  0.4445870000000  0.3891250000000  0.5064270000000 1.0
C      1  0.5125020000000  0.4394970000000  0.4130650000000 1.0
C      1  0.5394580000000  0.5385730000000  0.4109580000000 1.0
C      1  0.5019950000000  0.5429640000000  0.5597780000000 1.0
C      1  0.5208280000000  0.5128720000000  0.3908110000000 1.0
C      1  0.4000860000000  0.4889300000000  0.5404790000000 1.0
C      1  0.4413760000000  0.5715680000000  0.5403350000000 1.0
C      1  0.5995440000000  0.5147520000000  0.5033450000000 1.0
C      1  0.5275910000000  0.4066140000000  0.4586420000000 1.0
C      1  0.4464290000000  0.5779870000000  0.4902710000000 1.0
C      1  0.4663550000000  0.4439710000000  0.5770570000000 1.0
C      1  0.5659940000000  0.4889610000000  0.6024060000000 1.0
C      1  0.5642310000000  0.5355560000000  0.5808010000000 1.0
C      1  0.5501930000000  0.4724090000000  0.3981470000000 1.0
C      1  0.4832680000000  0.5822060000000  0.5690780000000 1.0
C      1  0.5905790000000  0.5228710000000  0.4066650000000 1.0
C      1  0.4606230000000  0.5512460000000  0.4871170000000 1.0
C      1  0.5053230000000  0.4742540000000  0.4914860000000 1.0
C      1  0.5039650000000  0.5316520000000  0.5077250000000 1.0
C      1  0.5074650000000  0.4992920000000  0.5420190000000 1.0
END
