TITL C-950524-1808-517 -6.24257878131333e-06 125000 -1244.81623073976 0 0 198 (C1) n - 1
REM
REM in /home/bkarasulu/work/CARBON/AIRSS/Generating-Clusters/EDIP-Nigel-Params/with-SteepDescent/Only-C1/SD-CG/HFTN-CG
REM
REM
REM
REM
REM
REM ./C.cell (11c1c37f851c82e70ff6c80c92926a4b)
REM
REM compiler GCC version 9.2.1 20190827 (Red Hat 9.2.1-1)
REM options -cpp -mtune=generic -march=x86-64 -g -O0 -fpre-include=/usr/include/finclude/math-vector-fortran.h
REM seed -1555050523 1773861788 -1125960220 -228870682 291402763 1350046781 1272214869 2056384392 1739779379 1569934112 -1817877535 743227769 381880841 -877193671 -704061367 -2103615314 -496566023 -1560069403 849239661 -331990313 -99148079 -302789354 -879831731 -1393489541 -1477763641 1401559215 1995183655 852855495 265686789 1098168569 2054881768 227792732 -598083633
REM
CELL 1.54180   50.00000   50.00000   50.00000   90.00000   90.00000   90.00000
LATT -1
SFAC C  
C      1  0.5939880000000  0.4799890000000  0.4549120000000 1.0
C      1  0.5366310000000  0.5363170000000  0.5396420000000 1.0
C      1  0.5147370000000  0.5206280000000  0.4508120000000 1.0
C      1  0.4418040000000  0.5081520000000  0.5988340000000 1.0
C      1  0.5988010000000  0.5521950000000  0.4779530000000 1.0
C      1  0.5073820000000  0.4291340000000  0.5134260000000 1.0
C      1  0.4250200000000  0.4326820000000  0.5593450000000 1.0
C      1  0.5351480000000  0.5357100000000  0.5923130000000 1.0
C      1  0.5692120000000  0.4691420000000  0.4965650000000 1.0
C      1  0.3792280000000  0.5346150000000  0.5030620000000 1.0
C      1  0.4547650000000  0.5723310000000  0.5625690000000 1.0
C      1  0.5181030000000  0.6041200000000  0.4322090000000 1.0
C      1  0.5259790000000  0.4567490000000  0.5789310000000 1.0
C      1  0.4514390000000  0.5013960000000  0.5544120000000 1.0
C      1  0.4645760000000  0.5352220000000  0.4372390000000 1.0
C      1  0.5504020000000  0.4126670000000  0.5377070000000 1.0
C      1  0.5276330000000  0.4557490000000  0.4801260000000 1.0
C      1  0.4329790000000  0.4280780000000  0.5115280000000 1.0
C      1  0.4411890000000  0.5483770000000  0.5744140000000 1.0
C      1  0.4530450000000  0.4513240000000  0.5178760000000 1.0
C      1  0.5840970000000  0.4345260000000  0.4713240000000 1.0
C      1  0.5403790000000  0.5085810000000  0.4612250000000 1.0
C      1  0.6153710000000  0.4660840000000  0.4987970000000 1.0
C      1  0.4735260000000  0.5793300000000  0.4129100000000 1.0
C      1  0.4636170000000  0.5057320000000  0.4450530000000 1.0
C      1  0.4333120000000  0.4828510000000  0.5899810000000 1.0
C      1  0.4553830000000  0.5326420000000  0.5950750000000 1.0
C      1  0.5128890000000  0.6139200000000  0.4750210000000 1.0
C      1  0.5149660000000  0.4802660000000  0.4945070000000 1.0
C      1  0.5030260000000  0.4958660000000  0.3947380000000 1.0
C      1  0.5476920000000  0.4962940000000  0.4145430000000 1.0
C      1  0.4776750000000  0.4441120000000  0.5583740000000 1.0
C      1  0.5677310000000  0.5350270000000  0.5842590000000 1.0
C      1  0.5035710000000  0.4245760000000  0.6033100000000 1.0
C      1  0.5798410000000  0.5505180000000  0.5601460000000 1.0
C      1  0.5309060000000  0.4345600000000  0.5986240000000 1.0
C      1  0.4429660000000  0.4327690000000  0.5832670000000 1.0
C      1  0.4802230000000  0.3876800000000  0.4957640000000 1.0
C      1  0.3987990000000  0.4809060000000  0.4575090000000 1.0
C      1  0.4075140000000  0.5068860000000  0.5548260000000 1.0
C      1  0.4826170000000  0.5385230000000  0.3905320000000 1.0
C      1  0.5710330000000  0.5150590000000  0.4074000000000 1.0
C      1  0.5212700000000  0.5138690000000  0.4080120000000 1.0
C      1  0.4261930000000  0.4991240000000  0.4796980000000 1.0
C      1  0.5082540000000  0.5214000000000  0.6070040000000 1.0
C      1  0.4974290000000  0.4712630000000  0.4369210000000 1.0
C      1  0.5794090000000  0.4204620000000  0.4958630000000 1.0
C      1  0.6124900000000  0.4911080000000  0.5149410000000 1.0
C      1  0.5959340000000  0.5047840000000  0.5533560000000 1.0
C      1  0.5506470000000  0.4459870000000  0.4976420000000 1.0
C      1  0.6103160000000  0.4515810000000  0.5248330000000 1.0
C      1  0.5065190000000  0.4739740000000  0.5429180000000 1.0
C      1  0.4713530000000  0.5914190000000  0.4878820000000 1.0
C      1  0.5851720000000  0.4703550000000  0.4298960000000 1.0
C      1  0.4980430000000  0.5976140000000  0.5641880000000 1.0
C      1  0.5494730000000  0.4665840000000  0.4034360000000 1.0
C      1  0.4955370000000  0.4247200000000  0.4367010000000 1.0
C      1  0.5320860000000  0.3931940000000  0.5197280000000 1.0
C      1  0.4753830000000  0.4561240000000  0.3966820000000 1.0
C      1  0.5921090000000  0.4625690000000  0.4792950000000 1.0
C      1  0.5101960000000  0.4134110000000  0.4632310000000 1.0
C      1  0.5615440000000  0.5440570000000  0.4137920000000 1.0
C      1  0.5413810000000  0.5533550000000  0.4857910000000 1.0
C      1  0.5338890000000  0.4644910000000  0.5417540000000 1.0
C      1  0.3884670000000  0.5460610000000  0.5259300000000 1.0
C      1  0.5716340000000  0.5081190000000  0.5705630000000 1.0
C      1  0.3880540000000  0.5088430000000  0.4596800000000 1.0
C      1  0.5694700000000  0.5873690000000  0.4546710000000 1.0
C      1  0.4970870000000  0.5504330000000  0.5696860000000 1.0
C      1  0.5023770000000  0.6045830000000  0.5206480000000 1.0
C      1  0.4779210000000  0.5091710000000  0.3891550000000 1.0
C      1  0.4525420000000  0.5133300000000  0.4729370000000 1.0
C      1  0.3938930000000  0.5290910000000  0.4797550000000 1.0
C      1  0.4823280000000  0.5776740000000  0.4605950000000 1.0
C      1  0.5342140000000  0.5004960000000  0.5064560000000 1.0
C      1  0.4761480000000  0.5204190000000  0.5242930000000 1.0
C      1  0.4007890000000  0.5036780000000  0.5258650000000 1.0
C      1  0.4593210000000  0.5568980000000  0.3989670000000 1.0
C      1  0.5341150000000  0.4828440000000  0.5906270000000 1.0
C      1  0.5086960000000  0.5427160000000  0.4043290000000 1.0
C      1  0.4091950000000  0.4758190000000  0.4297710000000 1.0
C      1  0.4253060000000  0.4263860000000  0.4626250000000 1.0
C      1  0.5045170000000  0.3803660000000  0.4821370000000 1.0
C      1  0.5598660000000  0.5559670000000  0.5374530000000 1.0
C      1  0.6126370000000  0.5167960000000  0.5017780000000 1.0
C      1  0.4353910000000  0.4603590000000  0.4255660000000 1.0
C      1  0.4224350000000  0.5894620000000  0.4966640000000 1.0
C      1  0.6013550000000  0.5336150000000  0.5462990000000 1.0
C      1  0.5258020000000  0.5054580000000  0.5703010000000 1.0
C      1  0.5602710000000  0.4317890000000  0.4517810000000 1.0
C      1  0.5712620000000  0.5407310000000  0.5121310000000 1.0
C      1  0.5766540000000  0.4788580000000  0.5233220000000 1.0
C      1  0.6058590000000  0.4752140000000  0.5549710000000 1.0
C      1  0.3953340000000  0.5222460000000  0.4344110000000 1.0
C      1  0.4921320000000  0.4074230000000  0.5828470000000 1.0
C      1  0.4911150000000  0.6167100000000  0.5445570000000 1.0
C      1  0.5784890000000  0.4229440000000  0.5433590000000 1.0
C      1  0.5474760000000  0.5104500000000  0.5514120000000 1.0
C      1  0.5227600000000  0.5600630000000  0.5802600000000 1.0
C      1  0.5376400000000  0.6104260000000  0.4897800000000 1.0
C      1  0.4802400000000  0.4491260000000  0.4771710000000 1.0
C      1  0.4795100000000  0.5024380000000  0.5715820000000 1.0
C      1  0.5961690000000  0.5084820000000  0.4544680000000 1.0
C      1  0.4096430000000  0.4568730000000  0.5527220000000 1.0
C      1  0.4158700000000  0.5488020000000  0.5322570000000 1.0
C      1  0.4410370000000  0.5416600000000  0.4190490000000 1.0
C      1  0.5057570000000  0.4355790000000  0.4835830000000 1.0
C      1  0.4815480000000  0.5750130000000  0.5712420000000 1.0
C      1  0.4955710000000  0.4549410000000  0.5813110000000 1.0
C      1  0.4599950000000  0.5452520000000  0.5165420000000 1.0
C      1  0.5372860000000  0.4576880000000  0.4506670000000 1.0
C      1  0.5483940000000  0.4892110000000  0.5305420000000 1.0
C      1  0.5496210000000  0.5985350000000  0.5375770000000 1.0
C      1  0.5667220000000  0.4845850000000  0.5887500000000 1.0
C      1  0.5016630000000  0.5656940000000  0.5192710000000 1.0
C      1  0.4847710000000  0.5282400000000  0.5875130000000 1.0
C      1  0.5737330000000  0.5902130000000  0.5263600000000 1.0
C      1  0.5594880000000  0.5934830000000  0.4807130000000 1.0
C      1  0.4771320000000  0.4529150000000  0.4482930000000 1.0
C      1  0.5405950000000  0.5433010000000  0.4343070000000 1.0
C      1  0.5244140000000  0.5887060000000  0.5726580000000 1.0
C      1  0.4719120000000  0.5725500000000  0.5146590000000 1.0
C      1  0.4050380000000  0.5520870000000  0.4662050000000 1.0
C      1  0.3985730000000  0.4595000000000  0.5259200000000 1.0
C      1  0.4386040000000  0.4130550000000  0.4852540000000 1.0
C      1  0.5835520000000  0.5620970000000  0.4551550000000 1.0
C      1  0.4932510000000  0.4969890000000  0.4501670000000 1.0
C      1  0.5069100000000  0.3913830000000  0.5354170000000 1.0
C      1  0.4321930000000  0.5410550000000  0.5085190000000 1.0
C      1  0.5311200000000  0.6094220000000  0.5182400000000 1.0
C      1  0.4924810000000  0.4915490000000  0.4796170000000 1.0
C      1  0.4273890000000  0.5084430000000  0.5094160000000 1.0
C      1  0.4328900000000  0.4133800000000  0.5374830000000 1.0
C      1  0.5360510000000  0.4387210000000  0.5241890000000 1.0
C      1  0.4272530000000  0.5623160000000  0.4822230000000 1.0
C      1  0.5681930000000  0.4502770000000  0.4196370000000 1.0
C      1  0.4906660000000  0.6130460000000  0.4941830000000 1.0
C      1  0.4597070000000  0.4027000000000  0.5438500000000 1.0
C      1  0.4536990000000  0.4954880000000  0.5234460000000 1.0
C      1  0.4090680000000  0.5028520000000  0.4174380000000 1.0
C      1  0.5391440000000  0.5637950000000  0.4552170000000 1.0
C      1  0.5523420000000  0.4858660000000  0.4442650000000 1.0
C      1  0.4622520000000  0.3902630000000  0.4505330000000 1.0
C      1  0.5020210000000  0.4999960000000  0.5535400000000 1.0
C      1  0.5236810000000  0.4519700000000  0.4027900000000 1.0
C      1  0.4585440000000  0.3937090000000  0.4780430000000 1.0
C      1  0.4605610000000  0.4643090000000  0.4932250000000 1.0
C      1  0.5844570000000  0.4630930000000  0.5768190000000 1.0
C      1  0.5036180000000  0.5726170000000  0.4151830000000 1.0
C      1  0.4839920000000  0.4801840000000  0.5938470000000 1.0
C      1  0.5957340000000  0.5202370000000  0.4278430000000 1.0
C      1  0.5313860000000  0.3876450000000  0.4908480000000 1.0
C      1  0.5124290000000  0.5545260000000  0.4933140000000 1.0
C      1  0.5235000000000  0.4370280000000  0.4280540000000 1.0
C      1  0.4380390000000  0.4708170000000  0.4752160000000 1.0
C      1  0.4131990000000  0.4505210000000  0.4759770000000 1.0
C      1  0.4994120000000  0.4690000000000  0.4069310000000 1.0
C      1  0.5116370000000  0.6247700000000  0.4491390000000 1.0
C      1  0.4142940000000  0.4818430000000  0.5680760000000 1.0
C      1  0.4975580000000  0.4670920000000  0.5166250000000 1.0
C      1  0.4785070000000  0.5147740000000  0.4903080000000 1.0
C      1  0.6074790000000  0.5250970000000  0.4749480000000 1.0
C      1  0.4516700000000  0.4670190000000  0.5511830000000 1.0
C      1  0.4109140000000  0.5468760000000  0.4378990000000 1.0
C      1  0.5879320000000  0.5501620000000  0.4284820000000 1.0
C      1  0.4550460000000  0.4973310000000  0.4021910000000 1.0
C      1  0.4334390000000  0.5150630000000  0.4066890000000 1.0
C      1  0.4378590000000  0.5892100000000  0.4550540000000 1.0
C      1  0.5408040000000  0.4092120000000  0.4619160000000 1.0
C      1  0.4507220000000  0.4600410000000  0.5927150000000 1.0
C      1  0.4522190000000  0.4720920000000  0.4476160000000 1.0
C      1  0.5950230000000  0.4258710000000  0.5201060000000 1.0
C      1  0.4402030000000  0.4306850000000  0.4371290000000 1.0
C      1  0.4755350000000  0.5496490000000  0.4607270000000 1.0
C      1  0.4630660000000  0.5872440000000  0.4404760000000 1.0
C      1  0.4809420000000  0.3953940000000  0.5238620000000 1.0
C      1  0.4495300000000  0.5901760000000  0.5404310000000 1.0
C      1  0.4274540000000  0.5906710000000  0.5240620000000 1.0
C      1  0.5749120000000  0.4518750000000  0.5500410000000 1.0
C      1  0.4079050000000  0.4421970000000  0.5049790000000 1.0
C      1  0.4669340000000  0.4175730000000  0.5694740000000 1.0
C      1  0.5392780000000  0.4069090000000  0.5649420000000 1.0
C      1  0.6019690000000  0.5402070000000  0.5161050000000 1.0
C      1  0.5473370000000  0.6028790000000  0.5652580000000 1.0
C      1  0.4795560000000  0.4393340000000  0.5279460000000 1.0
C      1  0.4963790000000  0.5358000000000  0.4754100000000 1.0
C      1  0.5116170000000  0.4018060000000  0.5618310000000 1.0
C      1  0.5491810000000  0.4153910000000  0.5895350000000 1.0
C      1  0.5093290000000  0.4918180000000  0.6089260000000 1.0
C      1  0.4435310000000  0.6022640000000  0.4804150000000 1.0
C      1  0.5486540000000  0.5200210000000  0.4879570000000 1.0
C      1  0.5124710000000  0.5792970000000  0.4471170000000 1.0
C      1  0.4509600000000  0.4688590000000  0.4013540000000 1.0
C      1  0.3835440000000  0.4818930000000  0.5196300000000 1.0
C      1  0.4257100000000  0.5312210000000  0.5552320000000 1.0
C      1  0.4647370000000  0.4129960000000  0.4341410000000 1.0
C      1  0.5711090000000  0.5770510000000  0.5009200000000 1.0
C      1  0.5046560000000  0.5415740000000  0.5397160000000 1.0
END
