TITL C-950536-5891-30 -1.63083447495449e-06 125000 -513.51911061723 0 0 83 (C1) n - 1
REM
REM in /home/bkarasulu/work/CARBON/AIRSS/Generating-Clusters/EDIP-Nigel-Params/with-SteepDescent/Only-C1/SD-CG/HFTN-CG
REM
REM
REM
REM
REM
REM ./C.cell (11c1c37f851c82e70ff6c80c92926a4b)
REM
REM compiler GCC version 9.2.1 20190827 (Red Hat 9.2.1-1)
REM options -cpp -mtune=generic -march=x86-64 -g -O0 -fpre-include=/usr/include/finclude/math-vector-fortran.h
REM seed 1442191021 764179513 -290680396 -1458315086 -1762086960 -309499180 -516457320 1328433021 -1766182687 -1773515129 978664760 -320925996 1945678333 -497680970 -973006475 -1414183862 361812414 -61499856 -765986244 825942472 -1757981495 1109111068 1406761389 1577871423 1766765738 -1047397925 1588435852 -273354765 -100629809 -1837090279 1278485810 -1467301167 900447163
REM
CELL 1.54180   50.00000   50.00000   50.00000   90.00000   90.00000   90.00000
LATT -1
SFAC C  
C      1  0.4500250000000  0.4424960000000  0.4997670000000 1.0
C      1  0.5038080000000  0.4782400000000  0.4292240000000 1.0
C      1  0.5188420000000  0.4511210000000  0.5852730000000 1.0
C      1  0.5454240000000  0.4570470000000  0.4617360000000 1.0
C      1  0.4240740000000  0.5106000000000  0.4831440000000 1.0
C      1  0.5263500000000  0.5113870000000  0.5897480000000 1.0
C      1  0.4361950000000  0.5372530000000  0.4898250000000 1.0
C      1  0.5678390000000  0.5075190000000  0.5610240000000 1.0
C      1  0.5566120000000  0.4656850000000  0.4358420000000 1.0
C      1  0.4407590000000  0.5113590000000  0.5465670000000 1.0
C      1  0.5003040000000  0.5423990000000  0.5635390000000 1.0
C      1  0.5672880000000  0.4797880000000  0.5645920000000 1.0
C      1  0.5540420000000  0.4584120000000  0.5518180000000 1.0
C      1  0.5392990000000  0.4778360000000  0.4163450000000 1.0
C      1  0.5747450000000  0.4899590000000  0.4580040000000 1.0
C      1  0.5352010000000  0.5607670000000  0.4702420000000 1.0
C      1  0.4609140000000  0.5755400000000  0.5112150000000 1.0
C      1  0.5583060000000  0.4818330000000  0.5091420000000 1.0
C      1  0.5276270000000  0.5465250000000  0.4453450000000 1.0
C      1  0.4861620000000  0.5004160000000  0.5675050000000 1.0
C      1  0.5368240000000  0.5304240000000  0.5093310000000 1.0
C      1  0.4952830000000  0.5001620000000  0.4492670000000 1.0
C      1  0.4508880000000  0.5389550000000  0.5407550000000 1.0
C      1  0.5227010000000  0.4239810000000  0.5153820000000 1.0
C      1  0.4415070000000  0.5525840000000  0.5151210000000 1.0
C      1  0.5573200000000  0.4778300000000  0.4786590000000 1.0
C      1  0.4648350000000  0.5853850000000  0.4851710000000 1.0
C      1  0.4663970000000  0.4798160000000  0.5175470000000 1.0
C      1  0.4618310000000  0.5716680000000  0.4612500000000 1.0
C      1  0.4375540000000  0.4603190000000  0.4553490000000 1.0
C      1  0.5014020000000  0.4280310000000  0.4946550000000 1.0
C      1  0.5099250000000  0.4822630000000  0.5021230000000 1.0
C      1  0.4557260000000  0.4683030000000  0.5615110000000 1.0
C      1  0.5688680000000  0.5174080000000  0.4508990000000 1.0
C      1  0.5745040000000  0.5332750000000  0.4731100000000 1.0
C      1  0.5484390000000  0.4338060000000  0.5116860000000 1.0
C      1  0.5291990000000  0.5439630000000  0.5567780000000 1.0
C      1  0.4786530000000  0.4659870000000  0.5406820000000 1.0
C      1  0.4739300000000  0.4286060000000  0.5087440000000 1.0
C      1  0.4239260000000  0.5084010000000  0.4536260000000 1.0
C      1  0.5348310000000  0.5533180000000  0.5296170000000 1.0
C      1  0.4894040000000  0.5245600000000  0.5136260000000 1.0
C      1  0.5011170000000  0.4568210000000  0.4850160000000 1.0
C      1  0.5796550000000  0.4996160000000  0.5165090000000 1.0
C      1  0.5532600000000  0.5443140000000  0.4872760000000 1.0
C      1  0.5177810000000  0.4446220000000  0.4629820000000 1.0
C      1  0.5291140000000  0.4848400000000  0.6008150000000 1.0
C      1  0.4996050000000  0.5481440000000  0.4368100000000 1.0
C      1  0.4580850000000  0.5188690000000  0.4218060000000 1.0
C      1  0.5063400000000  0.5106570000000  0.4072540000000 1.0
C      1  0.5098230000000  0.5373980000000  0.4977600000000 1.0
C      1  0.4239450000000  0.4853490000000  0.4988260000000 1.0
C      1  0.5316850000000  0.4956020000000  0.5182800000000 1.0
C      1  0.5074530000000  0.4679740000000  0.6041840000000 1.0
C      1  0.5816190000000  0.5155670000000  0.5381780000000 1.0
C      1  0.5089210000000  0.4806070000000  0.5455440000000 1.0
C      1  0.4813760000000  0.5422010000000  0.5381710000000 1.0
C      1  0.4843800000000  0.4971780000000  0.5013300000000 1.0
C      1  0.5239820000000  0.4552590000000  0.5563760000000 1.0
C      1  0.4767850000000  0.4937100000000  0.4710670000000 1.0
C      1  0.4323110000000  0.4598660000000  0.4849310000000 1.0
C      1  0.4827500000000  0.4368130000000  0.5356930000000 1.0
C      1  0.5112300000000  0.4318130000000  0.5409180000000 1.0
C      1  0.4885950000000  0.5211920000000  0.4285090000000 1.0
C      1  0.4831460000000  0.5697610000000  0.4435110000000 1.0
C      1  0.4729960000000  0.4487950000000  0.4453070000000 1.0
C      1  0.5341550000000  0.5066020000000  0.4152300000000 1.0
C      1  0.4738200000000  0.4634630000000  0.4714700000000 1.0
C      1  0.4572140000000  0.4970210000000  0.5682100000000 1.0
C      1  0.4393560000000  0.5306840000000  0.4419520000000 1.0
C      1  0.4849960000000  0.5699150000000  0.5275720000000 1.0
C      1  0.5423750000000  0.5200120000000  0.5671260000000 1.0
C      1  0.5133430000000  0.5732650000000  0.4853190000000 1.0
C      1  0.4384670000000  0.4872540000000  0.5253520000000 1.0
C      1  0.5421220000000  0.5217150000000  0.4391660000000 1.0
C      1  0.4318960000000  0.4654990000000  0.5448110000000 1.0
C      1  0.4469120000000  0.5474240000000  0.4645890000000 1.0
C      1  0.5007080000000  0.4500740000000  0.4386710000000 1.0
C      1  0.4475140000000  0.4925930000000  0.4171270000000 1.0
C      1  0.4984620000000  0.5204990000000  0.5835370000000 1.0
C      1  0.5610560000000  0.4555840000000  0.5235780000000 1.0
C      1  0.5128240000000  0.5720170000000  0.5155110000000 1.0
C      1  0.4310630000000  0.4841840000000  0.4389460000000 1.0
END
