TITL C-950522-5749-161 4.82782096801626e-07 125000 -348.606942328832 0 0 58 (C1) n - 1
REM
REM in /home/bkarasulu/work/CARBON/AIRSS/Generating-Clusters/EDIP-Nigel-Params/with-SteepDescent/Only-C1/SD-CG/HFTN-CG
REM
REM
REM
REM
REM
REM ./C.cell (11c1c37f851c82e70ff6c80c92926a4b)
REM
REM compiler GCC version 9.2.1 20190827 (Red Hat 9.2.1-1)
REM options -cpp -mtune=generic -march=x86-64 -g -O0 -fpre-include=/usr/include/finclude/math-vector-fortran.h
REM seed 2079829278 632833143 218486555 -1184463453 -1444227605 1825129437 160762650 275658616 712959171 -886952186 -783730600 -1387419309 -1474116936 1405163977 -1554366047 -1220430689 -744906155 1594552840 387887828 -469407780 -737786039 -352934709 747445351 976550907 -852842182 -990773116 1314298394 248059721 1977738064 125881772 1162190253 -8671149 -300792102
REM
CELL 1.54180   50.00000   50.00000   50.00000   90.00000   90.00000   90.00000
LATT -1
SFAC C  
C      1  0.4896850000000  0.5306420000000  0.5157260000000 1.0
C      1  0.4666970000000  0.5397940000000  0.5013670000000 1.0
C      1  0.5904910000000  0.5268590000000  0.5244850000000 1.0
C      1  0.4973740000000  0.4353380000000  0.5083880000000 1.0
C      1  0.5121330000000  0.5686810000000  0.5158280000000 1.0
C      1  0.4841290000000  0.4471900000000  0.5321130000000 1.0
C      1  0.5511450000000  0.4889150000000  0.4500980000000 1.0
C      1  0.4532350000000  0.4707690000000  0.5681870000000 1.0
C      1  0.5579800000000  0.4995550000000  0.5516460000000 1.0
C      1  0.5200470000000  0.4712110000000  0.4882720000000 1.0
C      1  0.4967130000000  0.4884300000000  0.4962110000000 1.0
C      1  0.4318820000000  0.5139070000000  0.5282590000000 1.0
C      1  0.4565240000000  0.5360430000000  0.4550750000000 1.0
C      1  0.4851020000000  0.4901040000000  0.4479340000000 1.0
C      1  0.4362040000000  0.4620720000000  0.4953460000000 1.0
C      1  0.4617250000000  0.4504650000000  0.4701350000000 1.0
C      1  0.5522410000000  0.4800520000000  0.5312390000000 1.0
C      1  0.5091620000000  0.5140590000000  0.5644080000000 1.0
C      1  0.4524410000000  0.4915230000000  0.4315270000000 1.0
C      1  0.4656150000000  0.4934180000000  0.5580310000000 1.0
C      1  0.4680570000000  0.5418100000000  0.5529110000000 1.0
C      1  0.4672520000000  0.5196220000000  0.4318990000000 1.0
C      1  0.5120750000000  0.5589740000000  0.5413190000000 1.0
C      1  0.4972740000000  0.5413850000000  0.5582040000000 1.0
C      1  0.4636980000000  0.4667940000000  0.4455060000000 1.0
C      1  0.5145080000000  0.5054210000000  0.4205750000000 1.0
C      1  0.5245230000000  0.4485460000000  0.5083860000000 1.0
C      1  0.5139650000000  0.4590230000000  0.4387580000000 1.0
C      1  0.4642920000000  0.4338050000000  0.5463390000000 1.0
C      1  0.5368580000000  0.5109020000000  0.5654490000000 1.0
C      1  0.5509730000000  0.5183560000000  0.4904780000000 1.0
C      1  0.4194370000000  0.4837230000000  0.4898230000000 1.0
C      1  0.4965090000000  0.5040050000000  0.5202610000000 1.0
C      1  0.4486820000000  0.4444410000000  0.5654850000000 1.0
C      1  0.4635160000000  0.5632530000000  0.4599930000000 1.0
C      1  0.5023310000000  0.5685030000000  0.4890560000000 1.0
C      1  0.4969460000000  0.5265200000000  0.4262250000000 1.0
C      1  0.4845120000000  0.5022380000000  0.4746230000000 1.0
C      1  0.4624530000000  0.5205480000000  0.4790660000000 1.0
C      1  0.4877990000000  0.4387190000000  0.4786150000000 1.0
C      1  0.5302790000000  0.4609320000000  0.5340690000000 1.0
C      1  0.5448010000000  0.4901230000000  0.4807390000000 1.0
C      1  0.4940420000000  0.4934150000000  0.5483320000000 1.0
C      1  0.5697560000000  0.4679470000000  0.4603540000000 1.0
C      1  0.4447920000000  0.5409310000000  0.5226830000000 1.0
C      1  0.5266690000000  0.4836960000000  0.4338190000000 1.0
C      1  0.5165630000000  0.5519950000000  0.4690750000000 1.0
C      1  0.5753110000000  0.5233380000000  0.5026270000000 1.0
C      1  0.5791040000000  0.4657680000000  0.4866690000000 1.0
C      1  0.5069380000000  0.5463160000000  0.4433710000000 1.0
C      1  0.5396880000000  0.5397570000000  0.4774100000000 1.0
C      1  0.5035640000000  0.4643570000000  0.5472420000000 1.0
C      1  0.5713060000000  0.4733760000000  0.5116370000000 1.0
C      1  0.4373890000000  0.4902990000000  0.5109580000000 1.0
C      1  0.5114200000000  0.4525450000000  0.4660630000000 1.0
C      1  0.5798430000000  0.5156630000000  0.5464390000000 1.0
C      1  0.4495750000000  0.5179670000000  0.5543710000000 1.0
C      1  0.4727740000000  0.5659590000000  0.4868950000000 1.0
END
