TITL C-951338-5626-133 -4.40803967958045e-06 125000 -793.103525639057 0 0 131 (C1) n - 1
REM
REM in /home/bkarasulu/work/CARBON/AIRSS/Generating-Clusters/EDIP-Nigel-Params/with-SteepDescent/Only-C1/SD-CG/HFTN-CG
REM
REM
REM
REM
REM
REM ./C.cell (11c1c37f851c82e70ff6c80c92926a4b)
REM
REM compiler GCC version 9.2.1 20190827 (Red Hat 9.2.1-1)
REM options -cpp -mtune=generic -march=x86-64 -g -O0 -fpre-include=/usr/include/finclude/math-vector-fortran.h
REM seed 615361996 1697756813 302467466 1255024866 -1326892119 -1744440114 1789171161 -989532802 -1408146657 362457849 -106327752 635955687 1442834159 1762841238 -146116665 -792398964 -1611002975 320480352 1515089703 592287312 1569027467 -467426574 2055746017 -270124622 1381161396 142960146 304019326 293579994 2057022162 1928839455 1680255979 -471289017 983639046
REM
CELL 1.54180   50.00000   50.00000   50.00000   90.00000   90.00000   90.00000
LATT -1
SFAC C  
C      1  0.4464000000000  0.4851540000000  0.5829130000000 1.0
C      1  0.5248820000000  0.4214690000000  0.4527830000000 1.0
C      1  0.4612610000000  0.5337420000000  0.4981410000000 1.0
C      1  0.4400060000000  0.4145390000000  0.4745630000000 1.0
C      1  0.4822320000000  0.4495980000000  0.4173770000000 1.0
C      1  0.5325450000000  0.4857260000000  0.4282120000000 1.0
C      1  0.4729530000000  0.4763860000000  0.4040090000000 1.0
C      1  0.5760670000000  0.4517920000000  0.5278420000000 1.0
C      1  0.5494320000000  0.4200400000000  0.4958110000000 1.0
C      1  0.5248120000000  0.5302870000000  0.4655060000000 1.0
C      1  0.4313710000000  0.5526190000000  0.4831870000000 1.0
C      1  0.5154320000000  0.6062630000000  0.5276820000000 1.0
C      1  0.5182580000000  0.5280280000000  0.5313770000000 1.0
C      1  0.5945520000000  0.4864440000000  0.5000820000000 1.0
C      1  0.4888810000000  0.5422180000000  0.4919540000000 1.0
C      1  0.5633860000000  0.5571630000000  0.4525980000000 1.0
C      1  0.4412270000000  0.5656030000000  0.5273140000000 1.0
C      1  0.5207680000000  0.5874100000000  0.5724560000000 1.0
C      1  0.5040440000000  0.5654070000000  0.5715080000000 1.0
C      1  0.5070520000000  0.5773610000000  0.5223440000000 1.0
C      1  0.4611920000000  0.4999290000000  0.6033000000000 1.0
C      1  0.4303630000000  0.4095710000000  0.5001540000000 1.0
C      1  0.5627070000000  0.5584260000000  0.4830830000000 1.0
C      1  0.4681910000000  0.4844110000000  0.4612840000000 1.0
C      1  0.5439450000000  0.5117640000000  0.4805710000000 1.0
C      1  0.4682950000000  0.5181560000000  0.5427740000000 1.0
C      1  0.5445070000000  0.4908840000000  0.5817550000000 1.0
C      1  0.5732570000000  0.5301970000000  0.4439750000000 1.0
C      1  0.4845640000000  0.4345410000000  0.5164670000000 1.0
C      1  0.4291620000000  0.5388210000000  0.5320720000000 1.0
C      1  0.4626990000000  0.4456890000000  0.4400670000000 1.0
C      1  0.5074790000000  0.4397840000000  0.5376780000000 1.0
C      1  0.5607240000000  0.5158120000000  0.5872980000000 1.0
C      1  0.4911130000000  0.4862210000000  0.4430360000000 1.0
C      1  0.4652260000000  0.4613620000000  0.5107150000000 1.0
C      1  0.5365910000000  0.5662400000000  0.4428030000000 1.0
C      1  0.4616920000000  0.5749790000000  0.5442620000000 1.0
C      1  0.4564230000000  0.5221550000000  0.4151590000000 1.0
C      1  0.5857580000000  0.4645090000000  0.4817030000000 1.0
C      1  0.5740800000000  0.5438460000000  0.5555870000000 1.0
C      1  0.5214440000000  0.4727740000000  0.4031070000000 1.0
C      1  0.5415680000000  0.4745000000000  0.5134650000000 1.0
C      1  0.5239820000000  0.5533790000000  0.4191370000000 1.0
C      1  0.4859310000000  0.4954300000000  0.5552740000000 1.0
C      1  0.5341020000000  0.5486760000000  0.4889340000000 1.0
C      1  0.5905790000000  0.4779920000000  0.5283610000000 1.0
C      1  0.4375710000000  0.4242500000000  0.5227020000000 1.0
C      1  0.5766260000000  0.5535620000000  0.5284610000000 1.0
C      1  0.5008870000000  0.4900930000000  0.5283110000000 1.0
C      1  0.4152350000000  0.5156970000000  0.5064500000000 1.0
C      1  0.4331370000000  0.5543510000000  0.4549590000000 1.0
C      1  0.4689540000000  0.5467570000000  0.4220210000000 1.0
C      1  0.5177610000000  0.4660190000000  0.5285760000000 1.0
C      1  0.4489280000000  0.4643720000000  0.5375400000000 1.0
C      1  0.4258780000000  0.4359310000000  0.4619250000000 1.0
C      1  0.4988890000000  0.5183080000000  0.5902340000000 1.0
C      1  0.4274040000000  0.4883400000000  0.5393050000000 1.0
C      1  0.4215180000000  0.4338960000000  0.5462120000000 1.0
C      1  0.5252730000000  0.5014700000000  0.5591680000000 1.0
C      1  0.4036020000000  0.4954960000000  0.5232690000000 1.0
C      1  0.5017360000000  0.6244250000000  0.5452050000000 1.0
C      1  0.5624210000000  0.4884070000000  0.4251050000000 1.0
C      1  0.5236190000000  0.6110060000000  0.5579340000000 1.0
C      1  0.4896540000000  0.5375530000000  0.5359830000000 1.0
C      1  0.5792660000000  0.5404130000000  0.5015780000000 1.0
C      1  0.5413340000000  0.4085260000000  0.5195380000000 1.0
C      1  0.4939140000000  0.4984810000000  0.4692180000000 1.0
C      1  0.4286760000000  0.5024220000000  0.5660390000000 1.0
C      1  0.5131340000000  0.3878580000000  0.4810810000000 1.0
C      1  0.4720890000000  0.5254390000000  0.5966050000000 1.0
C      1  0.4924270000000  0.4418410000000  0.5643180000000 1.0
C      1  0.4101670000000  0.5021710000000  0.4799230000000 1.0
C      1  0.5306520000000  0.5922250000000  0.4854310000000 1.0
C      1  0.4965400000000  0.5913960000000  0.4528260000000 1.0
C      1  0.4651210000000  0.4294790000000  0.5594360000000 1.0
C      1  0.5567180000000  0.5747560000000  0.5243020000000 1.0
C      1  0.5731840000000  0.4945010000000  0.5474810000000 1.0
C      1  0.4581730000000  0.5095580000000  0.5153470000000 1.0
C      1  0.5460030000000  0.4998140000000  0.5329400000000 1.0
C      1  0.4301790000000  0.4847160000000  0.4388000000000 1.0
C      1  0.4642190000000  0.5886020000000  0.4875390000000 1.0
C      1  0.5352110000000  0.4042130000000  0.4740660000000 1.0
C      1  0.5582380000000  0.4506620000000  0.5513140000000 1.0
C      1  0.4889510000000  0.5652860000000  0.5449960000000 1.0
C      1  0.5573280000000  0.5857290000000  0.4957840000000 1.0
C      1  0.5868030000000  0.5137590000000  0.4902890000000 1.0
C      1  0.4590460000000  0.5615450000000  0.4453800000000 1.0
C      1  0.4538070000000  0.4940730000000  0.4203330000000 1.0
C      1  0.4982160000000  0.5723360000000  0.4921220000000 1.0
C      1  0.5658790000000  0.4477560000000  0.4997460000000 1.0
C      1  0.5305130000000  0.5565410000000  0.5200560000000 1.0
C      1  0.5452740000000  0.4350700000000  0.4368470000000 1.0
C      1  0.4207930000000  0.5333930000000  0.4418690000000 1.0
C      1  0.5262730000000  0.4690310000000  0.4624180000000 1.0
C      1  0.4086170000000  0.4613800000000  0.5411850000000 1.0
C      1  0.5754550000000  0.4781220000000  0.4535970000000 1.0
C      1  0.4420350000000  0.5736760000000  0.4992240000000 1.0
C      1  0.5322320000000  0.5268020000000  0.4122140000000 1.0
C      1  0.4991730000000  0.4897190000000  0.3932910000000 1.0
C      1  0.5131030000000  0.4524520000000  0.4244260000000 1.0
C      1  0.4391540000000  0.4353030000000  0.5691380000000 1.0
C      1  0.4703260000000  0.4116000000000  0.4676560000000 1.0
C      1  0.4843260000000  0.4360970000000  0.4804270000000 1.0
C      1  0.4203560000000  0.5080330000000  0.4533060000000 1.0
C      1  0.4200360000000  0.4638250000000  0.4593760000000 1.0
C      1  0.4954690000000  0.5520440000000  0.4113320000000 1.0
C      1  0.5077030000000  0.5177890000000  0.3979880000000 1.0
C      1  0.4422000000000  0.5269800000000  0.5563310000000 1.0
C      1  0.5167870000000  0.5397050000000  0.5794700000000 1.0
C      1  0.4717900000000  0.4183990000000  0.4383170000000 1.0
C      1  0.5290570000000  0.4188010000000  0.5419240000000 1.0
C      1  0.5457150000000  0.5399540000000  0.5812890000000 1.0
C      1  0.4971050000000  0.5267230000000  0.4693170000000 1.0
C      1  0.5477510000000  0.4265960000000  0.5614700000000 1.0
C      1  0.5606440000000  0.5180800000000  0.4196810000000 1.0
C      1  0.4615390000000  0.4569980000000  0.4718690000000 1.0
C      1  0.4865330000000  0.3887390000000  0.4754120000000 1.0
C      1  0.5109960000000  0.4431640000000  0.4674730000000 1.0
C      1  0.5708860000000  0.5086820000000  0.4657990000000 1.0
C      1  0.4709530000000  0.5840730000000  0.4595980000000 1.0
C      1  0.4656040000000  0.4733250000000  0.5625370000000 1.0
C      1  0.4992190000000  0.4627120000000  0.5838590000000 1.0
C      1  0.4049960000000  0.4746340000000  0.4805410000000 1.0
C      1  0.5520400000000  0.4570150000000  0.4546510000000 1.0
C      1  0.5812370000000  0.5178930000000  0.5652420000000 1.0
C      1  0.5648180000000  0.4735270000000  0.5680580000000 1.0
C      1  0.4780360000000  0.4879360000000  0.5088810000000 1.0
C      1  0.5319710000000  0.4857130000000  0.4873760000000 1.0
C      1  0.5229120000000  0.5866710000000  0.4585680000000 1.0
C      1  0.4641950000000  0.4195280000000  0.5320690000000 1.0
C      1  0.4966730000000  0.4884840000000  0.5964420000000 1.0
END
