TITL C-950527-2551-523 6.62266323968195e-07 125000 -238.16838542174 0 0 40 (C1) n - 1
REM
REM in /home/bkarasulu/work/CARBON/AIRSS/Generating-Clusters/EDIP-Nigel-Params/with-SteepDescent/Only-C1/SD-CG/HFTN-CG
REM
REM
REM
REM
REM
REM ./C.cell (11c1c37f851c82e70ff6c80c92926a4b)
REM
REM compiler GCC version 9.2.1 20190827 (Red Hat 9.2.1-1)
REM options -cpp -mtune=generic -march=x86-64 -g -O0 -fpre-include=/usr/include/finclude/math-vector-fortran.h
REM seed 1652947648 1390729487 -245876454 -1623345586 -1363026523 -20820738 -1053396933 487730194 1190900685 420333884 -1065666603 -786929649 -1666134859 -466243948 -51192265 523326293 -237377336 366685854 -1924433844 -398146351 -1643700072 1621958892 817898019 -2002751522 1041289542 839810488 -1782805821 370320595 -1288104094 -2049861572 2094233759 1844046248 -795355304
REM
CELL 1.54180   50.00000   50.00000   50.00000   90.00000   90.00000   90.00000
LATT -1
SFAC C  
C      1  0.4954000000000  0.5001670000000  0.4472090000000 1.0
C      1  0.4392170000000  0.4524200000000  0.5052230000000 1.0
C      1  0.4536960000000  0.4773330000000  0.5073350000000 1.0
C      1  0.5277850000000  0.5361130000000  0.5134080000000 1.0
C      1  0.4580790000000  0.4386550000000  0.4742620000000 1.0
C      1  0.5265890000000  0.5066270000000  0.5042960000000 1.0
C      1  0.4741210000000  0.4832140000000  0.4576210000000 1.0
C      1  0.5320820000000  0.5048000000000  0.5604840000000 1.0
C      1  0.5526050000000  0.4717250000000  0.4974840000000 1.0
C      1  0.4966980000000  0.5092510000000  0.4853930000000 1.0
C      1  0.5269200000000  0.5366970000000  0.4752970000000 1.0
C      1  0.5246950000000  0.4591760000000  0.4998380000000 1.0
C      1  0.4724630000000  0.4828010000000  0.5305410000000 1.0
C      1  0.4527850000000  0.5027520000000  0.4636180000000 1.0
C      1  0.4575230000000  0.5286360000000  0.4523350000000 1.0
C      1  0.5341830000000  0.4827890000000  0.5406540000000 1.0
C      1  0.5500070000000  0.5261590000000  0.5574040000000 1.0
C      1  0.5014440000000  0.5470620000000  0.4632990000000 1.0
C      1  0.4855500000000  0.5282960000000  0.4471530000000 1.0
C      1  0.5063220000000  0.4474340000000  0.4682480000000 1.0
C      1  0.4518440000000  0.5266540000000  0.5062960000000 1.0
C      1  0.4442300000000  0.5247590000000  0.5331730000000 1.0
C      1  0.4974860000000  0.4952050000000  0.5190320000000 1.0
C      1  0.4794880000000  0.4569760000000  0.4693010000000 1.0
C      1  0.5409140000000  0.5126160000000  0.4633760000000 1.0
C      1  0.5684720000000  0.5114000000000  0.5179760000000 1.0
C      1  0.5276180000000  0.4649320000000  0.4615050000000 1.0
C      1  0.4836080000000  0.5578750000000  0.4827110000000 1.0
C      1  0.5103660000000  0.4696880000000  0.5257400000000 1.0
C      1  0.4441300000000  0.5016440000000  0.4921980000000 1.0
C      1  0.4496400000000  0.4278130000000  0.4983020000000 1.0
C      1  0.4887520000000  0.5252720000000  0.5500930000000 1.0
C      1  0.4809940000000  0.5343190000000  0.5004220000000 1.0
C      1  0.4987260000000  0.5389840000000  0.5250070000000 1.0
C      1  0.5595370000000  0.4990100000000  0.4827240000000 1.0
C      1  0.5066160000000  0.5125940000000  0.5675760000000 1.0
C      1  0.5588930000000  0.4839930000000  0.5239990000000 1.0
C      1  0.5533420000000  0.5329570000000  0.5302410000000 1.0
C      1  0.5228260000000  0.4921130000000  0.4540790000000 1.0
C      1  0.4643550000000  0.5090880000000  0.5451440000000 1.0
END
