TITL C-950534-5965-333 -6.08121763711649e-06 125000 -1119.86110769235 0 0 180 (C1) n - 1
REM
REM in /home/bkarasulu/work/CARBON/AIRSS/Generating-Clusters/EDIP-Nigel-Params/with-SteepDescent/Only-C1/SD-CG/HFTN-CG
REM
REM
REM
REM
REM
REM ./C.cell (11c1c37f851c82e70ff6c80c92926a4b)
REM
REM compiler GCC version 9.2.1 20190827 (Red Hat 9.2.1-1)
REM options -cpp -mtune=generic -march=x86-64 -g -O0 -fpre-include=/usr/include/finclude/math-vector-fortran.h
REM seed 1302862214 1123795975 -1251269842 400301701 717420857 1296530014 -810670751 -171137442 -1524717249 1354766967 1449785352 -1736893966 -804755110 -1108451687 1246771204 -1364260045 1853001137 -2018955303 -1017101272 1324017769 -1140994542 366502865 -623034981 472073378 656198242 364772713 1041455656 1684349737 -1870636549 958014249 1825073632 1656575790 -597285803
REM
CELL 1.54180   50.00000   50.00000   50.00000   90.00000   90.00000   90.00000
LATT -1
SFAC C  
C      1  0.3829020000000  0.4492300000000  0.5171880000000 1.0
C      1  0.5559330000000  0.4200210000000  0.5516690000000 1.0
C      1  0.6066430000000  0.5222070000000  0.4913530000000 1.0
C      1  0.4823760000000  0.4378140000000  0.4947720000000 1.0
C      1  0.5098610000000  0.5029420000000  0.4012860000000 1.0
C      1  0.5114040000000  0.5165060000000  0.5226600000000 1.0
C      1  0.5016060000000  0.3974610000000  0.4613130000000 1.0
C      1  0.5088590000000  0.5281670000000  0.5695350000000 1.0
C      1  0.5466170000000  0.5180640000000  0.5945890000000 1.0
C      1  0.4674970000000  0.5135450000000  0.5637100000000 1.0
C      1  0.4818610000000  0.4278170000000  0.5668010000000 1.0
C      1  0.4935830000000  0.3894640000000  0.4902170000000 1.0
C      1  0.4803840000000  0.4109660000000  0.4448750000000 1.0
C      1  0.4817620000000  0.4751500000000  0.5326790000000 1.0
C      1  0.5069840000000  0.5764780000000  0.5741560000000 1.0
C      1  0.5923220000000  0.5086660000000  0.4189080000000 1.0
C      1  0.5189650000000  0.6162750000000  0.5114540000000 1.0
C      1  0.5206650000000  0.4451960000000  0.5287010000000 1.0
C      1  0.5884850000000  0.4300240000000  0.5083960000000 1.0
C      1  0.5282200000000  0.5488050000000  0.4100800000000 1.0
C      1  0.4404450000000  0.4019790000000  0.4948200000000 1.0
C      1  0.5685530000000  0.4284710000000  0.4616540000000 1.0
C      1  0.4725740000000  0.4581320000000  0.4281170000000 1.0
C      1  0.6203010000000  0.4872130000000  0.4616090000000 1.0
C      1  0.5235230000000  0.5371010000000  0.5955520000000 1.0
C      1  0.4801390000000  0.4200210000000  0.5371830000000 1.0
C      1  0.6089760000000  0.4507420000000  0.4693820000000 1.0
C      1  0.4596120000000  0.4969810000000  0.5386860000000 1.0
C      1  0.5942800000000  0.5239200000000  0.4446500000000 1.0
C      1  0.4317450000000  0.4927110000000  0.4640830000000 1.0
C      1  0.4331370000000  0.5927420000000  0.4932220000000 1.0
C      1  0.5602430000000  0.5777820000000  0.5445260000000 1.0
C      1  0.5256210000000  0.4706600000000  0.4666390000000 1.0
C      1  0.5187770000000  0.4459250000000  0.4842470000000 1.0
C      1  0.4395780000000  0.5550880000000  0.5678240000000 1.0
C      1  0.6000780000000  0.5485880000000  0.4937740000000 1.0
C      1  0.5047910000000  0.5804120000000  0.4380540000000 1.0
C      1  0.5927080000000  0.4288530000000  0.4780810000000 1.0
C      1  0.5603790000000  0.5301680000000  0.5716060000000 1.0
C      1  0.5362460000000  0.5236740000000  0.4862340000000 1.0
C      1  0.4769700000000  0.4904670000000  0.4364150000000 1.0
C      1  0.4726400000000  0.4821770000000  0.4866110000000 1.0
C      1  0.5496790000000  0.4966780000000  0.4340150000000 1.0
C      1  0.5262180000000  0.5251280000000  0.3932410000000 1.0
C      1  0.5308990000000  0.5998370000000  0.5347230000000 1.0
C      1  0.5455960000000  0.5870090000000  0.4855140000000 1.0
C      1  0.3997100000000  0.5223460000000  0.4591220000000 1.0
C      1  0.4923750000000  0.4331010000000  0.4287710000000 1.0
C      1  0.5454290000000  0.4016580000000  0.4988130000000 1.0
C      1  0.4014350000000  0.4634470000000  0.4999880000000 1.0
C      1  0.4829370000000  0.5405170000000  0.4255980000000 1.0
C      1  0.5617720000000  0.4419640000000  0.5962640000000 1.0
C      1  0.6073860000000  0.5067330000000  0.5155880000000 1.0
C      1  0.4562920000000  0.5052430000000  0.4526370000000 1.0
C      1  0.4920220000000  0.5505890000000  0.5014840000000 1.0
C      1  0.4524430000000  0.4502970000000  0.4076110000000 1.0
C      1  0.5486690000000  0.4683860000000  0.5639700000000 1.0
C      1  0.5227490000000  0.6051920000000  0.4825530000000 1.0
C      1  0.4683360000000  0.3958430000000  0.5197860000000 1.0
C      1  0.5692720000000  0.4891240000000  0.4555040000000 1.0
C      1  0.4852630000000  0.5922150000000  0.5353950000000 1.0
C      1  0.5221720000000  0.4200830000000  0.4627950000000 1.0
C      1  0.5115870000000  0.4353000000000  0.5742030000000 1.0
C      1  0.3970980000000  0.5171670000000  0.5144930000000 1.0
C      1  0.4254200000000  0.4394250000000  0.5400460000000 1.0
C      1  0.4705520000000  0.4457860000000  0.5219070000000 1.0
C      1  0.3966810000000  0.5088040000000  0.4851030000000 1.0
C      1  0.5235850000000  0.4928780000000  0.5152520000000 1.0
C      1  0.5657770000000  0.4433980000000  0.5680970000000 1.0
C      1  0.5502400000000  0.4729970000000  0.3968540000000 1.0
C      1  0.4994330000000  0.4767840000000  0.5066850000000 1.0
C      1  0.5623720000000  0.4881660000000  0.5462150000000 1.0
C      1  0.4160620000000  0.5460600000000  0.4510400000000 1.0
C      1  0.5211000000000  0.5633680000000  0.4577250000000 1.0
C      1  0.4771300000000  0.4567350000000  0.4742180000000 1.0
C      1  0.5984780000000  0.5512550000000  0.5389980000000 1.0
C      1  0.4909160000000  0.5616080000000  0.5305900000000 1.0
C      1  0.4594240000000  0.5321900000000  0.4655910000000 1.0
C      1  0.4252370000000  0.4582330000000  0.4152170000000 1.0
C      1  0.4316420000000  0.4829650000000  0.5432510000000 1.0
C      1  0.4768950000000  0.5800630000000  0.4616800000000 1.0
C      1  0.4538070000000  0.4920230000000  0.5994670000000 1.0
C      1  0.5004320000000  0.4785520000000  0.5554030000000 1.0
C      1  0.4562120000000  0.5780300000000  0.5712580000000 1.0
C      1  0.5878170000000  0.4590770000000  0.5166020000000 1.0
C      1  0.4939750000000  0.4691590000000  0.6069370000000 1.0
C      1  0.4609760000000  0.4469110000000  0.5754530000000 1.0
C      1  0.5617720000000  0.4671960000000  0.5069180000000 1.0
C      1  0.5312460000000  0.5641060000000  0.5852240000000 1.0
C      1  0.4351910000000  0.5979920000000  0.5312180000000 1.0
C      1  0.4257680000000  0.5421730000000  0.4224880000000 1.0
C      1  0.5317120000000  0.4148020000000  0.5667820000000 1.0
C      1  0.4671490000000  0.5383990000000  0.6043810000000 1.0
C      1  0.3936870000000  0.4743530000000  0.4495050000000 1.0
C      1  0.4196260000000  0.4186450000000  0.4825620000000 1.0
C      1  0.5771690000000  0.5116790000000  0.5563420000000 1.0
C      1  0.4303490000000  0.5055810000000  0.3957280000000 1.0
C      1  0.5390940000000  0.5655680000000  0.5077540000000 1.0
C      1  0.4508930000000  0.4111740000000  0.4478430000000 1.0
C      1  0.4370590000000  0.4848210000000  0.4144080000000 1.0
C      1  0.4586380000000  0.5956410000000  0.5480470000000 1.0
C      1  0.5597280000000  0.4209770000000  0.5176250000000 1.0
C      1  0.5683800000000  0.5778050000000  0.4565330000000 1.0
C      1  0.4181040000000  0.4849860000000  0.5153630000000 1.0
C      1  0.4693340000000  0.4108220000000  0.4880440000000 1.0
C      1  0.5266270000000  0.5319180000000  0.5430100000000 1.0
C      1  0.4417800000000  0.5374110000000  0.5899440000000 1.0
C      1  0.4802440000000  0.5697780000000  0.5872110000000 1.0
C      1  0.5854820000000  0.5743160000000  0.5291130000000 1.0
C      1  0.4796040000000  0.5486510000000  0.4544580000000 1.0
C      1  0.5680490000000  0.4395800000000  0.4349200000000 1.0
C      1  0.4227700000000  0.4193020000000  0.4528500000000 1.0
C      1  0.5657640000000  0.5184460000000  0.5076420000000 1.0
C      1  0.5944770000000  0.4749940000000  0.4616800000000 1.0
C      1  0.5672850000000  0.5288790000000  0.4727790000000 1.0
C      1  0.4431450000000  0.5420070000000  0.5196690000000 1.0
C      1  0.5970240000000  0.5229440000000  0.5382040000000 1.0
C      1  0.5420710000000  0.4601060000000  0.6065510000000 1.0
C      1  0.5079730000000  0.5984150000000  0.5545550000000 1.0
C      1  0.5642750000000  0.5124660000000  0.4113980000000 1.0
C      1  0.5209170000000  0.5613050000000  0.5350240000000 1.0
C      1  0.4383380000000  0.4980000000000  0.4957980000000 1.0
C      1  0.4138020000000  0.5771210000000  0.5324320000000 1.0
C      1  0.4980460000000  0.4970160000000  0.6135810000000 1.0
C      1  0.4907990000000  0.5054170000000  0.4799150000000 1.0
C      1  0.5581540000000  0.5409050000000  0.5288510000000 1.0
C      1  0.3979450000000  0.4384050000000  0.5366720000000 1.0
C      1  0.5148790000000  0.4488280000000  0.6018580000000 1.0
C      1  0.4939530000000  0.5002650000000  0.5757430000000 1.0
C      1  0.4055200000000  0.5252470000000  0.5427310000000 1.0
C      1  0.4038380000000  0.5018380000000  0.4385220000000 1.0
C      1  0.4875160000000  0.5222780000000  0.5051390000000 1.0
C      1  0.5201560000000  0.5509540000000  0.4877420000000 1.0
C      1  0.4244580000000  0.5476950000000  0.4976070000000 1.0
C      1  0.4253680000000  0.4469940000000  0.4907950000000 1.0
C      1  0.5419020000000  0.4449600000000  0.5083160000000 1.0
C      1  0.4593230000000  0.4484580000000  0.4539210000000 1.0
C      1  0.5322320000000  0.4618520000000  0.4377940000000 1.0
C      1  0.4345570000000  0.5096400000000  0.5839290000000 1.0
C      1  0.5707590000000  0.4618600000000  0.4163070000000 1.0
C      1  0.4974620000000  0.5110710000000  0.4267820000000 1.0
C      1  0.4681380000000  0.4670200000000  0.5945860000000 1.0
C      1  0.4119610000000  0.5741570000000  0.5028080000000 1.0
C      1  0.5931760000000  0.4797930000000  0.4177510000000 1.0
C      1  0.5583660000000  0.4988410000000  0.3868490000000 1.0
C      1  0.4518160000000  0.5228260000000  0.3886460000000 1.0
C      1  0.4469030000000  0.5801500000000  0.4704990000000 1.0
C      1  0.4577430000000  0.5161290000000  0.5149020000000 1.0
C      1  0.5163020000000  0.4016120000000  0.5064930000000 1.0
C      1  0.4098820000000  0.5191740000000  0.4121550000000 1.0
C      1  0.4138140000000  0.4509370000000  0.4423340000000 1.0
C      1  0.4812380000000  0.5442860000000  0.5582810000000 1.0
C      1  0.5208950000000  0.4579930000000  0.5552830000000 1.0
C      1  0.6085430000000  0.4784320000000  0.5153690000000 1.0
C      1  0.5427050000000  0.4883120000000  0.5956000000000 1.0
C      1  0.5553760000000  0.5595240000000  0.5684330000000 1.0
C      1  0.5198940000000  0.5010680000000  0.4714330000000 1.0
C      1  0.6145570000000  0.5147720000000  0.4643950000000 1.0
C      1  0.5829510000000  0.5689100000000  0.5006270000000 1.0
C      1  0.5225570000000  0.4765430000000  0.4056950000000 1.0
C      1  0.4947130000000  0.5912100000000  0.4846260000000 1.0
C      1  0.4370700000000  0.5515720000000  0.4709950000000 1.0
C      1  0.4245520000000  0.5499040000000  0.5424920000000 1.0
C      1  0.4545310000000  0.5395260000000  0.4111870000000 1.0
C      1  0.4339230000000  0.4613400000000  0.4633670000000 1.0
C      1  0.3894940000000  0.4806890000000  0.4785490000000 1.0
C      1  0.5485360000000  0.4091370000000  0.4698060000000 1.0
C      1  0.4888130000000  0.6074380000000  0.5101420000000 1.0
C      1  0.5532580000000  0.4917310000000  0.5183940000000 1.0
C      1  0.4350710000000  0.4509710000000  0.5637890000000 1.0
C      1  0.5088440000000  0.4186520000000  0.5294050000000 1.0
C      1  0.4167090000000  0.5027350000000  0.5598730000000 1.0
C      1  0.5833960000000  0.5878080000000  0.4790400000000 1.0
C      1  0.5647400000000  0.5489620000000  0.4484670000000 1.0
C      1  0.5019590000000  0.5619700000000  0.4146150000000 1.0
C      1  0.4723190000000  0.5106140000000  0.6126250000000 1.0
C      1  0.4411230000000  0.4469700000000  0.5173620000000 1.0
C      1  0.5207910000000  0.4341530000000  0.4362380000000 1.0
C      1  0.5249820000000  0.5135100000000  0.4438990000000 1.0
C      1  0.5352100000000  0.5436590000000  0.4398100000000 1.0
END
