TITL C-951342-2639-171 -1.02343920401613e-06 125000 -537.308828357946 0 0 86 (C1) n - 1
REM
REM in /home/bkarasulu/work/CARBON/AIRSS/Generating-Clusters/EDIP-Nigel-Params/with-SteepDescent/Only-C1/SD-CG/HFTN-CG
REM
REM
REM
REM
REM
REM ./C.cell (11c1c37f851c82e70ff6c80c92926a4b)
REM
REM compiler GCC version 9.2.1 20190827 (Red Hat 9.2.1-1)
REM options -cpp -mtune=generic -march=x86-64 -g -O0 -fpre-include=/usr/include/finclude/math-vector-fortran.h
REM seed -1163839004 -292246305 1185470791 450525752 -496249627 198708581 -172565048 -1560327955 -1150706441 127135048 1646512991 2143468570 157986154 -1347957590 -1309124993 -150949456 125205059 -767594901 -1141505604 791755623 -879004706 756044265 1726953907 478203136 -1718609628 -127033023 -1171469670 1948964628 -551043038 122990843 -712669529 1161891059 2000692107
REM
CELL 1.54180   50.00000   50.00000   50.00000   90.00000   90.00000   90.00000
LATT -1
SFAC C  
C      1  0.4505630000000  0.4877030000000  0.4388400000000 1.0
C      1  0.5659500000000  0.4493080000000  0.4976630000000 1.0
C      1  0.4832240000000  0.4665340000000  0.5630620000000 1.0
C      1  0.4793190000000  0.5768390000000  0.4762590000000 1.0
C      1  0.5253640000000  0.5062050000000  0.4684700000000 1.0
C      1  0.5373540000000  0.5186230000000  0.4219140000000 1.0
C      1  0.4588470000000  0.5366390000000  0.4415760000000 1.0
C      1  0.5841780000000  0.5291660000000  0.5169580000000 1.0
C      1  0.5058060000000  0.4586390000000  0.5447430000000 1.0
C      1  0.4775160000000  0.5724560000000  0.5583780000000 1.0
C      1  0.5241550000000  0.5578040000000  0.5526410000000 1.0
C      1  0.4412440000000  0.5324920000000  0.5736590000000 1.0
C      1  0.4256780000000  0.5350390000000  0.4942620000000 1.0
C      1  0.5498240000000  0.4427600000000  0.5437630000000 1.0
C      1  0.5023760000000  0.4860720000000  0.4066400000000 1.0
C      1  0.5319800000000  0.4212730000000  0.5320260000000 1.0
C      1  0.4556250000000  0.4683550000000  0.5507690000000 1.0
C      1  0.5458060000000  0.5526980000000  0.5317220000000 1.0
C      1  0.5271820000000  0.5609820000000  0.4831110000000 1.0
C      1  0.4843100000000  0.4222740000000  0.4541220000000 1.0
C      1  0.5032260000000  0.4297600000000  0.5350910000000 1.0
C      1  0.4893850000000  0.5110400000000  0.4144230000000 1.0
C      1  0.4915910000000  0.4859280000000  0.5835180000000 1.0
C      1  0.4897620000000  0.4300310000000  0.5081840000000 1.0
C      1  0.4531530000000  0.4495650000000  0.4796220000000 1.0
C      1  0.5107230000000  0.5325260000000  0.4163190000000 1.0
C      1  0.4981930000000  0.5607510000000  0.5170650000000 1.0
C      1  0.5456380000000  0.4335600000000  0.4871700000000 1.0
C      1  0.5030530000000  0.5748700000000  0.4923260000000 1.0
C      1  0.4301870000000  0.4699550000000  0.4817690000000 1.0
C      1  0.5424450000000  0.5429210000000  0.5020220000000 1.0
C      1  0.5011660000000  0.4556670000000  0.4957190000000 1.0
C      1  0.5067510000000  0.5060780000000  0.5184080000000 1.0
C      1  0.4812860000000  0.4954310000000  0.4834580000000 1.0
C      1  0.5451970000000  0.4935690000000  0.5745830000000 1.0
C      1  0.4380460000000  0.5428030000000  0.5472340000000 1.0
C      1  0.5166500000000  0.4463730000000  0.4282610000000 1.0
C      1  0.5329760000000  0.4759400000000  0.4623350000000 1.0
C      1  0.5384460000000  0.4138550000000  0.5055370000000 1.0
C      1  0.4644500000000  0.5074780000000  0.5489750000000 1.0
C      1  0.4842780000000  0.5380360000000  0.4556250000000 1.0
C      1  0.4563910000000  0.4635050000000  0.5220960000000 1.0
C      1  0.4586360000000  0.5057970000000  0.4982000000000 1.0
C      1  0.5312930000000  0.5124050000000  0.4984980000000 1.0
C      1  0.5319080000000  0.4897020000000  0.4132580000000 1.0
C      1  0.4606590000000  0.4371260000000  0.4523080000000 1.0
C      1  0.5054450000000  0.5520930000000  0.4388790000000 1.0
C      1  0.4919880000000  0.4609230000000  0.4187140000000 1.0
C      1  0.5648450000000  0.5315810000000  0.5410020000000 1.0
C      1  0.5208770000000  0.4849580000000  0.5879820000000 1.0
C      1  0.4297480000000  0.4909230000000  0.4609000000000 1.0
C      1  0.4617490000000  0.5260920000000  0.5911670000000 1.0
C      1  0.5014460000000  0.5737160000000  0.5429350000000 1.0
C      1  0.5108330000000  0.4320060000000  0.4532430000000 1.0
C      1  0.5706880000000  0.5410830000000  0.4923990000000 1.0
C      1  0.5901190000000  0.5010040000000  0.5096210000000 1.0
C      1  0.4329030000000  0.5609500000000  0.4865920000000 1.0
C      1  0.4709920000000  0.5511370000000  0.5166380000000 1.0
C      1  0.4225940000000  0.4983820000000  0.5286290000000 1.0
C      1  0.4960440000000  0.5117030000000  0.4647460000000 1.0
C      1  0.4737880000000  0.5190940000000  0.5202270000000 1.0
C      1  0.5766330000000  0.4832170000000  0.5295570000000 1.0
C      1  0.4620890000000  0.5125620000000  0.4269730000000 1.0
C      1  0.4692530000000  0.4634120000000  0.4392230000000 1.0
C      1  0.5683300000000  0.4562780000000  0.5247070000000 1.0
C      1  0.5233360000000  0.4493100000000  0.4752000000000 1.0
C      1  0.5046680000000  0.5284760000000  0.5678850000000 1.0
C      1  0.4398920000000  0.4838090000000  0.5076700000000 1.0
C      1  0.4601420000000  0.5630050000000  0.4918950000000 1.0
C      1  0.5467920000000  0.5086100000000  0.5498370000000 1.0
C      1  0.5320990000000  0.4604750000000  0.5599830000000 1.0
C      1  0.5712770000000  0.5241820000000  0.4674070000000 1.0
C      1  0.5773740000000  0.4981770000000  0.4805570000000 1.0
C      1  0.5203330000000  0.5199600000000  0.5439810000000 1.0
C      1  0.4803100000000  0.4670330000000  0.4767230000000 1.0
C      1  0.4235590000000  0.5158950000000  0.4733920000000 1.0
C      1  0.4282570000000  0.5268120000000  0.5231070000000 1.0
C      1  0.5307130000000  0.5529860000000  0.4550270000000 1.0
C      1  0.4369940000000  0.4929700000000  0.5541510000000 1.0
C      1  0.5432510000000  0.5252840000000  0.4521070000000 1.0
C      1  0.4811500000000  0.5125840000000  0.5742130000000 1.0
C      1  0.5538360000000  0.4889290000000  0.4989190000000 1.0
C      1  0.5072990000000  0.4751610000000  0.5193550000000 1.0
C      1  0.4582920000000  0.5625550000000  0.5403160000000 1.0
C      1  0.5372920000000  0.4681380000000  0.4338120000000 1.0
C      1  0.4609800000000  0.4380030000000  0.5077500000000 1.0
END
