TITL C-951342-2639-28 -1.14249048446564e-06 125000 -431.964825463078 0 0 70 (C1) n - 1
REM
REM in /home/bkarasulu/work/CARBON/AIRSS/Generating-Clusters/EDIP-Nigel-Params/with-SteepDescent/Only-C1/SD-CG/HFTN-CG
REM
REM
REM
REM
REM
REM ./C.cell (11c1c37f851c82e70ff6c80c92926a4b)
REM
REM compiler GCC version 9.2.1 20190827 (Red Hat 9.2.1-1)
REM options -cpp -mtune=generic -march=x86-64 -g -O0 -fpre-include=/usr/include/finclude/math-vector-fortran.h
REM seed 1018576616 -798460746 2067376957 1770312006 -101872700 275224574 -581416912 1041176812 -246883228 1768176838 1714217965 1947044341 -755012722 319145057 1558138977 -1741197230 1185386516 -1541014825 -1327067136 1262053704 450246483 -1182538311 1770992543 -225941348 -1770092990 764463414 -1808549843 1952367347 918434252 728013808 -1987458589 1929946004 1767854757
REM
CELL 1.54180   50.00000   50.00000   50.00000   90.00000   90.00000   90.00000
LATT -1
SFAC C  
C      1  0.5467440000000  0.5564070000000  0.4666070000000 1.0
C      1  0.5573040000000  0.5171080000000  0.5340980000000 1.0
C      1  0.4380800000000  0.5091810000000  0.5066300000000 1.0
C      1  0.5471980000000  0.5438320000000  0.5385500000000 1.0
C      1  0.5273760000000  0.5030790000000  0.5732740000000 1.0
C      1  0.5490660000000  0.4958550000000  0.5530640000000 1.0
C      1  0.5198450000000  0.5462470000000  0.5479020000000 1.0
C      1  0.4568380000000  0.5282410000000  0.5647050000000 1.0
C      1  0.5025270000000  0.5253480000000  0.4934870000000 1.0
C      1  0.5655010000000  0.4777160000000  0.4706700000000 1.0
C      1  0.4584270000000  0.4746050000000  0.4781220000000 1.0
C      1  0.4416970000000  0.4971670000000  0.4248920000000 1.0
C      1  0.4867280000000  0.4779060000000  0.5587740000000 1.0
C      1  0.5140340000000  0.4796640000000  0.4738450000000 1.0
C      1  0.5164910000000  0.4864470000000  0.5229720000000 1.0
C      1  0.4486890000000  0.5009120000000  0.5588340000000 1.0
C      1  0.4970480000000  0.4288400000000  0.5242640000000 1.0
C      1  0.4425910000000  0.5485970000000  0.5518380000000 1.0
C      1  0.5572620000000  0.5443640000000  0.4913750000000 1.0
C      1  0.4483290000000  0.4463230000000  0.4839940000000 1.0
C      1  0.4387990000000  0.4966300000000  0.4798090000000 1.0
C      1  0.5407130000000  0.4613020000000  0.4704480000000 1.0
C      1  0.4956580000000  0.5014550000000  0.5386700000000 1.0
C      1  0.4749130000000  0.4841090000000  0.4386900000000 1.0
C      1  0.4480600000000  0.4431960000000  0.5149860000000 1.0
C      1  0.5347360000000  0.4461170000000  0.4441370000000 1.0
C      1  0.4571870000000  0.4748570000000  0.4195460000000 1.0
C      1  0.4915210000000  0.5275840000000  0.4370060000000 1.0
C      1  0.5198950000000  0.4687300000000  0.4291860000000 1.0
C      1  0.5186600000000  0.5188180000000  0.4447440000000 1.0
C      1  0.5158600000000  0.5091190000000  0.4726790000000 1.0
C      1  0.5035310000000  0.5562920000000  0.4910010000000 1.0
C      1  0.5033590000000  0.4715330000000  0.5008750000000 1.0
C      1  0.5066510000000  0.5222040000000  0.5597340000000 1.0
C      1  0.4700930000000  0.4233140000000  0.4821570000000 1.0
C      1  0.5376570000000  0.4727710000000  0.5379020000000 1.0
C      1  0.4625370000000  0.4818130000000  0.5742310000000 1.0
C      1  0.5105710000000  0.4419320000000  0.5008560000000 1.0
C      1  0.4414290000000  0.4915440000000  0.5311350000000 1.0
C      1  0.5127050000000  0.4767540000000  0.5772080000000 1.0
C      1  0.4394340000000  0.5545550000000  0.5247760000000 1.0
C      1  0.4744810000000  0.4810230000000  0.5028600000000 1.0
C      1  0.4974370000000  0.4324020000000  0.4758930000000 1.0
C      1  0.4655660000000  0.5344390000000  0.4468950000000 1.0
C      1  0.5558110000000  0.4620210000000  0.5154690000000 1.0
C      1  0.5410290000000  0.4440380000000  0.4962070000000 1.0
C      1  0.5711850000000  0.4946630000000  0.4493320000000 1.0
C      1  0.5100760000000  0.4308930000000  0.4500380000000 1.0
C      1  0.4594820000000  0.4682940000000  0.5257360000000 1.0
C      1  0.5318970000000  0.4959530000000  0.4284730000000 1.0
C      1  0.4819150000000  0.5116270000000  0.5112760000000 1.0
C      1  0.5080020000000  0.5682530000000  0.5334650000000 1.0
C      1  0.4623430000000  0.5542490000000  0.4661730000000 1.0
C      1  0.5693790000000  0.4840030000000  0.4990580000000 1.0
C      1  0.4813350000000  0.5763160000000  0.5343000000000 1.0
C      1  0.4695430000000  0.4209170000000  0.5135200000000 1.0
C      1  0.4831450000000  0.5304740000000  0.5750170000000 1.0
C      1  0.5507840000000  0.5607780000000  0.5146610000000 1.0
C      1  0.4272000000000  0.5348260000000  0.5092430000000 1.0
C      1  0.4442580000000  0.5143410000000  0.4480270000000 1.0
C      1  0.4631200000000  0.5682510000000  0.5147780000000 1.0
C      1  0.5259980000000  0.5764500000000  0.5128030000000 1.0
C      1  0.5683470000000  0.5119840000000  0.5076990000000 1.0
C      1  0.4751760000000  0.5651890000000  0.4882490000000 1.0
C      1  0.5238840000000  0.4546910000000  0.5588290000000 1.0
C      1  0.5598780000000  0.4971030000000  0.4249980000000 1.0
C      1  0.4970400000000  0.4678950000000  0.4498080000000 1.0
C      1  0.4988980000000  0.4424290000000  0.5496270000000 1.0
C      1  0.5388340000000  0.5405460000000  0.4433270000000 1.0
C      1  0.5182130000000  0.5634840000000  0.4665670000000 1.0
END
