TITL C-951342-2639-223 4.82711266222704e-07 125000 -115.54862971707 0 0 21 (C1) n - 1
REM
REM in /home/bkarasulu/work/CARBON/AIRSS/Generating-Clusters/EDIP-Nigel-Params/with-SteepDescent/Only-C1/SD-CG/HFTN-CG
REM
REM
REM
REM
REM
REM ./C.cell (11c1c37f851c82e70ff6c80c92926a4b)
REM
REM compiler GCC version 9.2.1 20190827 (Red Hat 9.2.1-1)
REM options -cpp -mtune=generic -march=x86-64 -g -O0 -fpre-include=/usr/include/finclude/math-vector-fortran.h
REM seed 216113206 1188119072 539353802 1186713877 -1957902199 1111353375 -1746292964 -943689755 631694743 763383014 -419530483 225173275 2051005466 -2099274213 1623787554 1444063337 -961036321 1514664607 -1756008328 1733241575 624335587 1908148310 -1472122302 619410728 -58180471 -1363062137 750728762 -645316056 1383305529 -1839594712 -847966764 -1547069501 -1971278333
REM
CELL 1.54180   50.00000   50.00000   50.00000   90.00000   90.00000   90.00000
LATT -1
SFAC C  
C      1  0.4674430000000  0.4656740000000  0.5163660000000 1.0
C      1  0.5340410000000  0.5017800000000  0.5404540000000 1.0
C      1  0.5072710000000  0.4495240000000  0.5058040000000 1.0
C      1  0.5072490000000  0.4667150000000  0.4839880000000 1.0
C      1  0.4990750000000  0.5128010000000  0.5097140000000 1.0
C      1  0.5256550000000  0.5357060000000  0.4785920000000 1.0
C      1  0.4881990000000  0.4483800000000  0.5250730000000 1.0
C      1  0.4852150000000  0.5216740000000  0.4526830000000 1.0
C      1  0.4573710000000  0.5025970000000  0.4895910000000 1.0
C      1  0.4679770000000  0.5244640000000  0.4740920000000 1.0
C      1  0.5015960000000  0.5408630000000  0.4641410000000 1.0
C      1  0.4710270000000  0.4769810000000  0.4896540000000 1.0
C      1  0.5445630000000  0.5123840000000  0.5177700000000 1.0
C      1  0.5104530000000  0.4939600000000  0.5514880000000 1.0
C      1  0.4901140000000  0.5048830000000  0.5351850000000 1.0
C      1  0.4633910000000  0.4911890000000  0.5321040000000 1.0
C      1  0.5386320000000  0.4880550000000  0.4565060000000 1.0
C      1  0.5419520000000  0.5557820000000  0.4842690000000 1.0
C      1  0.4467420000000  0.5079630000000  0.5154480000000 1.0
C      1  0.5246500000000  0.5119340000000  0.4965850000000 1.0
C      1  0.5273850000000  0.4866890000000  0.4804920000000 1.0
END
