TITL C-951346-9544-695 -4.25341481003207e-06 125000 -562.983855658194 0 0 92 (C1) n - 1
REM
REM in /home/bkarasulu/work/CARBON/AIRSS/Generating-Clusters/EDIP-Nigel-Params/with-SteepDescent/Only-C1/SD-CG/HFTN-CG
REM
REM
REM
REM
REM
REM ./C.cell (11c1c37f851c82e70ff6c80c92926a4b)
REM
REM compiler GCC version 9.2.1 20190827 (Red Hat 9.2.1-1)
REM options -cpp -mtune=generic -march=x86-64 -g -O0 -fpre-include=/usr/include/finclude/math-vector-fortran.h
REM seed -1685103479 569412860 -1033303316 -1820832915 -1963442965 1398341796 187507319 -1661615632 -2021300582 -2106502462 -542195369 -1352120906 -1925280844 140027171 465624245 -902596648 126074648 -1193630972 212543662 586003700 -693089004 1612721387 1864835152 -957912822 1009335746 1184532372 -478083884 22220377 1918274670 -1850251043 2127621304 -1584686259 -2135467244
REM
CELL 1.54180   50.00000   50.00000   50.00000   90.00000   90.00000   90.00000
LATT -1
SFAC C  
C      1  0.5251610000000  0.4651830000000  0.5083300000000 1.0
C      1  0.5611480000000  0.5516140000000  0.4751460000000 1.0
C      1  0.4835660000000  0.4637810000000  0.4862140000000 1.0
C      1  0.4499480000000  0.5104110000000  0.5661770000000 1.0
C      1  0.5030030000000  0.4764150000000  0.5238390000000 1.0
C      1  0.5208160000000  0.4970560000000  0.4649170000000 1.0
C      1  0.4464300000000  0.5552130000000  0.4726030000000 1.0
C      1  0.4436930000000  0.5207400000000  0.4366780000000 1.0
C      1  0.5015570000000  0.5350800000000  0.4853680000000 1.0
C      1  0.5604530000000  0.5397080000000  0.5540720000000 1.0
C      1  0.4940380000000  0.4743110000000  0.5729570000000 1.0
C      1  0.5486580000000  0.4675710000000  0.5549680000000 1.0
C      1  0.4560990000000  0.5757080000000  0.5202550000000 1.0
C      1  0.5612940000000  0.4400880000000  0.5107990000000 1.0
C      1  0.5362170000000  0.5157700000000  0.4839990000000 1.0
C      1  0.4586030000000  0.5398890000000  0.4226030000000 1.0
C      1  0.4215520000000  0.5109540000000  0.5081550000000 1.0
C      1  0.4514120000000  0.4264710000000  0.5066010000000 1.0
C      1  0.5206240000000  0.5741580000000  0.4818910000000 1.0
C      1  0.4413290000000  0.5611490000000  0.5002800000000 1.0
C      1  0.5780140000000  0.4861290000000  0.5224730000000 1.0
C      1  0.4804700000000  0.4579530000000  0.5174870000000 1.0
C      1  0.5730040000000  0.5275810000000  0.4619220000000 1.0
C      1  0.4681580000000  0.4643770000000  0.5649200000000 1.0
C      1  0.4418950000000  0.4737640000000  0.4577870000000 1.0
C      1  0.4868010000000  0.5463580000000  0.5320690000000 1.0
C      1  0.5462400000000  0.4970080000000  0.4362430000000 1.0
C      1  0.5236350000000  0.4874240000000  0.4222570000000 1.0
C      1  0.4497630000000  0.4919950000000  0.4326680000000 1.0
C      1  0.5695420000000  0.4754470000000  0.4773280000000 1.0
C      1  0.4411280000000  0.4428110000000  0.4561140000000 1.0
C      1  0.5242660000000  0.4266630000000  0.5436300000000 1.0
C      1  0.4813310000000  0.5138020000000  0.5356480000000 1.0
C      1  0.4820190000000  0.5845730000000  0.5106180000000 1.0
C      1  0.4980090000000  0.5158900000000  0.4625160000000 1.0
C      1  0.5267740000000  0.5121380000000  0.5622660000000 1.0
C      1  0.4637470000000  0.4788070000000  0.4748980000000 1.0
C      1  0.5288790000000  0.4580440000000  0.4458530000000 1.0
C      1  0.5179040000000  0.4223930000000  0.4745390000000 1.0
C      1  0.4798450000000  0.4179910000000  0.5112630000000 1.0
C      1  0.5012100000000  0.5820360000000  0.5319880000000 1.0
C      1  0.5208400000000  0.5193280000000  0.5116420000000 1.0
C      1  0.5448810000000  0.4333360000000  0.4847330000000 1.0
C      1  0.5366130000000  0.5753380000000  0.5064210000000 1.0
C      1  0.5346620000000  0.5553280000000  0.4650090000000 1.0
C      1  0.4971830000000  0.5024150000000  0.5147410000000 1.0
C      1  0.4400000000000  0.4433100000000  0.5259730000000 1.0
C      1  0.4805390000000  0.5508430000000  0.4362690000000 1.0
C      1  0.4523410000000  0.4841570000000  0.5507720000000 1.0
C      1  0.4599480000000  0.4300170000000  0.4401370000000 1.0
C      1  0.4760010000000  0.4865040000000  0.4186080000000 1.0
C      1  0.5507750000000  0.4843740000000  0.5785060000000 1.0
C      1  0.5519490000000  0.5127710000000  0.5798730000000 1.0
C      1  0.5488160000000  0.4819590000000  0.5293670000000 1.0
C      1  0.4958500000000  0.5030880000000  0.5645170000000 1.0
C      1  0.4736330000000  0.5617330000000  0.4637380000000 1.0
C      1  0.4758760000000  0.5195350000000  0.5803620000000 1.0
C      1  0.5150320000000  0.4345060000000  0.5166920000000 1.0
C      1  0.5801100000000  0.5131270000000  0.5099540000000 1.0
C      1  0.4997750000000  0.4082380000000  0.4922120000000 1.0
C      1  0.4411140000000  0.4303320000000  0.4810350000000 1.0
C      1  0.4748830000000  0.5414640000000  0.5031130000000 1.0
C      1  0.5515830000000  0.4544940000000  0.4654280000000 1.0
C      1  0.4913610000000  0.5769070000000  0.4832020000000 1.0
C      1  0.4432340000000  0.5327150000000  0.5481510000000 1.0
C      1  0.5099010000000  0.5516390000000  0.5697530000000 1.0
C      1  0.5303370000000  0.5425160000000  0.4392370000000 1.0
C      1  0.5022080000000  0.5297430000000  0.4369170000000 1.0
C      1  0.5606390000000  0.5582050000000  0.5045480000000 1.0
C      1  0.5367340000000  0.5084310000000  0.5343730000000 1.0
C      1  0.5001150000000  0.5042800000000  0.4195870000000 1.0
C      1  0.5278070000000  0.5893310000000  0.5290220000000 1.0
C      1  0.4820310000000  0.5483700000000  0.5755940000000 1.0
C      1  0.4629280000000  0.5553310000000  0.5508990000000 1.0
C      1  0.5044830000000  0.4393740000000  0.5606230000000 1.0
C      1  0.5665670000000  0.5066580000000  0.4831900000000 1.0
C      1  0.4381770000000  0.5285620000000  0.4639780000000 1.0
C      1  0.4180990000000  0.4840970000000  0.4730370000000 1.0
C      1  0.4187970000000  0.5128590000000  0.4789190000000 1.0
C      1  0.4832360000000  0.4596080000000  0.4151030000000 1.0
C      1  0.4852050000000  0.4377490000000  0.4321010000000 1.0
C      1  0.4460280000000  0.5225700000000  0.5205330000000 1.0
C      1  0.5508830000000  0.4395260000000  0.5423830000000 1.0
C      1  0.5545920000000  0.5242270000000  0.4374030000000 1.0
C      1  0.4190540000000  0.4825490000000  0.5112560000000 1.0
C      1  0.4337360000000  0.4699210000000  0.5324070000000 1.0
C      1  0.5683340000000  0.5374110000000  0.5245280000000 1.0
C      1  0.5129750000000  0.4700610000000  0.4794210000000 1.0
C      1  0.5366000000000  0.5531650000000  0.5627890000000 1.0
C      1  0.5081200000000  0.4377580000000  0.4506890000000 1.0
C      1  0.4779520000000  0.4421420000000  0.5480230000000 1.0
C      1  0.5792290000000  0.4636420000000  0.5028930000000 1.0
END
