TITL C-950524-1808-175 -7.78820352795774e-08 125000 -1240.79294153334 0 0 198 (C1) n - 1
REM
REM in /home/bkarasulu/work/CARBON/AIRSS/Generating-Clusters/EDIP-Nigel-Params/with-SteepDescent/Only-C1/SD-CG/HFTN-CG
REM
REM
REM
REM
REM
REM ./C.cell (11c1c37f851c82e70ff6c80c92926a4b)
REM
REM compiler GCC version 9.2.1 20190827 (Red Hat 9.2.1-1)
REM options -cpp -mtune=generic -march=x86-64 -g -O0 -fpre-include=/usr/include/finclude/math-vector-fortran.h
REM seed -1108707040 167662720 511280149 1151258694 -426984 1499373069 960732444 -2045685989 -2014314487 1876458187 -3715422 -1980867597 -1176672075 605005404 1448595114 -1204905911 1383483583 -1086028964 -662085597 771792120 -1359630209 -1712181112 -1820073945 1152882032 219794296 320430386 672090516 -1103985910 -1819010865 254909957 1701402133 -1828977181 -923994176
REM
CELL 1.54180   50.00000   50.00000   50.00000   90.00000   90.00000   90.00000
LATT -1
SFAC C  
C      1  0.4713140000000  0.5471520000000  0.5212780000000 1.0
C      1  0.3954140000000  0.4867180000000  0.5138470000000 1.0
C      1  0.5479270000000  0.3980230000000  0.5326370000000 1.0
C      1  0.6123550000000  0.5318210000000  0.4781050000000 1.0
C      1  0.4586350000000  0.5869470000000  0.5555640000000 1.0
C      1  0.4776290000000  0.5022640000000  0.5303810000000 1.0
C      1  0.4969650000000  0.4780470000000  0.5231140000000 1.0
C      1  0.4907950000000  0.3877540000000  0.4539100000000 1.0
C      1  0.4942460000000  0.4474030000000  0.4033490000000 1.0
C      1  0.5590940000000  0.4619300000000  0.4947030000000 1.0
C      1  0.5116710000000  0.5658430000000  0.5997850000000 1.0
C      1  0.4645500000000  0.4545680000000  0.6018840000000 1.0
C      1  0.4809570000000  0.5119490000000  0.5598390000000 1.0
C      1  0.5055070000000  0.4229150000000  0.4758330000000 1.0
C      1  0.5171510000000  0.5371780000000  0.6037510000000 1.0
C      1  0.4531180000000  0.5449060000000  0.4107000000000 1.0
C      1  0.5758660000000  0.5779280000000  0.5479620000000 1.0
C      1  0.5295350000000  0.4610620000000  0.4928440000000 1.0
C      1  0.5232110000000  0.4442500000000  0.3912570000000 1.0
C      1  0.5208400000000  0.4944040000000  0.3874570000000 1.0
C      1  0.5732330000000  0.4995970000000  0.4130850000000 1.0
C      1  0.5996400000000  0.4487070000000  0.4833870000000 1.0
C      1  0.4794000000000  0.4933370000000  0.4632220000000 1.0
C      1  0.4199610000000  0.4690280000000  0.5863060000000 1.0
C      1  0.4338610000000  0.5421090000000  0.4794900000000 1.0
C      1  0.5241910000000  0.5243120000000  0.3776010000000 1.0
C      1  0.5882250000000  0.5464650000000  0.4754910000000 1.0
C      1  0.5423390000000  0.5596200000000  0.5207730000000 1.0
C      1  0.6036540000000  0.4716330000000  0.4398530000000 1.0
C      1  0.5157610000000  0.5250510000000  0.5303610000000 1.0
C      1  0.5435880000000  0.5420880000000  0.3929200000000 1.0
C      1  0.5213700000000  0.6003290000000  0.5383210000000 1.0
C      1  0.5037640000000  0.5576400000000  0.5576440000000 1.0
C      1  0.4157770000000  0.5125960000000  0.5781870000000 1.0
C      1  0.4768960000000  0.4622720000000  0.5056260000000 1.0
C      1  0.6053160000000  0.4682410000000  0.5441150000000 1.0
C      1  0.4385840000000  0.4609350000000  0.4700440000000 1.0
C      1  0.5231160000000  0.4330940000000  0.5092000000000 1.0
C      1  0.5626490000000  0.4504320000000  0.5690070000000 1.0
C      1  0.5465850000000  0.5263730000000  0.4915940000000 1.0
C      1  0.4732900000000  0.5663830000000  0.4130130000000 1.0
C      1  0.3862530000000  0.5267710000000  0.4767620000000 1.0
C      1  0.5238100000000  0.5032870000000  0.4167530000000 1.0
C      1  0.5184390000000  0.5316910000000  0.4500930000000 1.0
C      1  0.5715570000000  0.5001600000000  0.4608070000000 1.0
C      1  0.4344080000000  0.5360010000000  0.5819790000000 1.0
C      1  0.5406160000000  0.5263020000000  0.5923180000000 1.0
C      1  0.4396720000000  0.4355940000000  0.5576760000000 1.0
C      1  0.5613020000000  0.4533310000000  0.5241190000000 1.0
C      1  0.6006360000000  0.5604060000000  0.5428980000000 1.0
C      1  0.4530670000000  0.4210590000000  0.4176360000000 1.0
C      1  0.5601370000000  0.4486510000000  0.4219560000000 1.0
C      1  0.5572520000000  0.4152190000000  0.4574150000000 1.0
C      1  0.5350400000000  0.5812650000000  0.4275270000000 1.0
C      1  0.5296950000000  0.5798460000000  0.5766650000000 1.0
C      1  0.5162710000000  0.5817750000000  0.4502570000000 1.0
C      1  0.4285310000000  0.4259420000000  0.5120070000000 1.0
C      1  0.4511610000000  0.6073010000000  0.4719810000000 1.0
C      1  0.5641310000000  0.4105210000000  0.4856300000000 1.0
C      1  0.6092310000000  0.5621800000000  0.5141630000000 1.0
C      1  0.5189480000000  0.4514680000000  0.4444580000000 1.0
C      1  0.4200940000000  0.4943270000000  0.6008450000000 1.0
C      1  0.5854300000000  0.4267840000000  0.4981330000000 1.0
C      1  0.5903490000000  0.4961590000000  0.4377510000000 1.0
C      1  0.5872250000000  0.4244730000000  0.5265940000000 1.0
C      1  0.4987310000000  0.6042670000000  0.4593290000000 1.0
C      1  0.5177270000000  0.5714730000000  0.5347800000000 1.0
C      1  0.3944260000000  0.5524830000000  0.5203810000000 1.0
C      1  0.4562470000000  0.4388580000000  0.4604230000000 1.0
C      1  0.4291940000000  0.5886180000000  0.4656080000000 1.0
C      1  0.5582580000000  0.5357610000000  0.5328340000000 1.0
C      1  0.4900220000000  0.5412480000000  0.4579890000000 1.0
C      1  0.4798100000000  0.4874120000000  0.5764720000000 1.0
C      1  0.5647260000000  0.4719110000000  0.4009760000000 1.0
C      1  0.6120600000000  0.4726460000000  0.4954360000000 1.0
C      1  0.5375790000000  0.5773700000000  0.4730580000000 1.0
C      1  0.5388420000000  0.4699540000000  0.3846180000000 1.0
C      1  0.4666900000000  0.5261310000000  0.4312000000000 1.0
C      1  0.5106800000000  0.4634940000000  0.5449790000000 1.0
C      1  0.5534200000000  0.4891500000000  0.5360520000000 1.0
C      1  0.4673620000000  0.3850500000000  0.4727990000000 1.0
C      1  0.4932530000000  0.4937400000000  0.6223480000000 1.0
C      1  0.5165220000000  0.3870050000000  0.4670930000000 1.0
C      1  0.4504900000000  0.4717590000000  0.5127370000000 1.0
C      1  0.5357110000000  0.4749540000000  0.6026970000000 1.0
C      1  0.6067740000000  0.4856010000000  0.5209610000000 1.0
C      1  0.4094420000000  0.5377250000000  0.4630620000000 1.0
C      1  0.5428870000000  0.6046450000000  0.5174880000000 1.0
C      1  0.3844410000000  0.4994730000000  0.4654700000000 1.0
C      1  0.4711680000000  0.6021510000000  0.4495070000000 1.0
C      1  0.4435710000000  0.5130790000000  0.4876850000000 1.0
C      1  0.5144500000000  0.4122620000000  0.5664300000000 1.0
C      1  0.5205480000000  0.4848340000000  0.5068080000000 1.0
C      1  0.4645510000000  0.6013200000000  0.4995230000000 1.0
C      1  0.4273900000000  0.5507840000000  0.4246330000000 1.0
C      1  0.5993570000000  0.5310790000000  0.5484590000000 1.0
C      1  0.4215960000000  0.5620970000000  0.5724680000000 1.0
C      1  0.4109150000000  0.4740610000000  0.4304540000000 1.0
C      1  0.4365800000000  0.5860860000000  0.5737030000000 1.0
C      1  0.5933870000000  0.4413240000000  0.5488570000000 1.0
C      1  0.4403670000000  0.4492280000000  0.5841580000000 1.0
C      1  0.3950070000000  0.4532350000000  0.5160110000000 1.0
C      1  0.5763890000000  0.4317520000000  0.4415430000000 1.0
C      1  0.5301320000000  0.6019740000000  0.4906480000000 1.0
C      1  0.4760150000000  0.4647510000000  0.3877960000000 1.0
C      1  0.4481560000000  0.5394530000000  0.5368050000000 1.0
C      1  0.5567480000000  0.5677100000000  0.4403590000000 1.0
C      1  0.4158820000000  0.5245080000000  0.4372580000000 1.0
C      1  0.4679780000000  0.5741230000000  0.4406100000000 1.0
C      1  0.5096400000000  0.4525660000000  0.4716280000000 1.0
C      1  0.4306810000000  0.4554590000000  0.4997550000000 1.0
C      1  0.4969400000000  0.3907150000000  0.5133490000000 1.0
C      1  0.4606510000000  0.4168390000000  0.5496980000000 1.0
C      1  0.6098090000000  0.5149840000000  0.5256530000000 1.0
C      1  0.3944760000000  0.4536640000000  0.4773240000000 1.0
C      1  0.5397100000000  0.4287610000000  0.4103840000000 1.0
C      1  0.4748760000000  0.4214700000000  0.4778850000000 1.0
C      1  0.5858310000000  0.5685980000000  0.4968300000000 1.0
C      1  0.4385640000000  0.4272450000000  0.4407210000000 1.0
C      1  0.5258100000000  0.4215900000000  0.4375960000000 1.0
C      1  0.4819220000000  0.5678670000000  0.5971840000000 1.0
C      1  0.4492050000000  0.5905010000000  0.5266000000000 1.0
C      1  0.5764830000000  0.4859640000000  0.4893350000000 1.0
C      1  0.4458210000000  0.5337240000000  0.6094710000000 1.0
C      1  0.4906890000000  0.4251270000000  0.5512880000000 1.0
C      1  0.3957910000000  0.4993370000000  0.4377080000000 1.0
C      1  0.4809210000000  0.4214510000000  0.4131940000000 1.0
C      1  0.5391240000000  0.4175330000000  0.5511170000000 1.0
C      1  0.4305560000000  0.5726170000000  0.4906810000000 1.0
C      1  0.4167210000000  0.4366700000000  0.5373280000000 1.0
C      1  0.4245390000000  0.5581890000000  0.5422690000000 1.0
C      1  0.5459590000000  0.4912300000000  0.4467610000000 1.0
C      1  0.5224950000000  0.5036600000000  0.4603120000000 1.0
C      1  0.5147300000000  0.4766050000000  0.6206610000000 1.0
C      1  0.4864700000000  0.5188490000000  0.4800460000000 1.0
C      1  0.5339000000000  0.4431360000000  0.5356800000000 1.0
C      1  0.5217270000000  0.5086750000000  0.4894490000000 1.0
C      1  0.5203630000000  0.3861020000000  0.4951790000000 1.0
C      1  0.5256510000000  0.6065630000000  0.5657870000000 1.0
C      1  0.4935470000000  0.4935870000000  0.4293300000000 1.0
C      1  0.5502950000000  0.5228430000000  0.4160550000000 1.0
C      1  0.3729970000000  0.5056350000000  0.5180970000000 1.0
C      1  0.4492810000000  0.4940840000000  0.4651070000000 1.0
C      1  0.4849480000000  0.4678150000000  0.4772290000000 1.0
C      1  0.4966450000000  0.5336700000000  0.3863770000000 1.0
C      1  0.4892330000000  0.5247190000000  0.5147260000000 1.0
C      1  0.5969170000000  0.4486010000000  0.4543130000000 1.0
C      1  0.5008890000000  0.5204250000000  0.6191760000000 1.0
C      1  0.3986390000000  0.4817280000000  0.4836810000000 1.0
C      1  0.4907170000000  0.4894730000000  0.3826580000000 1.0
C      1  0.4514230000000  0.4704030000000  0.4001780000000 1.0
C      1  0.4670380000000  0.5624610000000  0.4978100000000 1.0
C      1  0.5341970000000  0.5539810000000  0.4928600000000 1.0
C      1  0.5571130000000  0.5683640000000  0.5702320000000 1.0
C      1  0.5158370000000  0.4313370000000  0.5886500000000 1.0
C      1  0.3843490000000  0.5290280000000  0.5060120000000 1.0
C      1  0.5647660000000  0.5289180000000  0.4669820000000 1.0
C      1  0.5461930000000  0.3961170000000  0.5045540000000 1.0
C      1  0.5090560000000  0.5274760000000  0.5611130000000 1.0
C      1  0.5745970000000  0.4971910000000  0.5800810000000 1.0
C      1  0.5393180000000  0.4508530000000  0.5873360000000 1.0
C      1  0.4885320000000  0.4375990000000  0.5980850000000 1.0
C      1  0.6186020000000  0.5349260000000  0.5055130000000 1.0
C      1  0.5609650000000  0.5416770000000  0.5799480000000 1.0
C      1  0.4979240000000  0.4200490000000  0.5209980000000 1.0
C      1  0.4457910000000  0.5035580000000  0.6130420000000 1.0
C      1  0.4424860000000  0.5074470000000  0.4385500000000 1.0
C      1  0.4911700000000  0.4608890000000  0.5669600000000 1.0
C      1  0.4989110000000  0.5553200000000  0.4047280000000 1.0
C      1  0.5632740000000  0.5810990000000  0.5198020000000 1.0
C      1  0.4921150000000  0.5627650000000  0.4820030000000 1.0
C      1  0.4702670000000  0.4857940000000  0.6049950000000 1.0
C      1  0.4965150000000  0.5940760000000  0.4882680000000 1.0
C      1  0.4753220000000  0.5632440000000  0.5678320000000 1.0
C      1  0.4188620000000  0.4988520000000  0.5287010000000 1.0
C      1  0.4683300000000  0.5498160000000  0.6139750000000 1.0
C      1  0.4144380000000  0.4522920000000  0.4523590000000 1.0
C      1  0.4743160000000  0.4311740000000  0.5066420000000 1.0
C      1  0.4056410000000  0.5767390000000  0.5080400000000 1.0
C      1  0.5418950000000  0.5161560000000  0.5491010000000 1.0
C      1  0.5501080000000  0.4991960000000  0.5954910000000 1.0
C      1  0.4594530000000  0.5353490000000  0.5636700000000 1.0
C      1  0.4982640000000  0.4636770000000  0.4273910000000 1.0
C      1  0.4797160000000  0.5122070000000  0.3976610000000 1.0
C      1  0.5483880000000  0.5393880000000  0.4433080000000 1.0
C      1  0.5803640000000  0.5236550000000  0.5694340000000 1.0
C      1  0.4366850000000  0.4842050000000  0.4197640000000 1.0
C      1  0.4201110000000  0.5932680000000  0.5275790000000 1.0
C      1  0.5685360000000  0.5070240000000  0.5134000000000 1.0
C      1  0.4455110000000  0.5005250000000  0.5154330000000 1.0
C      1  0.4972900000000  0.4100650000000  0.4346280000000 1.0
C      1  0.4692710000000  0.3854040000000  0.5023940000000 1.0
C      1  0.4535830000000  0.4121590000000  0.5199530000000 1.0
C      1  0.4187430000000  0.4939230000000  0.5565570000000 1.0
C      1  0.5448720000000  0.4629140000000  0.4434300000000 1.0
C      1  0.5719950000000  0.4776630000000  0.5590430000000 1.0
C      1  0.5261420000000  0.5659340000000  0.4030130000000 1.0
C      1  0.4408420000000  0.5652110000000  0.4485100000000 1.0
END
