TITL C-951344-124-299 -1.14229241474029e-06 125000 -894.62405723573 0 0 144 (C1) n - 1
REM
REM in /home/bkarasulu/work/CARBON/AIRSS/Generating-Clusters/EDIP-Nigel-Params/with-SteepDescent/Only-C1/SD-CG/HFTN-CG
REM
REM
REM
REM
REM
REM ./C.cell (11c1c37f851c82e70ff6c80c92926a4b)
REM
REM compiler GCC version 9.2.1 20190827 (Red Hat 9.2.1-1)
REM options -cpp -mtune=generic -march=x86-64 -g -O0 -fpre-include=/usr/include/finclude/math-vector-fortran.h
REM seed 169083629 1477298750 1519648128 123177382 1548142246 2046464162 548977258 1255514812 648274422 580364496 1397288261 -1513681904 1719485157 2063992145 -1983505262 -1956742843 279608339 1848976401 1930743114 -1306340558 -525925117 -8236720 1991260136 1067958900 88556407 -1981197089 -1857995560 2129465545 -776313153 1561905581 1354975163 616624207 -1739331785
REM
CELL 1.54180   50.00000   50.00000   50.00000   90.00000   90.00000   90.00000
LATT -1
SFAC C  
C      1  0.5125570000000  0.4892320000000  0.4383800000000 1.0
C      1  0.4624180000000  0.3887780000000  0.5033540000000 1.0
C      1  0.4365880000000  0.5087420000000  0.5847090000000 1.0
C      1  0.5003490000000  0.5952990000000  0.4995350000000 1.0
C      1  0.4587640000000  0.5005990000000  0.4245470000000 1.0
C      1  0.5952960000000  0.4968610000000  0.5128050000000 1.0
C      1  0.5079280000000  0.4206450000000  0.5243940000000 1.0
C      1  0.4047220000000  0.4851960000000  0.5504010000000 1.0
C      1  0.5238560000000  0.5252130000000  0.4346800000000 1.0
C      1  0.5449360000000  0.5281260000000  0.5774800000000 1.0
C      1  0.4372200000000  0.5611740000000  0.4716030000000 1.0
C      1  0.5098860000000  0.5803360000000  0.4325060000000 1.0
C      1  0.4269120000000  0.4180680000000  0.4914540000000 1.0
C      1  0.4386860000000  0.5380400000000  0.5790910000000 1.0
C      1  0.5231760000000  0.4911980000000  0.5882690000000 1.0
C      1  0.5113660000000  0.5607410000000  0.4126860000000 1.0
C      1  0.5376700000000  0.5914080000000  0.4716910000000 1.0
C      1  0.4809430000000  0.5139150000000  0.5651830000000 1.0
C      1  0.4257210000000  0.4486660000000  0.5271440000000 1.0
C      1  0.4696110000000  0.4473320000000  0.5209620000000 1.0
C      1  0.5571490000000  0.4760530000000  0.5071680000000 1.0
C      1  0.4147660000000  0.4574840000000  0.5538390000000 1.0
C      1  0.5181110000000  0.5659850000000  0.4925550000000 1.0
C      1  0.5735450000000  0.5125710000000  0.4746660000000 1.0
C      1  0.4765640000000  0.5539450000000  0.4999940000000 1.0
C      1  0.5695730000000  0.5255080000000  0.5622360000000 1.0
C      1  0.4945150000000  0.5858570000000  0.5431920000000 1.0
C      1  0.4140940000000  0.5401660000000  0.5633570000000 1.0
C      1  0.4809920000000  0.4748880000000  0.3955620000000 1.0
C      1  0.4930160000000  0.5396260000000  0.5201220000000 1.0
C      1  0.4180890000000  0.5436540000000  0.5357560000000 1.0
C      1  0.4895370000000  0.5439440000000  0.4149140000000 1.0
C      1  0.5411490000000  0.5075380000000  0.4109730000000 1.0
C      1  0.4811820000000  0.5097950000000  0.4625530000000 1.0
C      1  0.4474900000000  0.4273220000000  0.5332200000000 1.0
C      1  0.4775390000000  0.5930610000000  0.5209510000000 1.0
C      1  0.5172880000000  0.3985280000000  0.5071640000000 1.0
C      1  0.5652900000000  0.4952020000000  0.4249630000000 1.0
C      1  0.4837000000000  0.4038000000000  0.4914930000000 1.0
C      1  0.5507930000000  0.4291850000000  0.4897250000000 1.0
C      1  0.4773120000000  0.4933380000000  0.5444670000000 1.0
C      1  0.4493570000000  0.5158420000000  0.4886290000000 1.0
C      1  0.4815600000000  0.4898460000000  0.4420560000000 1.0
C      1  0.5751810000000  0.5606940000000  0.4862490000000 1.0
C      1  0.4537580000000  0.5192930000000  0.5172780000000 1.0
C      1  0.5076200000000  0.4705650000000  0.4115720000000 1.0
C      1  0.3979470000000  0.4584790000000  0.4892550000000 1.0
C      1  0.5008320000000  0.4813700000000  0.6049930000000 1.0
C      1  0.5311070000000  0.4087400000000  0.4825430000000 1.0
C      1  0.4465310000000  0.4693600000000  0.5174900000000 1.0
C      1  0.5581010000000  0.4669740000000  0.4137760000000 1.0
C      1  0.5172070000000  0.5132670000000  0.5673510000000 1.0
C      1  0.5553390000000  0.5668290000000  0.4332570000000 1.0
C      1  0.5014390000000  0.5539350000000  0.4701650000000 1.0
C      1  0.4001080000000  0.4983640000000  0.5161670000000 1.0
C      1  0.4741500000000  0.4940520000000  0.4870540000000 1.0
C      1  0.4265810000000  0.5047280000000  0.5541510000000 1.0
C      1  0.5136420000000  0.6069700000000  0.5456030000000 1.0
C      1  0.5747430000000  0.4965480000000  0.5596430000000 1.0
C      1  0.4089340000000  0.4380410000000  0.5045970000000 1.0
C      1  0.6047190000000  0.5157960000000  0.4750870000000 1.0
C      1  0.4500730000000  0.4297930000000  0.4733080000000 1.0
C      1  0.5871000000000  0.5483910000000  0.5112140000000 1.0
C      1  0.5787120000000  0.5551720000000  0.5399260000000 1.0
C      1  0.4234970000000  0.5210690000000  0.4544590000000 1.0
C      1  0.5580520000000  0.5845460000000  0.4910850000000 1.0
C      1  0.5672100000000  0.4651720000000  0.4619070000000 1.0
C      1  0.5251590000000  0.4366830000000  0.4403740000000 1.0
C      1  0.4643430000000  0.4164840000000  0.4476420000000 1.0
C      1  0.5530790000000  0.4489250000000  0.4376800000000 1.0
C      1  0.4492500000000  0.4586760000000  0.4659540000000 1.0
C      1  0.5585810000000  0.5387850000000  0.4733970000000 1.0
C      1  0.4678860000000  0.5496410000000  0.4345010000000 1.0
C      1  0.4972330000000  0.4510180000000  0.4715050000000 1.0
C      1  0.5637700000000  0.4930930000000  0.4540120000000 1.0
C      1  0.5222060000000  0.4264600000000  0.5500690000000 1.0
C      1  0.5481850000000  0.5424540000000  0.4453280000000 1.0
C      1  0.4042360000000  0.5256940000000  0.5194150000000 1.0
C      1  0.4486840000000  0.4242590000000  0.5623720000000 1.0
C      1  0.4879220000000  0.5240670000000  0.3956870000000 1.0
C      1  0.6130100000000  0.4874340000000  0.4797290000000 1.0
C      1  0.4564260000000  0.6029910000000  0.4779800000000 1.0
C      1  0.5519660000000  0.4279820000000  0.5419840000000 1.0
C      1  0.4706330000000  0.5028170000000  0.3975530000000 1.0
C      1  0.5937570000000  0.4653550000000  0.4813720000000 1.0
C      1  0.4486160000000  0.5259630000000  0.4376280000000 1.0
C      1  0.5460760000000  0.4607500000000  0.4827630000000 1.0
C      1  0.5480760000000  0.5338600000000  0.5265270000000 1.0
C      1  0.5077590000000  0.5610390000000  0.5346840000000 1.0
C      1  0.4595000000000  0.4570430000000  0.4092040000000 1.0
C      1  0.4280220000000  0.4705570000000  0.4497580000000 1.0
C      1  0.5331990000000  0.4793160000000  0.3992060000000 1.0
C      1  0.4399550000000  0.4498310000000  0.5713000000000 1.0
C      1  0.5485690000000  0.5890540000000  0.5180150000000 1.0
C      1  0.5365970000000  0.5851630000000  0.4436380000000 1.0
C      1  0.4823890000000  0.5050020000000  0.6087350000000 1.0
C      1  0.4184510000000  0.5400510000000  0.4751040000000 1.0
C      1  0.5928140000000  0.4581620000000  0.5362920000000 1.0
C      1  0.4407570000000  0.5831570000000  0.4904430000000 1.0
C      1  0.4883400000000  0.4573560000000  0.5897010000000 1.0
C      1  0.5382260000000  0.4803870000000  0.5304180000000 1.0
C      1  0.5591920000000  0.4216760000000  0.5155260000000 1.0
C      1  0.4503980000000  0.4952700000000  0.5334840000000 1.0
C      1  0.4624030000000  0.4678280000000  0.5805370000000 1.0
C      1  0.4759160000000  0.4411940000000  0.4299040000000 1.0
C      1  0.4866380000000  0.4018090000000  0.4606190000000 1.0
C      1  0.5291350000000  0.5094870000000  0.5356320000000 1.0
C      1  0.4756790000000  0.4339330000000  0.4919750000000 1.0
C      1  0.5691340000000  0.4494000000000  0.5528610000000 1.0
C      1  0.5054490000000  0.4423250000000  0.4206520000000 1.0
C      1  0.5885280000000  0.4532860000000  0.5077570000000 1.0
C      1  0.5249440000000  0.6066310000000  0.5192120000000 1.0
C      1  0.5370360000000  0.5403700000000  0.4963030000000 1.0
C      1  0.5104260000000  0.5165220000000  0.5117760000000 1.0
C      1  0.5111690000000  0.4696560000000  0.5199270000000 1.0
C      1  0.5322730000000  0.5535280000000  0.5767900000000 1.0
C      1  0.4415420000000  0.4043520000000  0.5134500000000 1.0
C      1  0.6059070000000  0.5260210000000  0.5050780000000 1.0
C      1  0.4880560000000  0.5737440000000  0.4517040000000 1.0
C      1  0.4477050000000  0.5443480000000  0.5324120000000 1.0
C      1  0.5080980000000  0.5493080000000  0.5906340000000 1.0
C      1  0.4398670000000  0.4774080000000  0.4225600000000 1.0
C      1  0.5082910000000  0.4521570000000  0.5660480000000 1.0
C      1  0.4619220000000  0.5396580000000  0.5599170000000 1.0
C      1  0.4187360000000  0.4940880000000  0.4657870000000 1.0
C      1  0.5066590000000  0.5259250000000  0.4614910000000 1.0
C      1  0.4833940000000  0.5973800000000  0.4721900000000 1.0
C      1  0.5136350000000  0.4169440000000  0.4602160000000 1.0
C      1  0.5642070000000  0.5812630000000  0.5411700000000 1.0
C      1  0.5025930000000  0.4899190000000  0.4970900000000 1.0
C      1  0.4637090000000  0.4977780000000  0.5865010000000 1.0
C      1  0.4016670000000  0.4861080000000  0.4891850000000 1.0
C      1  0.4574630000000  0.5726320000000  0.5134390000000 1.0
C      1  0.5322890000000  0.4679830000000  0.5754130000000 1.0
C      1  0.5676330000000  0.5024420000000  0.5024270000000 1.0
C      1  0.4602770000000  0.5424360000000  0.4769810000000 1.0
C      1  0.5967840000000  0.4874740000000  0.5419440000000 1.0
C      1  0.5147490000000  0.4437610000000  0.5100140000000 1.0
C      1  0.4953110000000  0.5298510000000  0.6046790000000 1.0
C      1  0.5534610000000  0.4739490000000  0.5563230000000 1.0
C      1  0.5180020000000  0.4745590000000  0.4721180000000 1.0
C      1  0.5354540000000  0.5571440000000  0.5458900000000 1.0
C      1  0.4911410000000  0.4664850000000  0.5415180000000 1.0
C      1  0.4756530000000  0.4615990000000  0.4523360000000 1.0
END
