TITL C-950523-3027-190 -3.37589170608174e-06 125000 -718.444875560972 0 0 116 (C1) n - 1
REM
REM in /home/bkarasulu/work/CARBON/AIRSS/Generating-Clusters/EDIP-Nigel-Params/with-SteepDescent/Only-C1/SD-CG/HFTN-CG
REM
REM
REM
REM
REM
REM ./C.cell (11c1c37f851c82e70ff6c80c92926a4b)
REM
REM compiler GCC version 9.2.1 20190827 (Red Hat 9.2.1-1)
REM options -cpp -mtune=generic -march=x86-64 -g -O0 -fpre-include=/usr/include/finclude/math-vector-fortran.h
REM seed -1776062972 260471267 1936583744 793213951 1553105361 -1181828609 674435175 1732948119 1467037459 -160014063 -1903336874 -637332275 -929195695 941408237 -1688274204 177394360 -1484168322 -1937166326 368697147 242703787 -547180068 -1316178720 1646658311 322352269 -1691708669 -326434015 -1275942763 -662863634 -347415088 1379845512 -42745360 -641381310 -1730034078
REM
CELL 1.54180   50.00000   50.00000   50.00000   90.00000   90.00000   90.00000
LATT -1
SFAC C  
C      1  0.5045450000000  0.4627850000000  0.5338770000000 1.0
C      1  0.4537170000000  0.5265710000000  0.5592450000000 1.0
C      1  0.4511360000000  0.4893920000000  0.4753920000000 1.0
C      1  0.4605380000000  0.4631100000000  0.5754340000000 1.0
C      1  0.5061880000000  0.5560670000000  0.5831600000000 1.0
C      1  0.4122530000000  0.5357080000000  0.4566900000000 1.0
C      1  0.4296520000000  0.5288200000000  0.5127960000000 1.0
C      1  0.5236150000000  0.5403130000000  0.5143690000000 1.0
C      1  0.4271650000000  0.5617190000000  0.4561180000000 1.0
C      1  0.4648130000000  0.4963060000000  0.4286190000000 1.0
C      1  0.5574450000000  0.5291690000000  0.5654070000000 1.0
C      1  0.5443410000000  0.4281020000000  0.5186650000000 1.0
C      1  0.4561580000000  0.5164280000000  0.5163470000000 1.0
C      1  0.4866170000000  0.4126500000000  0.4895630000000 1.0
C      1  0.4650240000000  0.4188400000000  0.5299140000000 1.0
C      1  0.5425000000000  0.5221540000000  0.5887780000000 1.0
C      1  0.5329070000000  0.4711020000000  0.5776460000000 1.0
C      1  0.4056190000000  0.5250000000000  0.4830410000000 1.0
C      1  0.5960850000000  0.5267570000000  0.5127960000000 1.0
C      1  0.5657480000000  0.5026000000000  0.4261480000000 1.0
C      1  0.5643730000000  0.4350880000000  0.4469550000000 1.0
C      1  0.5316170000000  0.5686580000000  0.5795950000000 1.0
C      1  0.4265220000000  0.5154400000000  0.5553350000000 1.0
C      1  0.3977490000000  0.5001960000000  0.5245040000000 1.0
C      1  0.4518430000000  0.5242430000000  0.4284150000000 1.0
C      1  0.5890510000000  0.5073480000000  0.4716560000000 1.0
C      1  0.5379240000000  0.4846120000000  0.5033450000000 1.0
C      1  0.5495630000000  0.5523900000000  0.5096710000000 1.0
C      1  0.5751670000000  0.4584210000000  0.4883660000000 1.0
C      1  0.5187440000000  0.4408520000000  0.4322730000000 1.0
C      1  0.5150270000000  0.4895880000000  0.5247820000000 1.0
C      1  0.4683220000000  0.5191850000000  0.4741260000000 1.0
C      1  0.4154740000000  0.4823830000000  0.5404570000000 1.0
C      1  0.5522600000000  0.4438540000000  0.5415930000000 1.0
C      1  0.5198270000000  0.5555070000000  0.4252080000000 1.0
C      1  0.5007340000000  0.5844610000000  0.5375830000000 1.0
C      1  0.4102310000000  0.5255640000000  0.5336150000000 1.0
C      1  0.4230280000000  0.4371630000000  0.5197950000000 1.0
C      1  0.4945400000000  0.5584790000000  0.5534770000000 1.0
C      1  0.5559490000000  0.5063310000000  0.4923610000000 1.0
C      1  0.5161540000000  0.5049590000000  0.4246330000000 1.0
C      1  0.4649490000000  0.5518720000000  0.5478070000000 1.0
C      1  0.5146240000000  0.4178340000000  0.5163960000000 1.0
C      1  0.4254900000000  0.5164070000000  0.4390950000000 1.0
C      1  0.4669370000000  0.5509270000000  0.4681490000000 1.0
C      1  0.4659640000000  0.4631690000000  0.5315280000000 1.0
C      1  0.5112640000000  0.5308080000000  0.4134360000000 1.0
C      1  0.4759360000000  0.5739000000000  0.4317870000000 1.0
C      1  0.5818470000000  0.4890390000000  0.5412420000000 1.0
C      1  0.4346060000000  0.4275110000000  0.4936040000000 1.0
C      1  0.4932270000000  0.4202320000000  0.5384790000000 1.0
C      1  0.5037190000000  0.5460490000000  0.4956370000000 1.0
C      1  0.5708840000000  0.4616850000000  0.4593220000000 1.0
C      1  0.5163350000000  0.5389070000000  0.5423410000000 1.0
C      1  0.5108970000000  0.5103240000000  0.5480770000000 1.0
C      1  0.4303340000000  0.4467080000000  0.4710720000000 1.0
C      1  0.4764120000000  0.5366370000000  0.5081140000000 1.0
C      1  0.5152560000000  0.4197780000000  0.4519250000000 1.0
C      1  0.4759210000000  0.4664430000000  0.4785800000000 1.0
C      1  0.4690130000000  0.5108960000000  0.5780350000000 1.0
C      1  0.5416580000000  0.4720240000000  0.4534110000000 1.0
C      1  0.5293030000000  0.5901770000000  0.5256100000000 1.0
C      1  0.5643470000000  0.5400950000000  0.4551740000000 1.0
C      1  0.4961650000000  0.5667010000000  0.4127230000000 1.0
C      1  0.4434140000000  0.5640180000000  0.4826430000000 1.0
C      1  0.5501930000000  0.4210810000000  0.4693830000000 1.0
C      1  0.5142790000000  0.5276370000000  0.5913230000000 1.0
C      1  0.4603830000000  0.4142070000000  0.5021340000000 1.0
C      1  0.4813940000000  0.5851060000000  0.5149850000000 1.0
C      1  0.5997030000000  0.4964170000000  0.5179900000000 1.0
C      1  0.5655660000000  0.5251450000000  0.5151990000000 1.0
C      1  0.5815850000000  0.5183320000000  0.4431140000000 1.0
C      1  0.4317020000000  0.4661760000000  0.5213280000000 1.0
C      1  0.4266210000000  0.4775710000000  0.4924230000000 1.0
C      1  0.5461970000000  0.4451190000000  0.4261990000000 1.0
C      1  0.5614460000000  0.4319020000000  0.4947510000000 1.0
C      1  0.4404440000000  0.4279700000000  0.5422230000000 1.0
C      1  0.5733930000000  0.4621300000000  0.5407480000000 1.0
C      1  0.5510810000000  0.5704240000000  0.5335430000000 1.0
C      1  0.5613790000000  0.5110920000000  0.5423540000000 1.0
C      1  0.4440370000000  0.4757820000000  0.4345010000000 1.0
C      1  0.4499160000000  0.5556100000000  0.4330070000000 1.0
C      1  0.4946790000000  0.4966100000000  0.5056430000000 1.0
C      1  0.5434790000000  0.5199840000000  0.4662970000000 1.0
C      1  0.4927730000000  0.4867430000000  0.4257580000000 1.0
C      1  0.5413320000000  0.4997380000000  0.4417510000000 1.0
C      1  0.4482510000000  0.4493270000000  0.4474770000000 1.0
C      1  0.4034630000000  0.4978690000000  0.4947770000000 1.0
C      1  0.5412180000000  0.5527520000000  0.5562530000000 1.0
C      1  0.5975540000000  0.5333050000000  0.4843620000000 1.0
C      1  0.4967480000000  0.4596180000000  0.4355210000000 1.0
C      1  0.5063790000000  0.4782720000000  0.5840830000000 1.0
C      1  0.4982350000000  0.5842480000000  0.4901770000000 1.0
C      1  0.4899480000000  0.5718670000000  0.4604680000000 1.0
C      1  0.5281520000000  0.4526660000000  0.5555050000000 1.0
C      1  0.4859090000000  0.4496040000000  0.5062690000000 1.0
C      1  0.5925760000000  0.4832000000000  0.4917360000000 1.0
C      1  0.4682720000000  0.4902230000000  0.5156460000000 1.0
C      1  0.5269560000000  0.5907660000000  0.4951990000000 1.0
C      1  0.5147740000000  0.5320330000000  0.4699270000000 1.0
C      1  0.4613720000000  0.5625380000000  0.5168520000000 1.0
C      1  0.4426770000000  0.4462620000000  0.5630980000000 1.0
C      1  0.4770330000000  0.4477710000000  0.4545140000000 1.0
C      1  0.5196720000000  0.4396760000000  0.4846000000000 1.0
C      1  0.5254860000000  0.4702210000000  0.4797430000000 1.0
C      1  0.4544330000000  0.4882450000000  0.5852430000000 1.0
C      1  0.5786150000000  0.5541380000000  0.4760820000000 1.0
C      1  0.4991570000000  0.5065170000000  0.5758400000000 1.0
C      1  0.4985850000000  0.4314020000000  0.5647150000000 1.0
C      1  0.5434010000000  0.5695400000000  0.4802130000000 1.0
C      1  0.5174630000000  0.5585920000000  0.4552370000000 1.0
C      1  0.4876620000000  0.4205330000000  0.4618690000000 1.0
C      1  0.4990830000000  0.4855910000000  0.4785180000000 1.0
C      1  0.4881190000000  0.4573830000000  0.5742600000000 1.0
C      1  0.4239000000000  0.4896900000000  0.4484540000000 1.0
C      1  0.4946570000000  0.5109200000000  0.4627730000000 1.0
END
