TITL C-950529-3362-219 -1.00272543252353e-05 125000 -152.205739049229 0 0 27 (C1) n - 1
REM
REM in /home/bkarasulu/work/CARBON/AIRSS/Generating-Clusters/EDIP-Nigel-Params/with-SteepDescent/Only-C1/SD-CG/HFTN-CG
REM
REM
REM
REM
REM
REM ./C.cell (11c1c37f851c82e70ff6c80c92926a4b)
REM
REM compiler GCC version 9.2.1 20190827 (Red Hat 9.2.1-1)
REM options -cpp -mtune=generic -march=x86-64 -g -O0 -fpre-include=/usr/include/finclude/math-vector-fortran.h
REM seed -512448811 1742883423 764403094 207762693 -796150973 1444436614 -646281917 -968213805 -1530399496 492464820 495382193 -1394161871 1294665215 -1064323926 518369720 2026523889 1722604413 -706883605 1036466765 -1319654523 -251695754 1213318222 806590790 -1875690698 -1748447353 -1501921106 -553138495 2076697537 1650328199 1859356082 -1627987803 1260253456 1367315253
REM
CELL 1.54180   50.00000   50.00000   50.00000   90.00000   90.00000   90.00000
LATT -1
SFAC C  
C      1  0.5536670000000  0.5144310000000  0.5133990000000 1.0
C      1  0.5287520000000  0.4839710000000  0.5467100000000 1.0
C      1  0.5403220000000  0.5354290000000  0.5256720000000 1.0
C      1  0.4846140000000  0.4995350000000  0.5414030000000 1.0
C      1  0.4732180000000  0.5065670000000  0.4352860000000 1.0
C      1  0.5326130000000  0.4640300000000  0.4968030000000 1.0
C      1  0.4282370000000  0.5108330000000  0.4976130000000 1.0
C      1  0.4346370000000  0.4875210000000  0.5092150000000 1.0
C      1  0.5395220000000  0.5205340000000  0.4656420000000 1.0
C      1  0.5564640000000  0.5166210000000  0.4859570000000 1.0
C      1  0.5108320000000  0.5064790000000  0.5529280000000 1.0
C      1  0.4998370000000  0.5053560000000  0.4430020000000 1.0
C      1  0.4851090000000  0.4537590000000  0.4919260000000 1.0
C      1  0.4559690000000  0.5045820000000  0.5008640000000 1.0
C      1  0.4648890000000  0.4655320000000  0.4618450000000 1.0
C      1  0.5483900000000  0.4871090000000  0.5243780000000 1.0
C      1  0.4719800000000  0.5190370000000  0.5218510000000 1.0
C      1  0.5058110000000  0.4674230000000  0.5060510000000 1.0
C      1  0.5016030000000  0.4731130000000  0.5351030000000 1.0
C      1  0.4553850000000  0.5354740000000  0.5360250000000 1.0
C      1  0.5567210000000  0.4634740000000  0.5100330000000 1.0
C      1  0.4671490000000  0.4936350000000  0.4590770000000 1.0
C      1  0.5149200000000  0.5439440000000  0.5235940000000 1.0
C      1  0.4971680000000  0.5333850000000  0.4814920000000 1.0
C      1  0.5125190000000  0.5235110000000  0.4607740000000 1.0
C      1  0.4867380000000  0.4486530000000  0.4646980000000 1.0
C      1  0.4929340000000  0.5360630000000  0.5086620000000 1.0
END
