TITL C-951344-124-569 -2.56735455234587e-06 125000 -859.508232214374 0 0 137 (C1) n - 1
REM
REM in /home/bkarasulu/work/CARBON/AIRSS/Generating-Clusters/EDIP-Nigel-Params/with-SteepDescent/Only-C1/SD-CG/HFTN-CG
REM
REM
REM
REM
REM
REM ./C.cell (11c1c37f851c82e70ff6c80c92926a4b)
REM
REM compiler GCC version 9.2.1 20190827 (Red Hat 9.2.1-1)
REM options -cpp -mtune=generic -march=x86-64 -g -O0 -fpre-include=/usr/include/finclude/math-vector-fortran.h
REM seed 1096822112 -2039008863 -1580871336 -2139389882 -381167174 1942040946 -687648488 -1192859767 999043336 298333495 897021219 -598934835 132355054 1731046846 1638888217 1849394245 1652133279 -464697458 1213886045 -1272023508 1988176924 471873942 -522275269 815886411 1173921955 566026563 1145876477 -1004950768 1641781577 -946643895 -1873922130 1490198480 -1680284856
REM
CELL 1.54180   50.00000   50.00000   50.00000   90.00000   90.00000   90.00000
LATT -1
SFAC C  
C      1  0.5240550000000  0.4616140000000  0.5921080000000 1.0
C      1  0.4378220000000  0.5193060000000  0.5825570000000 1.0
C      1  0.4805870000000  0.4319110000000  0.4906880000000 1.0
C      1  0.5668260000000  0.5155750000000  0.5404150000000 1.0
C      1  0.6041540000000  0.4841890000000  0.4866980000000 1.0
C      1  0.5070030000000  0.4383000000000  0.5333100000000 1.0
C      1  0.4471510000000  0.5729860000000  0.4976750000000 1.0
C      1  0.5922950000000  0.5031920000000  0.5282080000000 1.0
C      1  0.5382400000000  0.5362850000000  0.4672510000000 1.0
C      1  0.5811930000000  0.5329860000000  0.4387150000000 1.0
C      1  0.4423980000000  0.5266690000000  0.4347590000000 1.0
C      1  0.5502730000000  0.4991720000000  0.4188240000000 1.0
C      1  0.4750470000000  0.5544910000000  0.5782730000000 1.0
C      1  0.5294420000000  0.4138580000000  0.4652180000000 1.0
C      1  0.4467990000000  0.5240440000000  0.4857900000000 1.0
C      1  0.4603870000000  0.5105260000000  0.5398330000000 1.0
C      1  0.5874980000000  0.5065290000000  0.4981870000000 1.0
C      1  0.4400620000000  0.4888730000000  0.5307110000000 1.0
C      1  0.5896120000000  0.4875830000000  0.4449530000000 1.0
C      1  0.5223660000000  0.5803690000000  0.4949230000000 1.0
C      1  0.4556450000000  0.5376110000000  0.4592920000000 1.0
C      1  0.5576150000000  0.4982690000000  0.4937380000000 1.0
C      1  0.4014710000000  0.5386780000000  0.5470750000000 1.0
C      1  0.4887510000000  0.5452520000000  0.4902350000000 1.0
C      1  0.5382130000000  0.4330530000000  0.5359680000000 1.0
C      1  0.4666170000000  0.5708420000000  0.4261780000000 1.0
C      1  0.4870400000000  0.5187550000000  0.5846980000000 1.0
C      1  0.4974570000000  0.3926460000000  0.5020520000000 1.0
C      1  0.4155120000000  0.5217160000000  0.4479140000000 1.0
C      1  0.4183630000000  0.4468690000000  0.4877870000000 1.0
C      1  0.5844970000000  0.4611160000000  0.4505060000000 1.0
C      1  0.4271630000000  0.5495590000000  0.5424740000000 1.0
C      1  0.4925670000000  0.5052380000000  0.4598780000000 1.0
C      1  0.5689850000000  0.4429190000000  0.4641640000000 1.0
C      1  0.4993780000000  0.4389580000000  0.4354810000000 1.0
C      1  0.5039610000000  0.5721580000000  0.5690130000000 1.0
C      1  0.4943120000000  0.5919240000000  0.4905590000000 1.0
C      1  0.6127330000000  0.5022660000000  0.4545140000000 1.0
C      1  0.4491670000000  0.5347490000000  0.5569610000000 1.0
C      1  0.4725160000000  0.5212240000000  0.5043770000000 1.0
C      1  0.4854220000000  0.5362820000000  0.4584240000000 1.0
C      1  0.5407720000000  0.5459120000000  0.5873680000000 1.0
C      1  0.4314580000000  0.4258730000000  0.4752460000000 1.0
C      1  0.4595850000000  0.5081040000000  0.4160520000000 1.0
C      1  0.5156790000000  0.5882910000000  0.4481700000000 1.0
C      1  0.5516680000000  0.5001650000000  0.5691870000000 1.0
C      1  0.4892450000000  0.5921070000000  0.4621130000000 1.0
C      1  0.5197830000000  0.4907290000000  0.4549920000000 1.0
C      1  0.5510930000000  0.4683480000000  0.5014330000000 1.0
C      1  0.4377740000000  0.4823490000000  0.4347280000000 1.0
C      1  0.4206600000000  0.4994940000000  0.5084490000000 1.0
C      1  0.4359900000000  0.4205270000000  0.5404590000000 1.0
C      1  0.4431400000000  0.4089180000000  0.4941860000000 1.0
C      1  0.5299750000000  0.5594480000000  0.5656980000000 1.0
C      1  0.4216780000000  0.4936030000000  0.4557490000000 1.0
C      1  0.5606520000000  0.4726090000000  0.5305760000000 1.0
C      1  0.4636800000000  0.5804940000000  0.4521740000000 1.0
C      1  0.5969090000000  0.4602590000000  0.5030580000000 1.0
C      1  0.4991010000000  0.4834800000000  0.5546010000000 1.0
C      1  0.4784450000000  0.4549060000000  0.4704830000000 1.0
C      1  0.4093860000000  0.5410310000000  0.4999420000000 1.0
C      1  0.4882030000000  0.5512100000000  0.4295710000000 1.0
C      1  0.4621310000000  0.4770750000000  0.4874970000000 1.0
C      1  0.6075180000000  0.5310650000000  0.4528280000000 1.0
C      1  0.5129550000000  0.4821930000000  0.6072870000000 1.0
C      1  0.5276540000000  0.4495790000000  0.4310310000000 1.0
C      1  0.4564530000000  0.4671430000000  0.5161360000000 1.0
C      1  0.4495730000000  0.4341750000000  0.4550930000000 1.0
C      1  0.5420090000000  0.5585320000000  0.5377810000000 1.0
C      1  0.5299630000000  0.5841400000000  0.5247960000000 1.0
C      1  0.4768670000000  0.4582420000000  0.4269430000000 1.0
C      1  0.4844240000000  0.4968010000000  0.4904230000000 1.0
C      1  0.5884770000000  0.5391500000000  0.4928370000000 1.0
C      1  0.4876820000000  0.5446580000000  0.5384400000000 1.0
C      1  0.5365770000000  0.5459680000000  0.4350230000000 1.0
C      1  0.5352760000000  0.5240790000000  0.4131100000000 1.0
C      1  0.4618910000000  0.5303460000000  0.5981940000000 1.0
C      1  0.5640350000000  0.5583710000000  0.4370390000000 1.0
C      1  0.4309840000000  0.5541470000000  0.5136170000000 1.0
C      1  0.5049160000000  0.4880230000000  0.4092390000000 1.0
C      1  0.5521030000000  0.4540810000000  0.5506070000000 1.0
C      1  0.5085940000000  0.5157190000000  0.4017350000000 1.0
C      1  0.4358340000000  0.4882160000000  0.5800310000000 1.0
C      1  0.5522740000000  0.4229420000000  0.5103320000000 1.0
C      1  0.4387380000000  0.4443520000000  0.5573650000000 1.0
C      1  0.5384560000000  0.5893760000000  0.4689230000000 1.0
C      1  0.5079130000000  0.4394050000000  0.5870280000000 1.0
C      1  0.5082460000000  0.4357180000000  0.5030420000000 1.0
C      1  0.4918640000000  0.4674520000000  0.5309400000000 1.0
C      1  0.5023070000000  0.4119340000000  0.4533480000000 1.0
C      1  0.5891390000000  0.5517430000000  0.5190890000000 1.0
C      1  0.5041810000000  0.4828120000000  0.5086590000000 1.0
C      1  0.5624040000000  0.5500090000000  0.4806890000000 1.0
C      1  0.5148990000000  0.5650850000000  0.4300060000000 1.0
C      1  0.5701700000000  0.4452770000000  0.4939460000000 1.0
C      1  0.4504500000000  0.4562420000000  0.4368220000000 1.0
C      1  0.4916340000000  0.4086180000000  0.5524000000000 1.0
C      1  0.5201280000000  0.4627610000000  0.4954150000000 1.0
C      1  0.5037500000000  0.5868230000000  0.5420580000000 1.0
C      1  0.3816350000000  0.5045190000000  0.5189150000000 1.0
C      1  0.4650460000000  0.4499980000000  0.5669220000000 1.0
C      1  0.5420480000000  0.4379020000000  0.4546410000000 1.0
C      1  0.5669420000000  0.5061210000000  0.4420150000000 1.0
C      1  0.4768180000000  0.4976750000000  0.5650710000000 1.0
C      1  0.4630860000000  0.4763870000000  0.5801340000000 1.0
C      1  0.5467210000000  0.5127990000000  0.5180330000000 1.0
C      1  0.5104960000000  0.4654480000000  0.4684110000000 1.0
C      1  0.4252670000000  0.4726130000000  0.5541470000000 1.0
C      1  0.5455350000000  0.5067070000000  0.4660400000000 1.0
C      1  0.5273060000000  0.4804690000000  0.4266090000000 1.0
C      1  0.4304560000000  0.4479920000000  0.5139320000000 1.0
C      1  0.6112180000000  0.5464020000000  0.4761910000000 1.0
C      1  0.4402940000000  0.5716520000000  0.4692990000000 1.0
C      1  0.4046730000000  0.4606120000000  0.5241730000000 1.0
C      1  0.5312280000000  0.5192150000000  0.5835820000000 1.0
C      1  0.4865630000000  0.4303510000000  0.5713390000000 1.0
C      1  0.3924300000000  0.5305880000000  0.5216360000000 1.0
C      1  0.4816020000000  0.4037070000000  0.5253280000000 1.0
C      1  0.4817120000000  0.4874760000000  0.4264120000000 1.0
C      1  0.4765990000000  0.5717100000000  0.5021360000000 1.0
C      1  0.4367850000000  0.4956460000000  0.4817840000000 1.0
C      1  0.4140830000000  0.5432200000000  0.4702050000000 1.0
C      1  0.5640970000000  0.5735590000000  0.4631640000000 1.0
C      1  0.4835150000000  0.5292700000000  0.4092160000000 1.0
C      1  0.4813630000000  0.5706320000000  0.5309910000000 1.0
C      1  0.5271200000000  0.4120030000000  0.4950490000000 1.0
C      1  0.5291160000000  0.5368380000000  0.5191080000000 1.0
C      1  0.3957810000000  0.4827470000000  0.5079720000000 1.0
C      1  0.4837940000000  0.4050030000000  0.4773170000000 1.0
C      1  0.5066590000000  0.5256800000000  0.5321010000000 1.0
C      1  0.5101640000000  0.5095640000000  0.6026290000000 1.0
C      1  0.5194840000000  0.5487960000000  0.4925770000000 1.0
C      1  0.4540670000000  0.4113330000000  0.5198490000000 1.0
C      1  0.5391530000000  0.4718870000000  0.5693500000000 1.0
C      1  0.5904160000000  0.4733310000000  0.5296290000000 1.0
C      1  0.5180800000000  0.5052030000000  0.5499910000000 1.0
C      1  0.5707050000000  0.5462920000000  0.5397280000000 1.0
END
