TITL C-951336-9012-227 4.66017137104559e-06 125000 -452.603293026732 0 0 73 (C1) n - 1
REM
REM in /home/bkarasulu/work/CARBON/AIRSS/Generating-Clusters/EDIP-Nigel-Params/with-SteepDescent/Only-C1/SD-CG/HFTN-CG
REM
REM
REM
REM
REM
REM ./C.cell (11c1c37f851c82e70ff6c80c92926a4b)
REM
REM compiler GCC version 9.2.1 20190827 (Red Hat 9.2.1-1)
REM options -cpp -mtune=generic -march=x86-64 -g -O0 -fpre-include=/usr/include/finclude/math-vector-fortran.h
REM seed 1207886285 1472464290 -732259051 1788104345 1535054515 884630055 -1368488320 1565962787 191931791 -1116982059 -2020708578 666504202 -1236407746 -1724699433 1250518679 1730643822 -2055221516 -1491367202 2145656789 921792414 964394093 -1768860901 -1684973865 836401161 -517327741 -494917092 556870175 450773686 67696886 -1467112543 1358633838 1862565625 -1977849781
REM
CELL 1.54180   50.00000   50.00000   50.00000   90.00000   90.00000   90.00000
LATT -1
SFAC C  
C      1  0.5254150000000  0.5179520000000  0.4774720000000 1.0
C      1  0.4418670000000  0.4872220000000  0.4858730000000 1.0
C      1  0.4946510000000  0.5254930000000  0.4238690000000 1.0
C      1  0.4575160000000  0.5725050000000  0.4858400000000 1.0
C      1  0.5417070000000  0.5165610000000  0.4363280000000 1.0
C      1  0.5212230000000  0.5616770000000  0.4460040000000 1.0
C      1  0.5409800000000  0.5037620000000  0.5692570000000 1.0
C      1  0.5209530000000  0.4538300000000  0.5381250000000 1.0
C      1  0.4713090000000  0.4905950000000  0.4916550000000 1.0
C      1  0.4466610000000  0.5212180000000  0.5533330000000 1.0
C      1  0.4787950000000  0.4635060000000  0.5612710000000 1.0
C      1  0.4925600000000  0.4229420000000  0.4753910000000 1.0
C      1  0.5734850000000  0.4649640000000  0.4823370000000 1.0
C      1  0.4565480000000  0.5175550000000  0.5782340000000 1.0
C      1  0.4360110000000  0.5110090000000  0.4506060000000 1.0
C      1  0.4581710000000  0.4278410000000  0.5031350000000 1.0
C      1  0.4618790000000  0.4687190000000  0.4443140000000 1.0
C      1  0.5425350000000  0.5418010000000  0.5137250000000 1.0
C      1  0.4486570000000  0.5551750000000  0.5071900000000 1.0
C      1  0.5610800000000  0.4921700000000  0.5513630000000 1.0
C      1  0.5191410000000  0.4851680000000  0.5799450000000 1.0
C      1  0.4974070000000  0.5245420000000  0.5553680000000 1.0
C      1  0.5233300000000  0.4884360000000  0.4397150000000 1.0
C      1  0.5320430000000  0.4482680000000  0.4887380000000 1.0
C      1  0.5489750000000  0.4616380000000  0.5312720000000 1.0
C      1  0.4762470000000  0.5091680000000  0.5149520000000 1.0
C      1  0.5086820000000  0.5693440000000  0.5040980000000 1.0
C      1  0.4640580000000  0.4612910000000  0.5372300000000 1.0
C      1  0.5735000000000  0.5192650000000  0.4831090000000 1.0
C      1  0.4285140000000  0.4679130000000  0.5048660000000 1.0
C      1  0.5399080000000  0.4457070000000  0.4603340000000 1.0
C      1  0.5188140000000  0.4924870000000  0.4695680000000 1.0
C      1  0.4776030000000  0.4469020000000  0.5142770000000 1.0
C      1  0.5595020000000  0.4989570000000  0.5230910000000 1.0
C      1  0.4373780000000  0.4800400000000  0.4555080000000 1.0
C      1  0.5214280000000  0.4934550000000  0.5185610000000 1.0
C      1  0.4251370000000  0.5207690000000  0.4767050000000 1.0
C      1  0.4960250000000  0.5009260000000  0.5350530000000 1.0
C      1  0.5653930000000  0.4569010000000  0.4563690000000 1.0
C      1  0.5368360000000  0.5655620000000  0.4947020000000 1.0
C      1  0.4796660000000  0.4914820000000  0.4483060000000 1.0
C      1  0.5068880000000  0.4663610000000  0.5604810000000 1.0
C      1  0.5170310000000  0.4558910000000  0.4452000000000 1.0
C      1  0.4660410000000  0.5187210000000  0.4489530000000 1.0
C      1  0.4870850000000  0.5512820000000  0.5445710000000 1.0
C      1  0.4870470000000  0.4658920000000  0.4908890000000 1.0
C      1  0.5569380000000  0.4517740000000  0.5041150000000 1.0
C      1  0.5427630000000  0.5575440000000  0.4662630000000 1.0
C      1  0.4989600000000  0.4986990000000  0.5948720000000 1.0
C      1  0.5495480000000  0.5281570000000  0.4647670000000 1.0
C      1  0.5198340000000  0.5229600000000  0.5047750000000 1.0
C      1  0.4628270000000  0.5565470000000  0.5313800000000 1.0
C      1  0.5155770000000  0.4745020000000  0.4931930000000 1.0
C      1  0.4900290000000  0.4506970000000  0.4616010000000 1.0
C      1  0.5673520000000  0.5252120000000  0.5113100000000 1.0
C      1  0.4684790000000  0.4109900000000  0.4837610000000 1.0
C      1  0.5144130000000  0.4253680000000  0.4965310000000 1.0
C      1  0.4469910000000  0.5092220000000  0.5270830000000 1.0
C      1  0.4720760000000  0.5376650000000  0.4744450000000 1.0
C      1  0.5208530000000  0.5374240000000  0.4280750000000 1.0
C      1  0.4969450000000  0.5738110000000  0.4537730000000 1.0
C      1  0.4385420000000  0.5283010000000  0.5014890000000 1.0
C      1  0.5801100000000  0.4920440000000  0.4845330000000 1.0
C      1  0.4977310000000  0.4970010000000  0.4269480000000 1.0
C      1  0.5263940000000  0.5290350000000  0.5601830000000 1.0
C      1  0.4404710000000  0.4785720000000  0.5297690000000 1.0
C      1  0.4718060000000  0.5651570000000  0.4621000000000 1.0
C      1  0.4841380000000  0.5178480000000  0.5808130000000 1.0
C      1  0.4891510000000  0.5370730000000  0.5029570000000 1.0
C      1  0.4335760000000  0.4405500000000  0.5004590000000 1.0
C      1  0.5037520000000  0.4347070000000  0.5225980000000 1.0
C      1  0.5098130000000  0.5655470000000  0.5333590000000 1.0
C      1  0.5352500000000  0.5507290000000  0.5416640000000 1.0
END
