TITL C-950525-1983-413 3.72734708936422e-06 125000 -907.254161647498 0 0 145 (C1) n - 1
REM
REM in /home/bkarasulu/work/CARBON/AIRSS/Generating-Clusters/EDIP-Nigel-Params/with-SteepDescent/Only-C1/SD-CG/HFTN-CG
REM
REM
REM
REM
REM
REM ./C.cell (11c1c37f851c82e70ff6c80c92926a4b)
REM
REM compiler GCC version 9.2.1 20190827 (Red Hat 9.2.1-1)
REM options -cpp -mtune=generic -march=x86-64 -g -O0 -fpre-include=/usr/include/finclude/math-vector-fortran.h
REM seed -80943875 214865895 133375121 1628658019 319071443 683578222 -1031076840 -414266828 -1232349569 1357697846 427527359 -85356066 165099769 247916765 1378835416 -1068214891 -2145523817 2040175417 -832576253 1913127262 -615911177 2002092753 -2034778974 -803538255 499036555 -1314708374 1379293499 928641246 -922109326 567162262 1290032144 -520244537 -2039251753
REM
CELL 1.54180   50.00000   50.00000   50.00000   90.00000   90.00000   90.00000
LATT -1
SFAC C  
C      1  0.5701310000000  0.4225950000000  0.5082400000000 1.0
C      1  0.5375730000000  0.4982720000000  0.4677040000000 1.0
C      1  0.4938760000000  0.4970780000000  0.5145200000000 1.0
C      1  0.5022020000000  0.4096740000000  0.4402870000000 1.0
C      1  0.4863750000000  0.6079990000000  0.4824590000000 1.0
C      1  0.4186850000000  0.5048120000000  0.5452490000000 1.0
C      1  0.5189280000000  0.4838510000000  0.5134530000000 1.0
C      1  0.4348550000000  0.4920950000000  0.5669710000000 1.0
C      1  0.5525320000000  0.5722850000000  0.5320390000000 1.0
C      1  0.5494210000000  0.4545380000000  0.4175790000000 1.0
C      1  0.5512030000000  0.4227790000000  0.5539220000000 1.0
C      1  0.5115500000000  0.6006820000000  0.5250260000000 1.0
C      1  0.5588570000000  0.4707930000000  0.5014370000000 1.0
C      1  0.4204490000000  0.5000400000000  0.4780980000000 1.0
C      1  0.5721020000000  0.4764500000000  0.5630120000000 1.0
C      1  0.4681160000000  0.6103150000000  0.5052280000000 1.0
C      1  0.4565690000000  0.4488710000000  0.4678020000000 1.0
C      1  0.4630910000000  0.5781430000000  0.4166550000000 1.0
C      1  0.5516690000000  0.5200430000000  0.5100610000000 1.0
C      1  0.5447050000000  0.4068180000000  0.5088560000000 1.0
C      1  0.5069950000000  0.4956650000000  0.6079700000000 1.0
C      1  0.5323800000000  0.5792590000000  0.4488450000000 1.0
C      1  0.4680280000000  0.4522690000000  0.5308930000000 1.0
C      1  0.4688940000000  0.4237410000000  0.5721340000000 1.0
C      1  0.4972130000000  0.5308180000000  0.5980900000000 1.0
C      1  0.4380510000000  0.4629410000000  0.5639900000000 1.0
C      1  0.5347750000000  0.5839650000000  0.4808060000000 1.0
C      1  0.4740370000000  0.4027000000000  0.4969210000000 1.0
C      1  0.4876520000000  0.4559740000000  0.5533110000000 1.0
C      1  0.5774830000000  0.5351610000000  0.5033370000000 1.0
C      1  0.4800220000000  0.4609870000000  0.4842310000000 1.0
C      1  0.4421560000000  0.5100990000000  0.5270490000000 1.0
C      1  0.4756120000000  0.4189970000000  0.4416530000000 1.0
C      1  0.5397180000000  0.5472500000000  0.4109260000000 1.0
C      1  0.5598160000000  0.5380620000000  0.4503260000000 1.0
C      1  0.5866770000000  0.4665490000000  0.4934720000000 1.0
C      1  0.5014020000000  0.4499030000000  0.4122530000000 1.0
C      1  0.5045770000000  0.5373280000000  0.4685820000000 1.0
C      1  0.4571030000000  0.5096770000000  0.4128830000000 1.0
C      1  0.4998440000000  0.4008350000000  0.5096730000000 1.0
C      1  0.4033860000000  0.5603700000000  0.4757790000000 1.0
C      1  0.4790450000000  0.5267120000000  0.4880930000000 1.0
C      1  0.4927790000000  0.5216440000000  0.5306200000000 1.0
C      1  0.4587360000000  0.4948260000000  0.4402330000000 1.0
C      1  0.4830570000000  0.4414630000000  0.5074340000000 1.0
C      1  0.5436900000000  0.5176140000000  0.4143010000000 1.0
C      1  0.4640060000000  0.5232240000000  0.5421490000000 1.0
C      1  0.5695440000000  0.5521010000000  0.5488740000000 1.0
C      1  0.5146480000000  0.6038610000000  0.4950850000000 1.0
C      1  0.4641570000000  0.5548180000000  0.5104500000000 1.0
C      1  0.5666360000000  0.5134680000000  0.4331240000000 1.0
C      1  0.5531450000000  0.5646670000000  0.5016580000000 1.0
C      1  0.4766090000000  0.5831420000000  0.4636420000000 1.0
C      1  0.4600630000000  0.5083220000000  0.5688790000000 1.0
C      1  0.5113100000000  0.4855790000000  0.4593190000000 1.0
C      1  0.5493280000000  0.4163010000000  0.4489110000000 1.0
C      1  0.5650630000000  0.4617140000000  0.4414680000000 1.0
C      1  0.6212150000000  0.5105240000000  0.4993550000000 1.0
C      1  0.6018230000000  0.4698450000000  0.5202180000000 1.0
C      1  0.5426240000000  0.4950450000000  0.4975270000000 1.0
C      1  0.5100180000000  0.5198690000000  0.5537480000000 1.0
C      1  0.4403450000000  0.5702030000000  0.4981910000000 1.0
C      1  0.5800300000000  0.5049020000000  0.5618210000000 1.0
C      1  0.5069440000000  0.5448000000000  0.5171400000000 1.0
C      1  0.4257420000000  0.4644700000000  0.5294780000000 1.0
C      1  0.5077560000000  0.5727170000000  0.4332190000000 1.0
C      1  0.4810720000000  0.5159260000000  0.3988880000000 1.0
C      1  0.4174350000000  0.4435010000000  0.5097140000000 1.0
C      1  0.4223570000000  0.4509270000000  0.4820660000000 1.0
C      1  0.4832690000000  0.5988180000000  0.5264880000000 1.0
C      1  0.4874750000000  0.4766340000000  0.5973360000000 1.0
C      1  0.5347120000000  0.5272540000000  0.4639810000000 1.0
C      1  0.4059510000000  0.5174900000000  0.4949760000000 1.0
C      1  0.5003570000000  0.5271970000000  0.4165040000000 1.0
C      1  0.4384960000000  0.5137040000000  0.4579300000000 1.0
C      1  0.5287080000000  0.4961150000000  0.4029840000000 1.0
C      1  0.4661840000000  0.4610300000000  0.6066880000000 1.0
C      1  0.4804900000000  0.5650880000000  0.5662240000000 1.0
C      1  0.5072860000000  0.4608540000000  0.4724170000000 1.0
C      1  0.4858690000000  0.4830070000000  0.5691470000000 1.0
C      1  0.5161820000000  0.5381940000000  0.5762690000000 1.0
C      1  0.5640480000000  0.4390080000000  0.4602130000000 1.0
C      1  0.4854460000000  0.4999260000000  0.4537380000000 1.0
C      1  0.5968830000000  0.5160280000000  0.4860240000000 1.0
C      1  0.5281340000000  0.4530600000000  0.4929430000000 1.0
C      1  0.4480360000000  0.5581760000000  0.4070430000000 1.0
C      1  0.4987180000000  0.4196010000000  0.5685510000000 1.0
C      1  0.4560360000000  0.4486630000000  0.5830290000000 1.0
C      1  0.5617780000000  0.5270650000000  0.5642610000000 1.0
C      1  0.4743780000000  0.5480610000000  0.5905540000000 1.0
C      1  0.5525400000000  0.5622450000000  0.4343610000000 1.0
C      1  0.5428880000000  0.4253950000000  0.4207390000000 1.0
C      1  0.4727320000000  0.4900320000000  0.4950150000000 1.0
C      1  0.5993200000000  0.5148610000000  0.5422010000000 1.0
C      1  0.4107240000000  0.4703430000000  0.4420550000000 1.0
C      1  0.5135540000000  0.4226500000000  0.4162980000000 1.0
C      1  0.4032880000000  0.4834920000000  0.5336130000000 1.0
C      1  0.4144860000000  0.5569310000000  0.5240730000000 1.0
C      1  0.5418870000000  0.5244300000000  0.5845660000000 1.0
C      1  0.5474890000000  0.4678530000000  0.5787740000000 1.0
C      1  0.4518270000000  0.4190350000000  0.4913840000000 1.0
C      1  0.4898040000000  0.5274560000000  0.4444830000000 1.0
C      1  0.5265620000000  0.4780260000000  0.5409480000000 1.0
C      1  0.5111910000000  0.5543380000000  0.4101800000000 1.0
C      1  0.4041480000000  0.5451920000000  0.4993520000000 1.0
C      1  0.5063390000000  0.4047570000000  0.5428560000000 1.0
C      1  0.4352220000000  0.4215230000000  0.5154450000000 1.0
C      1  0.5352270000000  0.4053550000000  0.5367390000000 1.0
C      1  0.4911590000000  0.5671030000000  0.5063940000000 1.0
C      1  0.5646130000000  0.4901700000000  0.4526780000000 1.0
C      1  0.5134640000000  0.4936950000000  0.5623000000000 1.0
C      1  0.4213760000000  0.5599690000000  0.4539080000000 1.0
C      1  0.5247810000000  0.4695570000000  0.4119670000000 1.0
C      1  0.5110280000000  0.5673280000000  0.5650660000000 1.0
C      1  0.5857850000000  0.4587790000000  0.5432960000000 1.0
C      1  0.5229130000000  0.4019420000000  0.4902010000000 1.0
C      1  0.6129020000000  0.4972890000000  0.5229720000000 1.0
C      1  0.4603080000000  0.5532120000000  0.5420870000000 1.0
C      1  0.5816510000000  0.4373890000000  0.4839810000000 1.0
C      1  0.4232440000000  0.5329320000000  0.4400670000000 1.0
C      1  0.4764500000000  0.4441380000000  0.4284960000000 1.0
C      1  0.5163330000000  0.4514410000000  0.5436540000000 1.0
C      1  0.4494100000000  0.4834240000000  0.5157950000000 1.0
C      1  0.4510950000000  0.4293510000000  0.5389450000000 1.0
C      1  0.5908600000000  0.5411790000000  0.5306480000000 1.0
C      1  0.4094000000000  0.4740180000000  0.4697230000000 1.0
C      1  0.4555020000000  0.5340670000000  0.4720330000000 1.0
C      1  0.5317100000000  0.4404930000000  0.5683440000000 1.0
C      1  0.5872110000000  0.4904380000000  0.4734950000000 1.0
C      1  0.4544870000000  0.4625360000000  0.4389630000000 1.0
C      1  0.4434470000000  0.5983310000000  0.5010790000000 1.0
C      1  0.4384060000000  0.5329660000000  0.4145990000000 1.0
C      1  0.5713390000000  0.4344860000000  0.5357440000000 1.0
C      1  0.5337130000000  0.5418820000000  0.5054210000000 1.0
C      1  0.4477300000000  0.5626650000000  0.4693060000000 1.0
C      1  0.5136980000000  0.4373910000000  0.5151940000000 1.0
C      1  0.5305310000000  0.4949640000000  0.5877580000000 1.0
C      1  0.4503220000000  0.5321530000000  0.5858040000000 1.0
C      1  0.5004050000000  0.5667100000000  0.4765360000000 1.0
C      1  0.4823370000000  0.5863020000000  0.4348980000000 1.0
C      1  0.4318370000000  0.5577640000000  0.5482310000000 1.0
C      1  0.4287490000000  0.4572370000000  0.4269050000000 1.0
C      1  0.5243540000000  0.5783670000000  0.5400750000000 1.0
C      1  0.5234010000000  0.4097980000000  0.4615460000000 1.0
C      1  0.4284960000000  0.5467770000000  0.5741770000000 1.0
END
