TITL C-951342-2639-660 -1.45036510423165e-06 125000 -662.085881428146 0 0 108 (C1) n - 1
REM
REM in /home/bkarasulu/work/CARBON/AIRSS/Generating-Clusters/EDIP-Nigel-Params/with-SteepDescent/Only-C1/SD-CG/HFTN-CG
REM
REM
REM
REM
REM
REM ./C.cell (11c1c37f851c82e70ff6c80c92926a4b)
REM
REM compiler GCC version 9.2.1 20190827 (Red Hat 9.2.1-1)
REM options -cpp -mtune=generic -march=x86-64 -g -O0 -fpre-include=/usr/include/finclude/math-vector-fortran.h
REM seed -439405945 -395895642 2137770908 -358470828 -707234880 -2094193694 420016997 -482245371 2093124545 -1741562423 -1923216822 1873928084 -1124789979 632945955 23044879 740931022 706827819 -451831828 -815926655 -765083931 -1593365152 1734605464 -1987867419 -1543833006 456498949 643302302 -1961229 485564605 -2064135075 -109191528 923744990 747579070 -987722638
REM
CELL 1.54180   50.00000   50.00000   50.00000   90.00000   90.00000   90.00000
LATT -1
SFAC C  
C      1  0.5032100000000  0.4106320000000  0.5151410000000 1.0
C      1  0.5561550000000  0.5687180000000  0.5119880000000 1.0
C      1  0.4241110000000  0.4770600000000  0.5213380000000 1.0
C      1  0.4406950000000  0.5093160000000  0.4620810000000 1.0
C      1  0.5101250000000  0.4421300000000  0.4430190000000 1.0
C      1  0.4501240000000  0.5484330000000  0.5649290000000 1.0
C      1  0.5905540000000  0.4608740000000  0.4949310000000 1.0
C      1  0.5691600000000  0.4992800000000  0.4343330000000 1.0
C      1  0.5434620000000  0.4897730000000  0.4201880000000 1.0
C      1  0.4862630000000  0.4133470000000  0.4746660000000 1.0
C      1  0.5287570000000  0.5400140000000  0.4255370000000 1.0
C      1  0.4741730000000  0.4383610000000  0.5560950000000 1.0
C      1  0.4591780000000  0.4779600000000  0.5705760000000 1.0
C      1  0.4112530000000  0.4957100000000  0.4995520000000 1.0
C      1  0.5157660000000  0.4331640000000  0.5275690000000 1.0
C      1  0.4243090000000  0.5743740000000  0.4616020000000 1.0
C      1  0.5671900000000  0.4836490000000  0.5644910000000 1.0
C      1  0.4872410000000  0.5315270000000  0.4009990000000 1.0
C      1  0.4231080000000  0.5098470000000  0.5745600000000 1.0
C      1  0.5468000000000  0.4506770000000  0.5573630000000 1.0
C      1  0.4679300000000  0.5256840000000  0.5714350000000 1.0
C      1  0.5655760000000  0.4527480000000  0.4468250000000 1.0
C      1  0.5217420000000  0.5621340000000  0.4644570000000 1.0
C      1  0.5524450000000  0.4525200000000  0.4210860000000 1.0
C      1  0.5544260000000  0.4265930000000  0.5058470000000 1.0
C      1  0.4987610000000  0.5618080000000  0.5805450000000 1.0
C      1  0.4435940000000  0.5300280000000  0.5148310000000 1.0
C      1  0.5653320000000  0.5260200000000  0.5308900000000 1.0
C      1  0.5821210000000  0.4771440000000  0.4488710000000 1.0
C      1  0.5301550000000  0.5842650000000  0.5121840000000 1.0
C      1  0.4947110000000  0.5694750000000  0.5539710000000 1.0
C      1  0.4025030000000  0.5422560000000  0.4909870000000 1.0
C      1  0.5079210000000  0.5610420000000  0.4303970000000 1.0
C      1  0.4942120000000  0.5142220000000  0.5080750000000 1.0
C      1  0.5997560000000  0.5144090000000  0.5441720000000 1.0
C      1  0.5200930000000  0.5097010000000  0.4266200000000 1.0
C      1  0.5832680000000  0.5325150000000  0.4763650000000 1.0
C      1  0.5172120000000  0.5797530000000  0.5388530000000 1.0
C      1  0.4857010000000  0.4307800000000  0.4517430000000 1.0
C      1  0.5831260000000  0.4742610000000  0.5193700000000 1.0
C      1  0.4821860000000  0.5536520000000  0.4177540000000 1.0
C      1  0.5326540000000  0.4876490000000  0.4626990000000 1.0
C      1  0.4600520000000  0.4238800000000  0.5349590000000 1.0
C      1  0.4128720000000  0.5045020000000  0.4703190000000 1.0
C      1  0.5011230000000  0.4480710000000  0.5485980000000 1.0
C      1  0.5189670000000  0.5310350000000  0.5148320000000 1.0
C      1  0.4237270000000  0.4477840000000  0.5109390000000 1.0
C      1  0.4141800000000  0.5228680000000  0.5114760000000 1.0
C      1  0.5512950000000  0.5663700000000  0.4614500000000 1.0
C      1  0.4016520000000  0.5205510000000  0.5379090000000 1.0
C      1  0.5267860000000  0.5423000000000  0.5421830000000 1.0
C      1  0.4531790000000  0.4818460000000  0.5204810000000 1.0
C      1  0.4750750000000  0.4143120000000  0.5117580000000 1.0
C      1  0.4694130000000  0.4907960000000  0.5441780000000 1.0
C      1  0.4940670000000  0.5065130000000  0.4114300000000 1.0
C      1  0.5059990000000  0.4885860000000  0.5159580000000 1.0
C      1  0.5175100000000  0.4912580000000  0.5613230000000 1.0
C      1  0.4699800000000  0.5583240000000  0.5416950000000 1.0
C      1  0.5547650000000  0.5467410000000  0.4388870000000 1.0
C      1  0.4630100000000  0.4706140000000  0.4944710000000 1.0
C      1  0.5123070000000  0.4073950000000  0.4874010000000 1.0
C      1  0.4514240000000  0.5190030000000  0.4362680000000 1.0
C      1  0.4410340000000  0.5671210000000  0.4419440000000 1.0
C      1  0.4112730000000  0.4949860000000  0.5504310000000 1.0
C      1  0.4596940000000  0.5474250000000  0.4357990000000 1.0
C      1  0.4936120000000  0.4678970000000  0.4726090000000 1.0
C      1  0.4513490000000  0.5034940000000  0.5825940000000 1.0
C      1  0.5377100000000  0.4218760000000  0.4823790000000 1.0
C      1  0.4954960000000  0.5336330000000  0.5802460000000 1.0
C      1  0.4435930000000  0.4486210000000  0.4884450000000 1.0
C      1  0.5558270000000  0.5526780000000  0.5373120000000 1.0
C      1  0.5889110000000  0.4826660000000  0.4766390000000 1.0
C      1  0.5992160000000  0.5001240000000  0.5187160000000 1.0
C      1  0.5207400000000  0.4474440000000  0.5729200000000 1.0
C      1  0.4801980000000  0.4636260000000  0.5847710000000 1.0
C      1  0.5178860000000  0.5220470000000  0.5648790000000 1.0
C      1  0.4688740000000  0.5666390000000  0.5121670000000 1.0
C      1  0.5748200000000  0.5104790000000  0.5587150000000 1.0
C      1  0.5428950000000  0.5137180000000  0.4733850000000 1.0
C      1  0.5188960000000  0.5324480000000  0.4709830000000 1.0
C      1  0.5526090000000  0.4817710000000  0.5178610000000 1.0
C      1  0.5088580000000  0.4723130000000  0.5850810000000 1.0
C      1  0.5438250000000  0.4317120000000  0.5324380000000 1.0
C      1  0.4230510000000  0.5635660000000  0.4873530000000 1.0
C      1  0.5654120000000  0.5229560000000  0.4532770000000 1.0
C      1  0.3964350000000  0.5276810000000  0.4670370000000 1.0
C      1  0.5442940000000  0.4796230000000  0.5482530000000 1.0
C      1  0.5246420000000  0.4564220000000  0.4236600000000 1.0
C      1  0.4975930000000  0.4799830000000  0.5416340000000 1.0
C      1  0.4329270000000  0.4298930000000  0.5306210000000 1.0
C      1  0.4717730000000  0.4985060000000  0.4288310000000 1.0
C      1  0.5654660000000  0.5559950000000  0.4855860000000 1.0
C      1  0.4630310000000  0.4922140000000  0.4716610000000 1.0
C      1  0.4925810000000  0.5171720000000  0.4766180000000 1.0
C      1  0.5893370000000  0.5080280000000  0.4912220000000 1.0
C      1  0.5420620000000  0.4573440000000  0.4670200000000 1.0
C      1  0.4226960000000  0.5378590000000  0.5642690000000 1.0
C      1  0.5067320000000  0.4658070000000  0.4993690000000 1.0
C      1  0.5040060000000  0.4928440000000  0.4583090000000 1.0
C      1  0.4625810000000  0.4480060000000  0.4483240000000 1.0
C      1  0.5114250000000  0.5773610000000  0.4889340000000 1.0
C      1  0.4949930000000  0.5590660000000  0.5029140000000 1.0
C      1  0.4660890000000  0.4713930000000  0.4335550000000 1.0
C      1  0.4480160000000  0.5524690000000  0.4981580000000 1.0
C      1  0.4700310000000  0.5218350000000  0.5286010000000 1.0
C      1  0.5480450000000  0.5116600000000  0.5076250000000 1.0
C      1  0.5367930000000  0.4607160000000  0.4999420000000 1.0
C      1  0.4382340000000  0.4426300000000  0.4614590000000 1.0
END
