TITL C-951348-1603-269 -7.72215586099485e-07 125000 -787.573478907575 0 0 127 (C1) n - 1
REM
REM in /home/bkarasulu/work/CARBON/AIRSS/Generating-Clusters/EDIP-Nigel-Params/with-SteepDescent/Only-C1/SD-CG/HFTN-CG
REM
REM
REM
REM
REM
REM ./C.cell (11c1c37f851c82e70ff6c80c92926a4b)
REM
REM compiler GCC version 9.2.1 20190827 (Red Hat 9.2.1-1)
REM options -cpp -mtune=generic -march=x86-64 -g -O0 -fpre-include=/usr/include/finclude/math-vector-fortran.h
REM seed 1380072369 637461877 -1452164453 1674688673 478201524 -1279571821 14935765 -1792427121 1893276952 2019699849 1120477714 2144293962 -1270469810 1252569190 -1188936963 463580819 -618351129 -1340575576 -202773666 1907920509 -1408260444 -83001563 1792879878 -1079778736 -2024360445 1292188265 671781718 -1787586092 -2097862408 -1368079692 1014854193 -1710028339 -1558535916
REM
CELL 1.54180   50.00000   50.00000   50.00000   90.00000   90.00000   90.00000
LATT -1
SFAC C  
C      1  0.5546690000000  0.4779200000000  0.4734340000000 1.0
C      1  0.5488640000000  0.4309580000000  0.5417410000000 1.0
C      1  0.5321040000000  0.5760830000000  0.5485410000000 1.0
C      1  0.4033730000000  0.5070810000000  0.5063670000000 1.0
C      1  0.4947070000000  0.4614100000000  0.4963160000000 1.0
C      1  0.4887660000000  0.5370910000000  0.4976790000000 1.0
C      1  0.4432680000000  0.4503200000000  0.5372680000000 1.0
C      1  0.4286430000000  0.4996580000000  0.4386360000000 1.0
C      1  0.4532190000000  0.4468440000000  0.4906220000000 1.0
C      1  0.4053850000000  0.5296920000000  0.5245210000000 1.0
C      1  0.5822120000000  0.4800380000000  0.4897150000000 1.0
C      1  0.5691500000000  0.4755860000000  0.5639150000000 1.0
C      1  0.5515140000000  0.4457370000000  0.4950910000000 1.0
C      1  0.5462510000000  0.4647590000000  0.5781880000000 1.0
C      1  0.4604510000000  0.5311390000000  0.4436210000000 1.0
C      1  0.5132780000000  0.5697350000000  0.4367900000000 1.0
C      1  0.5197730000000  0.5051560000000  0.5166890000000 1.0
C      1  0.4343610000000  0.5301150000000  0.5916720000000 1.0
C      1  0.5127490000000  0.5863920000000  0.4885570000000 1.0
C      1  0.5303890000000  0.4899000000000  0.5403360000000 1.0
C      1  0.4172680000000  0.5134180000000  0.4828720000000 1.0
C      1  0.5722350000000  0.5515570000000  0.4848240000000 1.0
C      1  0.4802090000000  0.5467750000000  0.5856580000000 1.0
C      1  0.4478530000000  0.4557610000000  0.4219020000000 1.0
C      1  0.5868510000000  0.4494400000000  0.4583560000000 1.0
C      1  0.4468540000000  0.5883690000000  0.4850230000000 1.0
C      1  0.5261380000000  0.4278190000000  0.4979190000000 1.0
C      1  0.4761090000000  0.4887270000000  0.4418320000000 1.0
C      1  0.4460940000000  0.4848560000000  0.5816920000000 1.0
C      1  0.5617710000000  0.4499210000000  0.5231770000000 1.0
C      1  0.4073840000000  0.4630340000000  0.5083140000000 1.0
C      1  0.4495510000000  0.4301230000000  0.4674350000000 1.0
C      1  0.4683380000000  0.5587530000000  0.4544850000000 1.0
C      1  0.5020270000000  0.5307840000000  0.5259120000000 1.0
C      1  0.5450970000000  0.4507770000000  0.4321870000000 1.0
C      1  0.5685790000000  0.5188310000000  0.4526180000000 1.0
C      1  0.5329430000000  0.4011880000000  0.5074460000000 1.0
C      1  0.5449290000000  0.5073890000000  0.4699140000000 1.0
C      1  0.5643370000000  0.5471620000000  0.4412410000000 1.0
C      1  0.4929620000000  0.4588460000000  0.5873630000000 1.0
C      1  0.4527510000000  0.5093120000000  0.5978650000000 1.0
C      1  0.4338040000000  0.5369710000000  0.4867040000000 1.0
C      1  0.4852010000000  0.4616360000000  0.4474990000000 1.0
C      1  0.4310440000000  0.5340220000000  0.5640140000000 1.0
C      1  0.5086990000000  0.4733610000000  0.6056980000000 1.0
C      1  0.5192430000000  0.5150480000000  0.4562430000000 1.0
C      1  0.4075540000000  0.5199870000000  0.5522190000000 1.0
C      1  0.4698010000000  0.5791660000000  0.5213700000000 1.0
C      1  0.4340310000000  0.4936620000000  0.4691100000000 1.0
C      1  0.5578830000000  0.5888350000000  0.5111960000000 1.0
C      1  0.5767150000000  0.4991110000000  0.5238170000000 1.0
C      1  0.5850670000000  0.5169830000000  0.5455800000000 1.0
C      1  0.5000310000000  0.4342580000000  0.4159720000000 1.0
C      1  0.5259960000000  0.5733860000000  0.4642430000000 1.0
C      1  0.5160060000000  0.5506520000000  0.5523610000000 1.0
C      1  0.4829330000000  0.4249590000000  0.5260200000000 1.0
C      1  0.5029000000000  0.4094790000000  0.4293710000000 1.0
C      1  0.5664740000000  0.4316240000000  0.4714280000000 1.0
C      1  0.4625080000000  0.5248870000000  0.4906880000000 1.0
C      1  0.4760080000000  0.4905590000000  0.5290300000000 1.0
C      1  0.4411100000000  0.5770670000000  0.5125330000000 1.0
C      1  0.4388810000000  0.4434770000000  0.4454120000000 1.0
C      1  0.5168760000000  0.4293870000000  0.4681780000000 1.0
C      1  0.4343390000000  0.4701700000000  0.4946250000000 1.0
C      1  0.5307970000000  0.5309280000000  0.5701940000000 1.0
C      1  0.5678830000000  0.5180850000000  0.5909360000000 1.0
C      1  0.5064310000000  0.4422910000000  0.5170290000000 1.0
C      1  0.5801770000000  0.5029960000000  0.5707390000000 1.0
C      1  0.6016830000000  0.4612130000000  0.4791680000000 1.0
C      1  0.4307950000000  0.5305390000000  0.4366960000000 1.0
C      1  0.5255950000000  0.4488490000000  0.5497710000000 1.0
C      1  0.5536310000000  0.5410960000000  0.5055450000000 1.0
C      1  0.4731410000000  0.4440460000000  0.4146070000000 1.0
C      1  0.5445090000000  0.4052890000000  0.5314960000000 1.0
C      1  0.5492270000000  0.5375680000000  0.5901160000000 1.0
C      1  0.4767110000000  0.5775940000000  0.5484890000000 1.0
C      1  0.5037570000000  0.5289340000000  0.4749850000000 1.0
C      1  0.4976620000000  0.4087860000000  0.4569250000000 1.0
C      1  0.5213450000000  0.5024970000000  0.5675200000000 1.0
C      1  0.4914630000000  0.5205830000000  0.4154850000000 1.0
C      1  0.4779460000000  0.5455010000000  0.4120800000000 1.0
C      1  0.5190060000000  0.5980070000000  0.5355260000000 1.0
C      1  0.5582940000000  0.5734300000000  0.5357460000000 1.0
C      1  0.5546570000000  0.5542770000000  0.4159820000000 1.0
C      1  0.5748060000000  0.4953680000000  0.4333900000000 1.0
C      1  0.4920850000000  0.5621650000000  0.5657740000000 1.0
C      1  0.5555700000000  0.5650490000000  0.4629850000000 1.0
C      1  0.4261760000000  0.5496070000000  0.5125790000000 1.0
C      1  0.4123020000000  0.4564110000000  0.5369060000000 1.0
C      1  0.5037430000000  0.4564860000000  0.4687110000000 1.0
C      1  0.4562640000000  0.4411180000000  0.5630160000000 1.0
C      1  0.5293840000000  0.4841870000000  0.5900950000000 1.0
C      1  0.4555790000000  0.4331140000000  0.5160470000000 1.0
C      1  0.4835610000000  0.5883500000000  0.4962480000000 1.0
C      1  0.4839200000000  0.5668860000000  0.4314190000000 1.0
C      1  0.3877880000000  0.4835950000000  0.5070970000000 1.0
C      1  0.5131770000000  0.4808980000000  0.4041440000000 1.0
C      1  0.5433300000000  0.4290430000000  0.4522900000000 1.0
C      1  0.4057200000000  0.4809910000000  0.5526440000000 1.0
C      1  0.5269100000000  0.5509680000000  0.4181490000000 1.0
C      1  0.4914910000000  0.5049620000000  0.5681690000000 1.0
C      1  0.5658910000000  0.4689640000000  0.4464650000000 1.0
C      1  0.5953510000000  0.5067700000000  0.4915520000000 1.0
C      1  0.4804700000000  0.5192090000000  0.5919620000000 1.0
C      1  0.5885710000000  0.5275040000000  0.4729890000000 1.0
C      1  0.5304940000000  0.5964370000000  0.5095050000000 1.0
C      1  0.4440700000000  0.5736800000000  0.4601780000000 1.0
C      1  0.4798060000000  0.5157410000000  0.5430610000000 1.0
C      1  0.4251060000000  0.5509070000000  0.4607350000000 1.0
C      1  0.5640570000000  0.5453110000000  0.5320070000000 1.0
C      1  0.5437080000000  0.5144630000000  0.4993150000000 1.0
C      1  0.5043880000000  0.4385460000000  0.5692280000000 1.0
C      1  0.4940630000000  0.4888150000000  0.5062750000000 1.0
C      1  0.4516390000000  0.4855250000000  0.4227810000000 1.0
C      1  0.5325180000000  0.5023570000000  0.4090390000000 1.0
C      1  0.4851710000000  0.4940180000000  0.4044450000000 1.0
C      1  0.4636370000000  0.5075300000000  0.4655190000000 1.0
C      1  0.4809100000000  0.4258580000000  0.5557900000000 1.0
C      1  0.4637780000000  0.4609460000000  0.5829330000000 1.0
C      1  0.4705740000000  0.4121990000000  0.4631870000000 1.0
C      1  0.5591280000000  0.4778160000000  0.5360770000000 1.0
C      1  0.5599610000000  0.4973820000000  0.4102770000000 1.0
C      1  0.5189780000000  0.4563490000000  0.4194910000000 1.0
C      1  0.4543440000000  0.5297310000000  0.5481850000000 1.0
C      1  0.5185970000000  0.5227090000000  0.4258630000000 1.0
C      1  0.4331630000000  0.4916390000000  0.5543950000000 1.0
C      1  0.4486000000000  0.4807410000000  0.5289990000000 1.0
END
