TITL C-951343-2256-35 1.18199953505885e-06 125000 -1143.83375739932 0 0 181 (C1) n - 1
REM
REM in /home/bkarasulu/work/CARBON/AIRSS/Generating-Clusters/EDIP-Nigel-Params/with-SteepDescent/Only-C1/SD-CG/HFTN-CG
REM
REM
REM
REM
REM
REM ./C.cell (11c1c37f851c82e70ff6c80c92926a4b)
REM
REM compiler GCC version 9.2.1 20190827 (Red Hat 9.2.1-1)
REM options -cpp -mtune=generic -march=x86-64 -g -O0 -fpre-include=/usr/include/finclude/math-vector-fortran.h
REM seed -2112614282 105044167 1252268353 -1672639219 1936968592 2099129703 901168480 -691148252 -700203604 1722939057 1338866995 -1302609476 -1172358909 -1895128996 -594254853 -1565151479 -1497672112 972443906 -795790529 -654656331 -453861078 1979058767 1362365663 -142056607 1328237327 -252418442 -481703054 -608363438 -1608652632 1134876657 -1577678936 606460511 -1406417599
REM
CELL 1.54180   50.00000   50.00000   50.00000   90.00000   90.00000   90.00000
LATT -1
SFAC C  
C      1  0.5933620000000  0.4838730000000  0.5237320000000 1.0
C      1  0.5448690000000  0.5375220000000  0.5869960000000 1.0
C      1  0.4651720000000  0.3888190000000  0.5266160000000 1.0
C      1  0.5034950000000  0.5477100000000  0.5903940000000 1.0
C      1  0.4404820000000  0.6110450000000  0.5072260000000 1.0
C      1  0.5160110000000  0.4312980000000  0.5725090000000 1.0
C      1  0.4554910000000  0.3978970000000  0.5011650000000 1.0
C      1  0.6187750000000  0.5178840000000  0.5507580000000 1.0
C      1  0.6013580000000  0.5411050000000  0.5413690000000 1.0
C      1  0.6101660000000  0.4652700000000  0.4830200000000 1.0
C      1  0.5413860000000  0.5860610000000  0.4314540000000 1.0
C      1  0.4720030000000  0.5165190000000  0.4122220000000 1.0
C      1  0.4675680000000  0.5756820000000  0.4391430000000 1.0
C      1  0.4478550000000  0.4420510000000  0.5264310000000 1.0
C      1  0.4999880000000  0.4978660000000  0.4851410000000 1.0
C      1  0.5115980000000  0.5845130000000  0.5506530000000 1.0
C      1  0.5650390000000  0.4351920000000  0.4661210000000 1.0
C      1  0.4299760000000  0.5511210000000  0.5225370000000 1.0
C      1  0.4567840000000  0.5426400000000  0.5882380000000 1.0
C      1  0.5873600000000  0.4243420000000  0.4816990000000 1.0
C      1  0.4228820000000  0.5674210000000  0.4495040000000 1.0
C      1  0.5281290000000  0.4876550000000  0.4870310000000 1.0
C      1  0.4361610000000  0.5038050000000  0.5800650000000 1.0
C      1  0.5156470000000  0.5106630000000  0.4351900000000 1.0
C      1  0.5999210000000  0.4867330000000  0.4687150000000 1.0
C      1  0.4397350000000  0.5063360000000  0.4698200000000 1.0
C      1  0.3999890000000  0.4232590000000  0.5144030000000 1.0
C      1  0.4602440000000  0.5138750000000  0.5931360000000 1.0
C      1  0.5420060000000  0.4386040000000  0.5623590000000 1.0
C      1  0.4464120000000  0.5559560000000  0.4354890000000 1.0
C      1  0.4924730000000  0.4723120000000  0.3954220000000 1.0
C      1  0.4211850000000  0.5118280000000  0.4257320000000 1.0
C      1  0.4753380000000  0.5121620000000  0.5513930000000 1.0
C      1  0.4192670000000  0.4881230000000  0.5303890000000 1.0
C      1  0.4950200000000  0.5740440000000  0.4328030000000 1.0
C      1  0.5590060000000  0.5690040000000  0.5504980000000 1.0
C      1  0.4603480000000  0.5954600000000  0.4593340000000 1.0
C      1  0.4928170000000  0.3856110000000  0.5215370000000 1.0
C      1  0.4913650000000  0.6112980000000  0.5096280000000 1.0
C      1  0.4300930000000  0.4765950000000  0.5796050000000 1.0
C      1  0.5312090000000  0.4875880000000  0.4488700000000 1.0
C      1  0.4159900000000  0.5215840000000  0.5378500000000 1.0
C      1  0.5745640000000  0.4822960000000  0.4555410000000 1.0
C      1  0.6070620000000  0.4981320000000  0.5734050000000 1.0
C      1  0.4971370000000  0.3788810000000  0.4932110000000 1.0
C      1  0.4872400000000  0.4450840000000  0.4071660000000 1.0
C      1  0.5204490000000  0.3946130000000  0.4542450000000 1.0
C      1  0.4196670000000  0.5499330000000  0.4731520000000 1.0
C      1  0.5728130000000  0.5223720000000  0.4924710000000 1.0
C      1  0.4750350000000  0.4093750000000  0.4564090000000 1.0
C      1  0.4811110000000  0.4810000000000  0.4493420000000 1.0
C      1  0.5294880000000  0.5354840000000  0.4714720000000 1.0
C      1  0.4271130000000  0.4320950000000  0.4779160000000 1.0
C      1  0.5729680000000  0.4994230000000  0.5391660000000 1.0
C      1  0.5150930000000  0.5947970000000  0.5204210000000 1.0
C      1  0.5026610000000  0.4667510000000  0.5240870000000 1.0
C      1  0.4443440000000  0.4274210000000  0.5511550000000 1.0
C      1  0.5924300000000  0.5861250000000  0.5235860000000 1.0
C      1  0.4664800000000  0.4828420000000  0.5554880000000 1.0
C      1  0.4178030000000  0.5234290000000  0.5685390000000 1.0
C      1  0.3818900000000  0.4704790000000  0.5259410000000 1.0
C      1  0.5163160000000  0.6051540000000  0.4672270000000 1.0
C      1  0.4296370000000  0.5480350000000  0.5791630000000 1.0
C      1  0.5084380000000  0.4062140000000  0.5627100000000 1.0
C      1  0.3990530000000  0.5148170000000  0.4975910000000 1.0
C      1  0.4079910000000  0.4296840000000  0.5400200000000 1.0
C      1  0.4989980000000  0.5275480000000  0.4816170000000 1.0
C      1  0.3993770000000  0.5282660000000  0.4712650000000 1.0
C      1  0.5311190000000  0.4347630000000  0.4837280000000 1.0
C      1  0.4753570000000  0.4379710000000  0.4748320000000 1.0
C      1  0.4130970000000  0.5063910000000  0.4557210000000 1.0
C      1  0.4239130000000  0.5936360000000  0.4913300000000 1.0
C      1  0.5354360000000  0.5635350000000  0.4122730000000 1.0
C      1  0.5311330000000  0.4889300000000  0.5886960000000 1.0
C      1  0.4795400000000  0.5606250000000  0.5827460000000 1.0
C      1  0.4351050000000  0.5731070000000  0.5431580000000 1.0
C      1  0.5315770000000  0.5616910000000  0.5601300000000 1.0
C      1  0.4872510000000  0.5011180000000  0.5987770000000 1.0
C      1  0.5068170000000  0.4261330000000  0.4190950000000 1.0
C      1  0.6010180000000  0.4442770000000  0.4988450000000 1.0
C      1  0.5860270000000  0.4556080000000  0.5218190000000 1.0
C      1  0.4581450000000  0.4446020000000  0.4110960000000 1.0
C      1  0.5339820000000  0.4318890000000  0.4166060000000 1.0
C      1  0.5029560000000  0.4735750000000  0.5983210000000 1.0
C      1  0.5657880000000  0.5236770000000  0.5218800000000 1.0
C      1  0.5534100000000  0.4167550000000  0.5487730000000 1.0
C      1  0.5427650000000  0.5975680000000  0.4794450000000 1.0
C      1  0.4121450000000  0.4643150000000  0.4401130000000 1.0
C      1  0.4438020000000  0.4802390000000  0.4824900000000 1.0
C      1  0.6092210000000  0.5630090000000  0.5223940000000 1.0
C      1  0.5585780000000  0.5835100000000  0.4558050000000 1.0
C      1  0.4019170000000  0.4374760000000  0.4904350000000 1.0
C      1  0.5225790000000  0.3880870000000  0.4815160000000 1.0
C      1  0.4159700000000  0.5655010000000  0.4987300000000 1.0
C      1  0.4846930000000  0.5352430000000  0.5082560000000 1.0
C      1  0.3955850000000  0.4545600000000  0.5463640000000 1.0
C      1  0.5685060000000  0.5034060000000  0.4386530000000 1.0
C      1  0.4611660000000  0.5862200000000  0.5417620000000 1.0
C      1  0.5402230000000  0.5596370000000  0.4879090000000 1.0
C      1  0.4835790000000  0.5775390000000  0.5586400000000 1.0
C      1  0.4905170000000  0.5708210000000  0.4766060000000 1.0
C      1  0.4587150000000  0.4625240000000  0.4616640000000 1.0
C      1  0.5774600000000  0.5028520000000  0.5698460000000 1.0
C      1  0.5893000000000  0.4502160000000  0.5524350000000 1.0
C      1  0.5806780000000  0.5510630000000  0.5598920000000 1.0
C      1  0.5760390000000  0.5525160000000  0.4881600000000 1.0
C      1  0.5592150000000  0.5026340000000  0.4124180000000 1.0
C      1  0.5049320000000  0.5234010000000  0.6060740000000 1.0
C      1  0.4685640000000  0.4897980000000  0.3971420000000 1.0
C      1  0.5707650000000  0.5309700000000  0.5778540000000 1.0
C      1  0.5146570000000  0.5944280000000  0.4403960000000 1.0
C      1  0.4600710000000  0.4791770000000  0.5057780000000 1.0
C      1  0.5322580000000  0.5159150000000  0.6018330000000 1.0
C      1  0.5000660000000  0.4069160000000  0.4401760000000 1.0
C      1  0.5958680000000  0.5487690000000  0.4450480000000 1.0
C      1  0.4439720000000  0.4285670000000  0.4308040000000 1.0
C      1  0.5812000000000  0.4156970000000  0.5405330000000 1.0
C      1  0.5770560000000  0.3933460000000  0.5202850000000 1.0
C      1  0.5477520000000  0.5109300000000  0.4760880000000 1.0
C      1  0.4866390000000  0.4877620000000  0.5092260000000 1.0
C      1  0.3966300000000  0.4792940000000  0.4596840000000 1.0
C      1  0.5180450000000  0.5165720000000  0.3914220000000 1.0
C      1  0.6194310000000  0.4880040000000  0.5377010000000 1.0
C      1  0.4647230000000  0.5969380000000  0.5141940000000 1.0
C      1  0.3921380000000  0.4662020000000  0.4897080000000 1.0
C      1  0.4565790000000  0.5469030000000  0.5024630000000 1.0
C      1  0.4727570000000  0.3883900000000  0.4788480000000 1.0
C      1  0.5028040000000  0.5212410000000  0.5624510000000 1.0
C      1  0.5147770000000  0.3907370000000  0.5402010000000 1.0
C      1  0.5440560000000  0.5998170000000  0.5112590000000 1.0
C      1  0.4070960000000  0.4678050000000  0.5673260000000 1.0
C      1  0.3795100000000  0.4976500000000  0.5346590000000 1.0
C      1  0.5842090000000  0.3997030000000  0.4944420000000 1.0
C      1  0.4478870000000  0.4726340000000  0.5310210000000 1.0
C      1  0.4237960000000  0.4822720000000  0.4194100000000 1.0
C      1  0.4507530000000  0.4275450000000  0.4976490000000 1.0
C      1  0.5128480000000  0.5698380000000  0.5009780000000 1.0
C      1  0.5670180000000  0.4558410000000  0.4460870000000 1.0
C      1  0.5429280000000  0.5263230000000  0.4047980000000 1.0
C      1  0.5433210000000  0.4785520000000  0.4073050000000 1.0
C      1  0.4641650000000  0.5751520000000  0.4927220000000 1.0
C      1  0.4129810000000  0.4878180000000  0.4998440000000 1.0
C      1  0.4306150000000  0.5937160000000  0.4623470000000 1.0
C      1  0.5416900000000  0.3983530000000  0.5271950000000 1.0
C      1  0.4451600000000  0.5301610000000  0.4200580000000 1.0
C      1  0.4532610000000  0.4616910000000  0.5850010000000 1.0
C      1  0.4960660000000  0.4722650000000  0.5533040000000 1.0
C      1  0.4486570000000  0.4721220000000  0.4082490000000 1.0
C      1  0.5639730000000  0.4562170000000  0.5685360000000 1.0
C      1  0.4901690000000  0.6095330000000  0.4798040000000 1.0
C      1  0.5598950000000  0.4813550000000  0.5818910000000 1.0
C      1  0.5171710000000  0.4876740000000  0.3974710000000 1.0
C      1  0.4782640000000  0.5381560000000  0.4603010000000 1.0
C      1  0.4834040000000  0.5120350000000  0.5240120000000 1.0
C      1  0.5019650000000  0.5523990000000  0.5217940000000 1.0
C      1  0.6114800000000  0.5344470000000  0.4635220000000 1.0
C      1  0.5059040000000  0.4473950000000  0.4747380000000 1.0
C      1  0.5475180000000  0.4551000000000  0.4242390000000 1.0
C      1  0.4486890000000  0.5347810000000  0.4745800000000 1.0
C      1  0.5299060000000  0.4743310000000  0.5153930000000 1.0
C      1  0.5073010000000  0.4679690000000  0.4539700000000 1.0
C      1  0.4853400000000  0.5109860000000  0.4400060000000 1.0
C      1  0.4605880000000  0.4368290000000  0.5736560000000 1.0
C      1  0.5293790000000  0.5368880000000  0.4398240000000 1.0
C      1  0.5055790000000  0.5594000000000  0.4104590000000 1.0
C      1  0.4945080000000  0.5336360000000  0.3988850000000 1.0
C      1  0.4336000000000  0.4464180000000  0.4516620000000 1.0
C      1  0.6058960000000  0.5557090000000  0.4947030000000 1.0
C      1  0.6010260000000  0.5133640000000  0.4817920000000 1.0
C      1  0.4225180000000  0.5726400000000  0.5681820000000 1.0
C      1  0.6128920000000  0.4687920000000  0.5617630000000 1.0
C      1  0.5313350000000  0.4099000000000  0.4992550000000 1.0
C      1  0.5646820000000  0.5852750000000  0.5271680000000 1.0
C      1  0.5368050000000  0.5212420000000  0.5260710000000 1.0
C      1  0.5374960000000  0.4932600000000  0.5370620000000 1.0
C      1  0.5191240000000  0.5392930000000  0.5420550000000 1.0
C      1  0.3821880000000  0.5212610000000  0.5199770000000 1.0
C      1  0.5743920000000  0.5589910000000  0.4596580000000 1.0
C      1  0.5174980000000  0.4939410000000  0.5611540000000 1.0
C      1  0.4533310000000  0.4039100000000  0.4382970000000 1.0
C      1  0.4950230000000  0.4518670000000  0.5766950000000 1.0
END
