TITL C-951345-2650-663 -2.70301069707848e-06 125000 -990.054407293355 0 0 158 (C1) n - 1
REM
REM in /home/bkarasulu/work/CARBON/AIRSS/Generating-Clusters/EDIP-Nigel-Params/with-SteepDescent/Only-C1/SD-CG/HFTN-CG
REM
REM
REM
REM
REM
REM ./C.cell (11c1c37f851c82e70ff6c80c92926a4b)
REM
REM compiler GCC version 9.2.1 20190827 (Red Hat 9.2.1-1)
REM options -cpp -mtune=generic -march=x86-64 -g -O0 -fpre-include=/usr/include/finclude/math-vector-fortran.h
REM seed 468655434 -222705934 844545947 999829497 -953166966 -682277640 -540933552 2087793422 -296188256 -201350405 508448210 1749597225 -890250335 17717493 -335526955 -602140509 -66454416 -96342503 -152796014 1457419226 484288592 1692702134 1621735160 -1813862117 -1825879878 1017047658 -786346171 -1995342157 1925449200 -1134192317 -1931434297 1371077773 494564315
REM
CELL 1.54180   50.00000   50.00000   50.00000   90.00000   90.00000   90.00000
LATT -1
SFAC C  
C      1  0.4357500000000  0.4856850000000  0.5005060000000 1.0
C      1  0.4924810000000  0.4325890000000  0.5378440000000 1.0
C      1  0.4132330000000  0.5422190000000  0.5542400000000 1.0
C      1  0.5882780000000  0.4608720000000  0.4586580000000 1.0
C      1  0.4861210000000  0.5184370000000  0.3993730000000 1.0
C      1  0.5004050000000  0.4881420000000  0.5324110000000 1.0
C      1  0.4241330000000  0.5429020000000  0.4572130000000 1.0
C      1  0.5340090000000  0.5551050000000  0.4152650000000 1.0
C      1  0.4460590000000  0.4248030000000  0.5193560000000 1.0
C      1  0.5010910000000  0.5779800000000  0.4537200000000 1.0
C      1  0.4789890000000  0.5806000000000  0.5556420000000 1.0
C      1  0.5112270000000  0.5046940000000  0.3927100000000 1.0
C      1  0.5442230000000  0.5354310000000  0.3981830000000 1.0
C      1  0.5861580000000  0.5577520000000  0.5271510000000 1.0
C      1  0.5241200000000  0.5261660000000  0.4470230000000 1.0
C      1  0.4039920000000  0.4633350000000  0.4674410000000 1.0
C      1  0.5053090000000  0.5634230000000  0.4123390000000 1.0
C      1  0.6013350000000  0.4728660000000  0.5052300000000 1.0
C      1  0.5414710000000  0.5492160000000  0.5898560000000 1.0
C      1  0.5453660000000  0.4597050000000  0.4233650000000 1.0
C      1  0.4558050000000  0.4570570000000  0.5843650000000 1.0
C      1  0.4753560000000  0.4145160000000  0.4135820000000 1.0
C      1  0.4909230000000  0.5884650000000  0.5060140000000 1.0
C      1  0.4497330000000  0.4839510000000  0.5975090000000 1.0
C      1  0.5697720000000  0.5771940000000  0.5112960000000 1.0
C      1  0.4307540000000  0.5675990000000  0.5490960000000 1.0
C      1  0.5014470000000  0.5406330000000  0.4883950000000 1.0
C      1  0.5269080000000  0.4752830000000  0.5339850000000 1.0
C      1  0.4922040000000  0.4087350000000  0.5193960000000 1.0
C      1  0.4969710000000  0.4544780000000  0.4930970000000 1.0
C      1  0.4256420000000  0.5499720000000  0.4883200000000 1.0
C      1  0.5208820000000  0.4505250000000  0.4737820000000 1.0
C      1  0.4512560000000  0.5806550000000  0.4516170000000 1.0
C      1  0.5308470000000  0.4167860000000  0.5630870000000 1.0
C      1  0.5417950000000  0.4106740000000  0.5118690000000 1.0
C      1  0.5414160000000  0.4281160000000  0.5357210000000 1.0
C      1  0.4496900000000  0.4504080000000  0.4791440000000 1.0
C      1  0.4394900000000  0.5253600000000  0.4036630000000 1.0
C      1  0.5484590000000  0.4358680000000  0.5790960000000 1.0
C      1  0.4533560000000  0.5487420000000  0.4120570000000 1.0
C      1  0.4680400000000  0.4124010000000  0.5042500000000 1.0
C      1  0.5814140000000  0.5544960000000  0.5567370000000 1.0
C      1  0.5292290000000  0.5081800000000  0.5767380000000 1.0
C      1  0.4979460000000  0.5862520000000  0.4269120000000 1.0
C      1  0.4593120000000  0.4724690000000  0.5154230000000 1.0
C      1  0.4453560000000  0.4923520000000  0.4708470000000 1.0
C      1  0.5454540000000  0.5968270000000  0.4687200000000 1.0
C      1  0.5399120000000  0.4832150000000  0.5613470000000 1.0
C      1  0.5848630000000  0.4265670000000  0.4948100000000 1.0
C      1  0.4712170000000  0.5938410000000  0.5294910000000 1.0
C      1  0.4241980000000  0.5282140000000  0.5796150000000 1.0
C      1  0.4959000000000  0.4527580000000  0.4307360000000 1.0
C      1  0.5153420000000  0.3938790000000  0.4758950000000 1.0
C      1  0.4865480000000  0.5048650000000  0.4857050000000 1.0
C      1  0.4918680000000  0.5484490000000  0.6047390000000 1.0
C      1  0.4771930000000  0.5332670000000  0.5359470000000 1.0
C      1  0.4004170000000  0.4561620000000  0.5207920000000 1.0
C      1  0.4883340000000  0.4903910000000  0.4590300000000 1.0
C      1  0.4747990000000  0.4349350000000  0.4850510000000 1.0
C      1  0.5635360000000  0.4202710000000  0.4530790000000 1.0
C      1  0.5032130000000  0.5187340000000  0.5333040000000 1.0
C      1  0.4615830000000  0.4814140000000  0.4124630000000 1.0
C      1  0.4890970000000  0.4693750000000  0.4082970000000 1.0
C      1  0.3993210000000  0.4755480000000  0.5421400000000 1.0
C      1  0.4861980000000  0.4802800000000  0.5062570000000 1.0
C      1  0.5732420000000  0.5616800000000  0.4847260000000 1.0
C      1  0.5705620000000  0.5321140000000  0.5196340000000 1.0
C      1  0.5247110000000  0.6074480000000  0.4842820000000 1.0
C      1  0.5477710000000  0.4291250000000  0.4301800000000 1.0
C      1  0.4815400000000  0.4228080000000  0.4601320000000 1.0
C      1  0.5765380000000  0.5015960000000  0.4376670000000 1.0
C      1  0.4717320000000  0.4652800000000  0.4525310000000 1.0
C      1  0.4368440000000  0.5043990000000  0.5344300000000 1.0
C      1  0.5354780000000  0.5775450000000  0.5518580000000 1.0
C      1  0.5894000000000  0.4470270000000  0.5167630000000 1.0
C      1  0.6144800000000  0.5022210000000  0.4688110000000 1.0
C      1  0.5068250000000  0.5001740000000  0.6001720000000 1.0
C      1  0.3937490000000  0.5175130000000  0.4849780000000 1.0
C      1  0.4600770000000  0.4476870000000  0.5338460000000 1.0
C      1  0.6093430000000  0.4739110000000  0.4764340000000 1.0
C      1  0.4976450000000  0.6000280000000  0.4733040000000 1.0
C      1  0.5215700000000  0.4152550000000  0.4320370000000 1.0
C      1  0.5216280000000  0.4654270000000  0.4437470000000 1.0
C      1  0.5462670000000  0.4578490000000  0.4900680000000 1.0
C      1  0.5184060000000  0.4765770000000  0.4008060000000 1.0
C      1  0.4522200000000  0.5391660000000  0.5775120000000 1.0
C      1  0.4767690000000  0.5023000000000  0.5676740000000 1.0
C      1  0.3889580000000  0.5011500000000  0.5310030000000 1.0
C      1  0.4495680000000  0.5530020000000  0.4427950000000 1.0
C      1  0.4469070000000  0.5746180000000  0.5232290000000 1.0
C      1  0.5838110000000  0.5104880000000  0.5365290000000 1.0
C      1  0.5296280000000  0.5043800000000  0.4947420000000 1.0
C      1  0.5191950000000  0.4467700000000  0.5307610000000 1.0
C      1  0.5663020000000  0.5019590000000  0.4660640000000 1.0
C      1  0.4855950000000  0.4350860000000  0.5858960000000 1.0
C      1  0.4993120000000  0.4606250000000  0.5783010000000 1.0
C      1  0.5684950000000  0.4425730000000  0.5398810000000 1.0
C      1  0.4376220000000  0.4411020000000  0.4379840000000 1.0
C      1  0.4693160000000  0.5324420000000  0.6014110000000 1.0
C      1  0.5548170000000  0.4264880000000  0.4901920000000 1.0
C      1  0.5530190000000  0.5585410000000  0.5647380000000 1.0
C      1  0.4708390000000  0.5364380000000  0.4549010000000 1.0
C      1  0.4261910000000  0.4824210000000  0.5541000000000 1.0
C      1  0.4987880000000  0.4189470000000  0.5644320000000 1.0
C      1  0.5404750000000  0.5748870000000  0.5224530000000 1.0
C      1  0.6062040000000  0.5185120000000  0.4927660000000 1.0
C      1  0.5353060000000  0.4629500000000  0.5825780000000 1.0
C      1  0.5126010000000  0.4958700000000  0.4434410000000 1.0
C      1  0.5771360000000  0.5173350000000  0.5854300000000 1.0
C      1  0.4177040000000  0.4376220000000  0.4607530000000 1.0
C      1  0.4066720000000  0.4729930000000  0.4971560000000 1.0
C      1  0.4390300000000  0.4714290000000  0.4322250000000 1.0
C      1  0.4140230000000  0.4844230000000  0.4480730000000 1.0
C      1  0.5008580000000  0.4270710000000  0.4151290000000 1.0
C      1  0.5482100000000  0.5559980000000  0.4406620000000 1.0
C      1  0.4107800000000  0.5228530000000  0.5305470000000 1.0
C      1  0.3867310000000  0.4946220000000  0.5016260000000 1.0
C      1  0.5411510000000  0.5156050000000  0.4706590000000 1.0
C      1  0.4429740000000  0.5914260000000  0.4751070000000 1.0
C      1  0.5078010000000  0.5739040000000  0.5642710000000 1.0
C      1  0.4826070000000  0.5467300000000  0.4026170000000 1.0
C      1  0.4475790000000  0.5339670000000  0.4987550000000 1.0
C      1  0.4434570000000  0.4569120000000  0.5577930000000 1.0
C      1  0.4858340000000  0.5601810000000  0.5015330000000 1.0
C      1  0.4640930000000  0.5497710000000  0.5160110000000 1.0
C      1  0.4604710000000  0.5192410000000  0.4775260000000 1.0
C      1  0.4996170000000  0.5460480000000  0.4586100000000 1.0
C      1  0.4628680000000  0.4239090000000  0.4374980000000 1.0
C      1  0.5131650000000  0.4724540000000  0.6037910000000 1.0
C      1  0.4301950000000  0.4344590000000  0.4970930000000 1.0
C      1  0.5507070000000  0.5211450000000  0.5941500000000 1.0
C      1  0.5404240000000  0.5418950000000  0.5256330000000 1.0
C      1  0.4600230000000  0.5066700000000  0.3988670000000 1.0
C      1  0.5565840000000  0.5720620000000  0.4631990000000 1.0
C      1  0.4863160000000  0.4784720000000  0.5566330000000 1.0
C      1  0.5648850000000  0.4727190000000  0.4725600000000 1.0
C      1  0.5123410000000  0.5561270000000  0.5873160000000 1.0
C      1  0.4538310000000  0.5682750000000  0.5681420000000 1.0
C      1  0.5205060000000  0.5946400000000  0.5107820000000 1.0
C      1  0.5111040000000  0.4181840000000  0.4603580000000 1.0
C      1  0.5741130000000  0.4399290000000  0.5673480000000 1.0
C      1  0.4593010000000  0.5200760000000  0.5531400000000 1.0
C      1  0.5158250000000  0.4037630000000  0.5020820000000 1.0
C      1  0.4138140000000  0.5139560000000  0.4620470000000 1.0
C      1  0.5885620000000  0.4314700000000  0.4634800000000 1.0
C      1  0.6029700000000  0.5093300000000  0.4436360000000 1.0
C      1  0.5224970000000  0.5280150000000  0.5546740000000 1.0
C      1  0.5409260000000  0.4817410000000  0.5088950000000 1.0
C      1  0.4311050000000  0.5786310000000  0.4968110000000 1.0
C      1  0.5781150000000  0.5303480000000  0.4893180000000 1.0
C      1  0.5341530000000  0.5116240000000  0.4080200000000 1.0
C      1  0.4037260000000  0.5374850000000  0.5037900000000 1.0
C      1  0.6045540000000  0.5000850000000  0.5172400000000 1.0
C      1  0.4759710000000  0.5037800000000  0.5966170000000 1.0
C      1  0.5899570000000  0.5258300000000  0.5619590000000 1.0
C      1  0.5188980000000  0.5268080000000  0.5088900000000 1.0
C      1  0.4256910000000  0.4966920000000  0.5815170000000 1.0
C      1  0.5736560000000  0.4728320000000  0.4293030000000 1.0
END
