TITL C-951335-1172-650 -1.02422068595156e-06 125000 -852.428860867461 0 0 138 (C1) n - 1
REM
REM in /home/bkarasulu/work/CARBON/AIRSS/Generating-Clusters/EDIP-Nigel-Params/with-SteepDescent/Only-C1/SD-CG/HFTN-CG
REM
REM
REM
REM
REM
REM ./C.cell (11c1c37f851c82e70ff6c80c92926a4b)
REM
REM compiler GCC version 9.2.1 20190827 (Red Hat 9.2.1-1)
REM options -cpp -mtune=generic -march=x86-64 -g -O0 -fpre-include=/usr/include/finclude/math-vector-fortran.h
REM seed 1519432124 -394573749 -39991686 -78978528 811686133 807507014 -2137764594 -1055354566 716305072 -1018377010 1878682574 1220160745 1005142019 692811218 -396378783 -497014734 -655847553 -1876022181 -449403671 650052289 -1752245828 -1784511918 651465878 -1244831371 1886738608 1199506646 2039596854 -1878002779 456974516 1880566927 -43626900 568822558 1015115364
REM
CELL 1.54180   50.00000   50.00000   50.00000   90.00000   90.00000   90.00000
LATT -1
SFAC C  
C      1  0.4862330000000  0.4189140000000  0.4270160000000 1.0
C      1  0.5395050000000  0.4793390000000  0.4227510000000 1.0
C      1  0.5386130000000  0.4872140000000  0.3948420000000 1.0
C      1  0.5785920000000  0.4538910000000  0.5279760000000 1.0
C      1  0.4349900000000  0.5293690000000  0.5116130000000 1.0
C      1  0.4611300000000  0.5113560000000  0.5113850000000 1.0
C      1  0.4247250000000  0.4911940000000  0.5465300000000 1.0
C      1  0.4965780000000  0.4317690000000  0.5248350000000 1.0
C      1  0.5325840000000  0.5969780000000  0.5101620000000 1.0
C      1  0.4834050000000  0.4863080000000  0.4779940000000 1.0
C      1  0.5010330000000  0.3789900000000  0.4905720000000 1.0
C      1  0.4892760000000  0.4783860000000  0.6109300000000 1.0
C      1  0.5473130000000  0.4577530000000  0.5699270000000 1.0
C      1  0.5556180000000  0.5449390000000  0.4659970000000 1.0
C      1  0.4703150000000  0.4695400000000  0.5668010000000 1.0
C      1  0.5893650000000  0.5035630000000  0.5330270000000 1.0
C      1  0.5296370000000  0.4341450000000  0.4377600000000 1.0
C      1  0.4999610000000  0.4805760000000  0.5259330000000 1.0
C      1  0.5743800000000  0.4513720000000  0.4480920000000 1.0
C      1  0.4078740000000  0.5200330000000  0.4683320000000 1.0
C      1  0.6015150000000  0.5068150000000  0.4861860000000 1.0
C      1  0.4040100000000  0.5051160000000  0.5305590000000 1.0
C      1  0.4141670000000  0.4467970000000  0.5230300000000 1.0
C      1  0.4704670000000  0.4992770000000  0.6076950000000 1.0
C      1  0.5513800000000  0.4516470000000  0.4285820000000 1.0
C      1  0.4290080000000  0.5722340000000  0.5191390000000 1.0
C      1  0.4346480000000  0.4646890000000  0.5350610000000 1.0
C      1  0.4913570000000  0.5119760000000  0.5635160000000 1.0
C      1  0.5267880000000  0.5709370000000  0.5611970000000 1.0
C      1  0.5050900000000  0.5059270000000  0.4739990000000 1.0
C      1  0.5795350000000  0.4900720000000  0.4754290000000 1.0
C      1  0.4827460000000  0.5205610000000  0.5914770000000 1.0
C      1  0.4858280000000  0.5631280000000  0.5824970000000 1.0
C      1  0.4427340000000  0.4294160000000  0.4439350000000 1.0
C      1  0.6079250000000  0.5007900000000  0.5125970000000 1.0
C      1  0.4603680000000  0.5029390000000  0.4818030000000 1.0
C      1  0.5146800000000  0.4880300000000  0.6012270000000 1.0
C      1  0.4673790000000  0.5749120000000  0.4557290000000 1.0
C      1  0.4393610000000  0.4823750000000  0.4115170000000 1.0
C      1  0.5140310000000  0.5269730000000  0.4104370000000 1.0
C      1  0.5337040000000  0.5005450000000  0.5578760000000 1.0
C      1  0.5716320000000  0.4807220000000  0.5367560000000 1.0
C      1  0.4059860000000  0.5554710000000  0.5211640000000 1.0
C      1  0.4648990000000  0.5806870000000  0.4854290000000 1.0
C      1  0.4866270000000  0.5263570000000  0.5171370000000 1.0
C      1  0.5713500000000  0.5492920000000  0.5563980000000 1.0
C      1  0.4717750000000  0.3982770000000  0.5072880000000 1.0
C      1  0.4998650000000  0.5329210000000  0.5445020000000 1.0
C      1  0.5306240000000  0.4916800000000  0.4696430000000 1.0
C      1  0.4202180000000  0.5149180000000  0.4427820000000 1.0
C      1  0.5433750000000  0.5880580000000  0.5449320000000 1.0
C      1  0.5091670000000  0.5194130000000  0.5000990000000 1.0
C      1  0.5547960000000  0.5061120000000  0.4639530000000 1.0
C      1  0.4760640000000  0.5813810000000  0.5353360000000 1.0
C      1  0.4416910000000  0.5627260000000  0.4470520000000 1.0
C      1  0.4366640000000  0.5805170000000  0.4918470000000 1.0
C      1  0.4245550000000  0.5631960000000  0.4717390000000 1.0
C      1  0.4344860000000  0.4423690000000  0.4667230000000 1.0
C      1  0.5278400000000  0.4411110000000  0.5576330000000 1.0
C      1  0.5767750000000  0.5310990000000  0.5316440000000 1.0
C      1  0.5580490000000  0.4212970000000  0.4940300000000 1.0
C      1  0.5795470000000  0.5757450000000  0.5147990000000 1.0
C      1  0.5529030000000  0.5768080000000  0.5002760000000 1.0
C      1  0.4613760000000  0.4889630000000  0.4399960000000 1.0
C      1  0.5631560000000  0.4283830000000  0.5232700000000 1.0
C      1  0.4301220000000  0.5349970000000  0.4807970000000 1.0
C      1  0.4181850000000  0.4733360000000  0.4946730000000 1.0
C      1  0.5291330000000  0.5781530000000  0.4547810000000 1.0
C      1  0.4663520000000  0.4379990000000  0.4330040000000 1.0
C      1  0.5146770000000  0.5023640000000  0.3943110000000 1.0
C      1  0.4525820000000  0.4509400000000  0.5540500000000 1.0
C      1  0.5082710000000  0.4350690000000  0.4170830000000 1.0
C      1  0.5116360000000  0.4552020000000  0.5358220000000 1.0
C      1  0.4906550000000  0.5647740000000  0.4391960000000 1.0
C      1  0.4276780000000  0.4861930000000  0.4404960000000 1.0
C      1  0.4658860000000  0.4991170000000  0.4081340000000 1.0
C      1  0.4812010000000  0.5928430000000  0.5066900000000 1.0
C      1  0.5853500000000  0.4790110000000  0.4468840000000 1.0
C      1  0.4966090000000  0.5308440000000  0.4570640000000 1.0
C      1  0.5544660000000  0.4822720000000  0.5597170000000 1.0
C      1  0.4754540000000  0.4925270000000  0.5489680000000 1.0
C      1  0.5403390000000  0.4186790000000  0.5412140000000 1.0
C      1  0.4297440000000  0.4244920000000  0.5111880000000 1.0
C      1  0.5552690000000  0.5764300000000  0.4701940000000 1.0
C      1  0.4765660000000  0.4255760000000  0.4929050000000 1.0
C      1  0.4677230000000  0.5991430000000  0.5577660000000 1.0
C      1  0.4997240000000  0.3868820000000  0.5185790000000 1.0
C      1  0.4495260000000  0.4081540000000  0.5277110000000 1.0
C      1  0.5670230000000  0.4690400000000  0.4945710000000 1.0
C      1  0.5821760000000  0.5391980000000  0.4533350000000 1.0
C      1  0.5478840000000  0.5272450000000  0.5220830000000 1.0
C      1  0.4517650000000  0.5630440000000  0.5345120000000 1.0
C      1  0.5614700000000  0.4979190000000  0.4354270000000 1.0
C      1  0.4922840000000  0.4846160000000  0.4005520000000 1.0
C      1  0.5396590000000  0.5395730000000  0.4190660000000 1.0
C      1  0.5125680000000  0.4002370000000  0.4746810000000 1.0
C      1  0.5958720000000  0.5350930000000  0.4812190000000 1.0
C      1  0.4635610000000  0.5287630000000  0.4142070000000 1.0
C      1  0.5168120000000  0.4504910000000  0.4900680000000 1.0
C      1  0.4095310000000  0.5014430000000  0.5010040000000 1.0
C      1  0.5190580000000  0.5456150000000  0.4913430000000 1.0
C      1  0.4624280000000  0.5779680000000  0.5772160000000 1.0
C      1  0.5114610000000  0.4438660000000  0.4605850000000 1.0
C      1  0.4892030000000  0.5430750000000  0.4162820000000 1.0
C      1  0.5420600000000  0.5458760000000  0.5667810000000 1.0
C      1  0.4198530000000  0.4670480000000  0.4645910000000 1.0
C      1  0.5343420000000  0.5338150000000  0.5923120000000 1.0
C      1  0.5403940000000  0.5509050000000  0.5069320000000 1.0
C      1  0.5654850000000  0.5248780000000  0.4229450000000 1.0
C      1  0.5907700000000  0.5482050000000  0.5101950000000 1.0
C      1  0.5303980000000  0.5265150000000  0.5470770000000 1.0
C      1  0.4033810000000  0.5328260000000  0.5370010000000 1.0
C      1  0.4872750000000  0.4673020000000  0.5008500000000 1.0
C      1  0.5674730000000  0.4447650000000  0.4777380000000 1.0
C      1  0.4486180000000  0.5092060000000  0.5484310000000 1.0
C      1  0.4485320000000  0.4395680000000  0.4929460000000 1.0
C      1  0.4615920000000  0.4238920000000  0.5497950000000 1.0
C      1  0.5363290000000  0.4757210000000  0.4935290000000 1.0
C      1  0.5254770000000  0.4961010000000  0.5150590000000 1.0
C      1  0.5275840000000  0.4191070000000  0.4941840000000 1.0
C      1  0.5074500000000  0.5924170000000  0.4950850000000 1.0
C      1  0.4517100000000  0.5295990000000  0.5707000000000 1.0
C      1  0.5063180000000  0.5687540000000  0.4751910000000 1.0
C      1  0.5028170000000  0.4661750000000  0.4231450000000 1.0
C      1  0.4778160000000  0.4637780000000  0.4406370000000 1.0
C      1  0.4980920000000  0.5626890000000  0.5554850000000 1.0
C      1  0.5129660000000  0.5175160000000  0.6017210000000 1.0
C      1  0.4878900000000  0.4169530000000  0.5593120000000 1.0
C      1  0.4494110000000  0.4688780000000  0.5070750000000 1.0
C      1  0.4641530000000  0.5263420000000  0.4630260000000 1.0
C      1  0.4461920000000  0.5571550000000  0.5630860000000 1.0
C      1  0.4921590000000  0.4207730000000  0.4648270000000 1.0
C      1  0.4921570000000  0.4608620000000  0.5854620000000 1.0
C      1  0.5178220000000  0.4110120000000  0.5214580000000 1.0
C      1  0.5709890000000  0.5771470000000  0.5439400000000 1.0
C      1  0.5304300000000  0.5471360000000  0.4464360000000 1.0
C      1  0.4456190000000  0.5332270000000  0.4386880000000 1.0
C      1  0.5052730000000  0.4333900000000  0.5765950000000 1.0
END
