TITL C-951333-8791-293 -1.52866279596551e-06 125000 -250.428911445126 0 0 42 (C1) n - 1
REM
REM in /home/bkarasulu/work/CARBON/AIRSS/Generating-Clusters/EDIP-Nigel-Params/with-SteepDescent/Only-C1/SD-CG/HFTN-CG
REM
REM
REM
REM
REM
REM ./C.cell (11c1c37f851c82e70ff6c80c92926a4b)
REM
REM compiler GCC version 9.2.1 20190827 (Red Hat 9.2.1-1)
REM options -cpp -mtune=generic -march=x86-64 -g -O0 -fpre-include=/usr/include/finclude/math-vector-fortran.h
REM seed 1117899955 1940339651 176733853 -1746146930 70212229 -1107340653 1323934046 1078823655 -645116555 1566253779 -1555245098 1433092817 -1201495674 -1117213957 -1023131614 673562683 483381454 -562147010 -832489557 222331324 1474851490 -2096947486 464218798 1732671591 635985269 318389711 2112612098 -364884467 -1805354210 281586336 1433117816 -789199325 424820213
REM
CELL 1.54180   50.00000   50.00000   50.00000   90.00000   90.00000   90.00000
LATT -1
SFAC C  
C      1  0.4996930000000  0.5123500000000  0.4294640000000 1.0
C      1  0.4567140000000  0.5367210000000  0.4858290000000 1.0
C      1  0.5818770000000  0.5116010000000  0.5019440000000 1.0
C      1  0.5216300000000  0.4870190000000  0.4929480000000 1.0
C      1  0.4925130000000  0.5137060000000  0.5436830000000 1.0
C      1  0.4656220000000  0.4919360000000  0.4645860000000 1.0
C      1  0.5386080000000  0.4743640000000  0.4717610000000 1.0
C      1  0.5427270000000  0.5046170000000  0.5408790000000 1.0
C      1  0.4660020000000  0.5629630000000  0.4891640000000 1.0
C      1  0.4387980000000  0.4536360000000  0.4787230000000 1.0
C      1  0.4989730000000  0.5414180000000  0.5507200000000 1.0
C      1  0.5186760000000  0.4631120000000  0.5139600000000 1.0
C      1  0.5358030000000  0.5232100000000  0.4903130000000 1.0
C      1  0.5167000000000  0.4989880000000  0.5480090000000 1.0
C      1  0.4725690000000  0.5193100000000  0.4679590000000 1.0
C      1  0.5438050000000  0.5311610000000  0.5276510000000 1.0
C      1  0.4857170000000  0.5757060000000  0.5026020000000 1.0
C      1  0.4471310000000  0.4925000000000  0.5098800000000 1.0
C      1  0.5080640000000  0.5486640000000  0.4575160000000 1.0
C      1  0.4877250000000  0.4887460000000  0.4961820000000 1.0
C      1  0.4464180000000  0.4811120000000  0.4821890000000 1.0
C      1  0.4708700000000  0.4417450000000  0.5107930000000 1.0
C      1  0.4447240000000  0.4449710000000  0.5218580000000 1.0
C      1  0.5646840000000  0.4715890000000  0.4816240000000 1.0
C      1  0.5341730000000  0.4807470000000  0.4453880000000 1.0
C      1  0.5561300000000  0.4812390000000  0.5288680000000 1.0
C      1  0.4724690000000  0.4343720000000  0.4829950000000 1.0
C      1  0.4520760000000  0.4340730000000  0.4643480000000 1.0
C      1  0.4457350000000  0.4715150000000  0.5322110000000 1.0
C      1  0.5619780000000  0.5310630000000  0.5024230000000 1.0
C      1  0.4808180000000  0.5128500000000  0.5142110000000 1.0
C      1  0.5204050000000  0.5470230000000  0.4825010000000 1.0
C      1  0.5070450000000  0.5576970000000  0.5054510000000 1.0
C      1  0.5179560000000  0.5482050000000  0.5306690000000 1.0
C      1  0.4517800000000  0.5234870000000  0.5117460000000 1.0
C      1  0.5733470000000  0.4851040000000  0.5049430000000 1.0
C      1  0.4730420000000  0.5001640000000  0.5602180000000 1.0
C      1  0.5182500000000  0.4932700000000  0.4282530000000 1.0
C      1  0.4878470000000  0.4648180000000  0.5200190000000 1.0
C      1  0.5405120000000  0.4575920000000  0.5308950000000 1.0
C      1  0.4894680000000  0.5306690000000  0.4475400000000 1.0
C      1  0.4709260000000  0.4749650000000  0.5470870000000 1.0
END
