TITL C-950534-5965-335 7.29273225720866e-07 125000 -915.561302277563 0 0 146 (C1) n - 1
REM
REM in /home/bkarasulu/work/CARBON/AIRSS/Generating-Clusters/EDIP-Nigel-Params/with-SteepDescent/Only-C1/SD-CG/HFTN-CG
REM
REM
REM
REM
REM
REM ./C.cell (11c1c37f851c82e70ff6c80c92926a4b)
REM
REM compiler GCC version 9.2.1 20190827 (Red Hat 9.2.1-1)
REM options -cpp -mtune=generic -march=x86-64 -g -O0 -fpre-include=/usr/include/finclude/math-vector-fortran.h
REM seed -1775182657 -312062490 -1896187691 -1040644002 383674913 -473231452 2557246 537101508 -1080624006 -1917652727 1901296576 1007369044 -90595598 1164750672 -365868265 -1691640494 -2050898970 2045706339 1060172304 1853705721 -1903986970 -224838700 69974244 1112449112 -1702874157 -132051395 -101361974 419578701 1771087997 1351140428 -1019991311 494687210 -2042997381
REM
CELL 1.54180   50.00000   50.00000   50.00000   90.00000   90.00000   90.00000
LATT -1
SFAC C  
C      1  0.4476080000000  0.4729000000000  0.4059200000000 1.0
C      1  0.4777000000000  0.5188850000000  0.5361310000000 1.0
C      1  0.4344870000000  0.5563940000000  0.4451740000000 1.0
C      1  0.4950130000000  0.5349160000000  0.4012830000000 1.0
C      1  0.5136940000000  0.5334920000000  0.4453820000000 1.0
C      1  0.4666000000000  0.5643400000000  0.5603410000000 1.0
C      1  0.4591590000000  0.5690230000000  0.4799690000000 1.0
C      1  0.4815150000000  0.5188690000000  0.4791220000000 1.0
C      1  0.5769070000000  0.4496620000000  0.5607040000000 1.0
C      1  0.5930690000000  0.4955890000000  0.5390170000000 1.0
C      1  0.4123830000000  0.5108830000000  0.4981020000000 1.0
C      1  0.5055150000000  0.4304090000000  0.4206530000000 1.0
C      1  0.4393960000000  0.5419870000000  0.5771850000000 1.0
C      1  0.4192140000000  0.4492700000000  0.5647010000000 1.0
C      1  0.4059570000000  0.4810230000000  0.5018460000000 1.0
C      1  0.5241330000000  0.5739640000000  0.4238650000000 1.0
C      1  0.5388940000000  0.4351050000000  0.5289030000000 1.0
C      1  0.5472290000000  0.5253150000000  0.4175300000000 1.0
C      1  0.5312050000000  0.4093850000000  0.5146760000000 1.0
C      1  0.5299730000000  0.5985770000000  0.4703040000000 1.0
C      1  0.4942390000000  0.4825480000000  0.3930110000000 1.0
C      1  0.5342740000000  0.4318100000000  0.5729710000000 1.0
C      1  0.5111420000000  0.5153900000000  0.5990050000000 1.0
C      1  0.4098670000000  0.5205460000000  0.4694460000000 1.0
C      1  0.5379900000000  0.5027780000000  0.5981580000000 1.0
C      1  0.4626620000000  0.5336580000000  0.4358930000000 1.0
C      1  0.4255870000000  0.5188640000000  0.5665050000000 1.0
C      1  0.5302710000000  0.4929580000000  0.4795520000000 1.0
C      1  0.5710310000000  0.4308940000000  0.4593570000000 1.0
C      1  0.4912260000000  0.4952220000000  0.5930140000000 1.0
C      1  0.4848620000000  0.6038000000000  0.4887310000000 1.0
C      1  0.5565400000000  0.5079940000000  0.4795430000000 1.0
C      1  0.4933650000000  0.4479250000000  0.5140780000000 1.0
C      1  0.5945220000000  0.5204830000000  0.4393000000000 1.0
C      1  0.5944510000000  0.5077440000000  0.5081900000000 1.0
C      1  0.4952580000000  0.4880520000000  0.4495390000000 1.0
C      1  0.4493760000000  0.5071180000000  0.5318130000000 1.0
C      1  0.5444920000000  0.4620900000000  0.5766860000000 1.0
C      1  0.5930740000000  0.4629570000000  0.4881080000000 1.0
C      1  0.5707080000000  0.5678060000000  0.5087400000000 1.0
C      1  0.4569000000000  0.5748350000000  0.4504310000000 1.0
C      1  0.4468030000000  0.4388380000000  0.5581730000000 1.0
C      1  0.5150550000000  0.5826370000000  0.5765590000000 1.0
C      1  0.5099110000000  0.5386120000000  0.5805390000000 1.0
C      1  0.5451930000000  0.4961980000000  0.4078210000000 1.0
C      1  0.4548730000000  0.5019890000000  0.4807150000000 1.0
C      1  0.5291740000000  0.5499630000000  0.4642340000000 1.0
C      1  0.4882370000000  0.5181450000000  0.4504070000000 1.0
C      1  0.4888520000000  0.4478530000000  0.5826460000000 1.0
C      1  0.5094500000000  0.5876640000000  0.4889830000000 1.0
C      1  0.4823570000000  0.5368280000000  0.5662100000000 1.0
C      1  0.5226850000000  0.4765620000000  0.3998420000000 1.0
C      1  0.4803860000000  0.5736370000000  0.4305890000000 1.0
C      1  0.4408450000000  0.5155470000000  0.4293210000000 1.0
C      1  0.5080600000000  0.4496850000000  0.4855320000000 1.0
C      1  0.4978660000000  0.3984250000000  0.4622500000000 1.0
C      1  0.4733250000000  0.5507270000000  0.4131880000000 1.0
C      1  0.4491750000000  0.4765840000000  0.5355320000000 1.0
C      1  0.5551800000000  0.5549070000000  0.5693860000000 1.0
C      1  0.4631830000000  0.5302530000000  0.5877410000000 1.0
C      1  0.4741480000000  0.4718920000000  0.5150680000000 1.0
C      1  0.5079720000000  0.4065800000000  0.4375460000000 1.0
C      1  0.4633790000000  0.4727420000000  0.4858190000000 1.0
C      1  0.5684690000000  0.5314610000000  0.4392060000000 1.0
C      1  0.5140430000000  0.4796460000000  0.5412190000000 1.0
C      1  0.4327100000000  0.5603470000000  0.4915500000000 1.0
C      1  0.5386620000000  0.4831050000000  0.5551600000000 1.0
C      1  0.4477710000000  0.4224520000000  0.5116090000000 1.0
C      1  0.5124380000000  0.4500790000000  0.5368150000000 1.0
C      1  0.5317790000000  0.4730950000000  0.6013930000000 1.0
C      1  0.4610910000000  0.4167240000000  0.4863840000000 1.0
C      1  0.5122560000000  0.5629040000000  0.5962190000000 1.0
C      1  0.5455190000000  0.4039870000000  0.4914300000000 1.0
C      1  0.4404280000000  0.5122010000000  0.5042650000000 1.0
C      1  0.4074950000000  0.4641620000000  0.4760680000000 1.0
C      1  0.5011330000000  0.5905720000000  0.4214500000000 1.0
C      1  0.5486880000000  0.5858310000000  0.5087650000000 1.0
C      1  0.4312760000000  0.5034670000000  0.4556310000000 1.0
C      1  0.5239960000000  0.4853070000000  0.4508900000000 1.0
C      1  0.5479970000000  0.5079680000000  0.5683370000000 1.0
C      1  0.4878280000000  0.4132270000000  0.5406100000000 1.0
C      1  0.4162740000000  0.5264670000000  0.5388680000000 1.0
C      1  0.5789660000000  0.5124630000000  0.5608570000000 1.0
C      1  0.4414980000000  0.4922600000000  0.5715830000000 1.0
C      1  0.4900390000000  0.6090390000000  0.5153910000000 1.0
C      1  0.5813710000000  0.5528610000000  0.4845270000000 1.0
C      1  0.5494120000000  0.6062800000000  0.4890780000000 1.0
C      1  0.4600770000000  0.4475440000000  0.5819660000000 1.0
C      1  0.5333900000000  0.4567130000000  0.4431070000000 1.0
C      1  0.4222860000000  0.4640210000000  0.5226300000000 1.0
C      1  0.4308990000000  0.5566650000000  0.5212130000000 1.0
C      1  0.3844720000000  0.4874790000000  0.5226570000000 1.0
C      1  0.4879260000000  0.4056510000000  0.4875690000000 1.0
C      1  0.6002410000000  0.5360230000000  0.5016490000000 1.0
C      1  0.4237450000000  0.4378380000000  0.5079830000000 1.0
C      1  0.4905810000000  0.5860530000000  0.5594590000000 1.0
C      1  0.5098640000000  0.5564250000000  0.4877320000000 1.0
C      1  0.5235720000000  0.4330710000000  0.4607320000000 1.0
C      1  0.5362980000000  0.5761700000000  0.4512110000000 1.0
C      1  0.5208430000000  0.5354240000000  0.5063360000000 1.0
C      1  0.5522600000000  0.4547840000000  0.5121540000000 1.0
C      1  0.4739490000000  0.4607990000000  0.3988530000000 1.0
C      1  0.5203470000000  0.5428310000000  0.4183500000000 1.0
C      1  0.5649340000000  0.5103740000000  0.5080510000000 1.0
C      1  0.5680820000000  0.4814470000000  0.4523990000000 1.0
C      1  0.4796330000000  0.4435750000000  0.4216010000000 1.0
C      1  0.4800930000000  0.5478180000000  0.4892430000000 1.0
C      1  0.5604760000000  0.4743510000000  0.4225270000000 1.0
C      1  0.4174440000000  0.5496440000000  0.4680330000000 1.0
C      1  0.4355110000000  0.4589560000000  0.4306060000000 1.0
C      1  0.5569150000000  0.4282390000000  0.5530220000000 1.0
C      1  0.5054330000000  0.4326750000000  0.5622910000000 1.0
C      1  0.6029590000000  0.4906770000000  0.4839660000000 1.0
C      1  0.4594280000000  0.4212060000000  0.5382050000000 1.0
C      1  0.5021240000000  0.5897010000000  0.5326820000000 1.0
C      1  0.5334170000000  0.5352160000000  0.5606170000000 1.0
C      1  0.5917270000000  0.4647850000000  0.5400330000000 1.0
C      1  0.5815660000000  0.4545880000000  0.5138270000000 1.0
C      1  0.5017940000000  0.4046060000000  0.5146660000000 1.0
C      1  0.5014040000000  0.4691980000000  0.5992250000000 1.0
C      1  0.5262020000000  0.5465280000000  0.5325630000000 1.0
C      1  0.5922750000000  0.4978660000000  0.4560830000000 1.0
C      1  0.5076480000000  0.5089930000000  0.4970950000000 1.0
C      1  0.4531880000000  0.5018510000000  0.4066670000000 1.0
C      1  0.4218950000000  0.4753560000000  0.4525530000000 1.0
C      1  0.4952480000000  0.4954780000000  0.5226160000000 1.0
C      1  0.3904260000000  0.5152870000000  0.5290250000000 1.0
C      1  0.4822800000000  0.5077250000000  0.4017750000000 1.0
C      1  0.4576300000000  0.5628140000000  0.5313300000000 1.0
C      1  0.5691550000000  0.4571580000000  0.4709600000000 1.0
C      1  0.4631580000000  0.5017930000000  0.5902450000000 1.0
C      1  0.4281460000000  0.4689690000000  0.5845180000000 1.0
C      1  0.4767080000000  0.5443530000000  0.5191120000000 1.0
C      1  0.4566240000000  0.4388670000000  0.4680360000000 1.0
C      1  0.5477920000000  0.4184320000000  0.4680440000000 1.0
C      1  0.5302390000000  0.4498500000000  0.4130100000000 1.0
C      1  0.5682660000000  0.5402380000000  0.5236970000000 1.0
C      1  0.5584070000000  0.5363800000000  0.4676160000000 1.0
C      1  0.4116330000000  0.4371980000000  0.4823540000000 1.0
C      1  0.4024660000000  0.4613910000000  0.5441570000000 1.0
C      1  0.4886250000000  0.4691070000000  0.4717120000000 1.0
C      1  0.5355930000000  0.4644610000000  0.4891290000000 1.0
C      1  0.5771400000000  0.5413860000000  0.5529230000000 1.0
C      1  0.5412170000000  0.5806890000000  0.5605810000000 1.0
C      1  0.4556520000000  0.4386920000000  0.4389850000000 1.0
C      1  0.5299600000000  0.5769620000000  0.5323390000000 1.0
END
