TITL C-951335-1172-443 -1.4287769299944e-06 125000 -722.798082014692 0 0 117 (C1) n - 1
REM
REM in /home/bkarasulu/work/CARBON/AIRSS/Generating-Clusters/EDIP-Nigel-Params/with-SteepDescent/Only-C1/SD-CG/HFTN-CG
REM
REM
REM
REM
REM
REM ./C.cell (11c1c37f851c82e70ff6c80c92926a4b)
REM
REM compiler GCC version 9.2.1 20190827 (Red Hat 9.2.1-1)
REM options -cpp -mtune=generic -march=x86-64 -g -O0 -fpre-include=/usr/include/finclude/math-vector-fortran.h
REM seed 1011500855 21681585 -2024083116 841416668 2025278605 -554165784 -1781681057 1265503261 -116955944 819375646 -1698206818 -1272194513 1857343266 -27200861 -396785505 477705328 1817546541 822348930 -1343589443 -122490619 -1884027953 1481532258 -209340964 1323466372 -526778523 -1263559684 623382773 2084444208 -1146168930 -975559621 1434881890 -1039827081 -1496651154
REM
CELL 1.54180   50.00000   50.00000   50.00000   90.00000   90.00000   90.00000
LATT -1
SFAC C  
C      1  0.5549510000000  0.5189800000000  0.4302240000000 1.0
C      1  0.5352750000000  0.4100910000000  0.5301520000000 1.0
C      1  0.4527910000000  0.4237580000000  0.4771430000000 1.0
C      1  0.5535910000000  0.5744040000000  0.4715840000000 1.0
C      1  0.5354350000000  0.4429090000000  0.5688380000000 1.0
C      1  0.5235900000000  0.5240840000000  0.6011960000000 1.0
C      1  0.5778220000000  0.5348110000000  0.5315590000000 1.0
C      1  0.4914820000000  0.4344730000000  0.5836660000000 1.0
C      1  0.4441670000000  0.4396550000000  0.4547060000000 1.0
C      1  0.4353630000000  0.5141010000000  0.4854670000000 1.0
C      1  0.4232390000000  0.4889630000000  0.4457090000000 1.0
C      1  0.5220620000000  0.4457980000000  0.4338310000000 1.0
C      1  0.4474060000000  0.5784560000000  0.4966390000000 1.0
C      1  0.5417760000000  0.5211110000000  0.4766000000000 1.0
C      1  0.5704530000000  0.5539320000000  0.4834190000000 1.0
C      1  0.5274600000000  0.4547640000000  0.4983500000000 1.0
C      1  0.4973680000000  0.4066680000000  0.4518590000000 1.0
C      1  0.5120400000000  0.5239820000000  0.4107680000000 1.0
C      1  0.5652400000000  0.5350070000000  0.5588200000000 1.0
C      1  0.4833830000000  0.5333900000000  0.5042560000000 1.0
C      1  0.4334060000000  0.5653170000000  0.5408780000000 1.0
C      1  0.4333670000000  0.4664640000000  0.4658090000000 1.0
C      1  0.4608440000000  0.4664450000000  0.5612820000000 1.0
C      1  0.5083700000000  0.5694360000000  0.5296720000000 1.0
C      1  0.5341660000000  0.4209270000000  0.4797080000000 1.0
C      1  0.4953350000000  0.4323530000000  0.4405910000000 1.0
C      1  0.4581270000000  0.5091160000000  0.4637000000000 1.0
C      1  0.4392100000000  0.5373560000000  0.4366620000000 1.0
C      1  0.5769250000000  0.5319560000000  0.4666820000000 1.0
C      1  0.4322950000000  0.4512260000000  0.5155890000000 1.0
C      1  0.5831070000000  0.4942150000000  0.4971680000000 1.0
C      1  0.5188160000000  0.5462450000000  0.5852420000000 1.0
C      1  0.4540660000000  0.5223390000000  0.5059080000000 1.0
C      1  0.5906340000000  0.5062230000000  0.4712510000000 1.0
C      1  0.4015810000000  0.5035640000000  0.5202810000000 1.0
C      1  0.4450310000000  0.4899610000000  0.4262420000000 1.0
C      1  0.4971630000000  0.5024960000000  0.4681670000000 1.0
C      1  0.4786360000000  0.5686740000000  0.4533750000000 1.0
C      1  0.5126760000000  0.4578860000000  0.5255560000000 1.0
C      1  0.5174700000000  0.5341930000000  0.5432960000000 1.0
C      1  0.5156530000000  0.5512470000000  0.4202180000000 1.0
C      1  0.4789760000000  0.5666740000000  0.5620750000000 1.0
C      1  0.4585230000000  0.5539890000000  0.5475690000000 1.0
C      1  0.5156840000000  0.4237010000000  0.5734750000000 1.0
C      1  0.4862120000000  0.5319870000000  0.5350600000000 1.0
C      1  0.4910000000000  0.4824520000000  0.4160990000000 1.0
C      1  0.5166420000000  0.4822200000000  0.4589340000000 1.0
C      1  0.5182360000000  0.4779580000000  0.4277990000000 1.0
C      1  0.5378420000000  0.4961800000000  0.5191160000000 1.0
C      1  0.5508370000000  0.5735830000000  0.4438750000000 1.0
C      1  0.5767910000000  0.4884370000000  0.5445920000000 1.0
C      1  0.4935890000000  0.5793880000000  0.4785740000000 1.0
C      1  0.4730470000000  0.5197250000000  0.5818570000000 1.0
C      1  0.5310190000000  0.5806030000000  0.4909010000000 1.0
C      1  0.5669240000000  0.4554670000000  0.4623160000000 1.0
C      1  0.5282870000000  0.4976850000000  0.5939260000000 1.0
C      1  0.4162640000000  0.4946330000000  0.5448370000000 1.0
C      1  0.4858370000000  0.5110380000000  0.4118560000000 1.0
C      1  0.5489500000000  0.4786830000000  0.4956550000000 1.0
C      1  0.5497300000000  0.5760470000000  0.5168070000000 1.0
C      1  0.5289290000000  0.5187830000000  0.5034900000000 1.0
C      1  0.4561760000000  0.5171110000000  0.4221440000000 1.0
C      1  0.5203520000000  0.5390000000000  0.4628750000000 1.0
C      1  0.4769080000000  0.4204710000000  0.5160180000000 1.0
C      1  0.4166470000000  0.5424880000000  0.5401090000000 1.0
C      1  0.4163320000000  0.5388960000000  0.4834450000000 1.0
C      1  0.4532070000000  0.4983540000000  0.5232230000000 1.0
C      1  0.4769410000000  0.4415880000000  0.5606170000000 1.0
C      1  0.4255040000000  0.5199750000000  0.5568370000000 1.0
C      1  0.4906290000000  0.5445650000000  0.5770090000000 1.0
C      1  0.4045900000000  0.4867790000000  0.4985490000000 1.0
C      1  0.4675220000000  0.4446310000000  0.4360810000000 1.0
C      1  0.5124010000000  0.4895270000000  0.5697300000000 1.0
C      1  0.4456600000000  0.5229960000000  0.5763040000000 1.0
C      1  0.5400500000000  0.5530500000000  0.5625090000000 1.0
C      1  0.4918130000000  0.4047060000000  0.4985130000000 1.0
C      1  0.5630320000000  0.4627890000000  0.5342320000000 1.0
C      1  0.4532420000000  0.4326630000000  0.5047860000000 1.0
C      1  0.4932860000000  0.5647500000000  0.4299720000000 1.0
C      1  0.4358250000000  0.5614860000000  0.4778730000000 1.0
C      1  0.5874200000000  0.5066550000000  0.5237390000000 1.0
C      1  0.4818370000000  0.4935650000000  0.5680630000000 1.0
C      1  0.5360330000000  0.4605720000000  0.5466440000000 1.0
C      1  0.4355060000000  0.4689840000000  0.5420230000000 1.0
C      1  0.5795810000000  0.4491580000000  0.4866920000000 1.0
C      1  0.5303660000000  0.5046260000000  0.5481370000000 1.0
C      1  0.5336500000000  0.5750880000000  0.5416830000000 1.0
C      1  0.5785880000000  0.5027120000000  0.4342810000000 1.0
C      1  0.5103670000000  0.5557860000000  0.4876560000000 1.0
C      1  0.4607920000000  0.4778420000000  0.4724050000000 1.0
C      1  0.4739990000000  0.5859950000000  0.5010330000000 1.0
C      1  0.5787700000000  0.4776790000000  0.4478650000000 1.0
C      1  0.5015020000000  0.5098500000000  0.4972150000000 1.0
C      1  0.4932610000000  0.4338890000000  0.5362410000000 1.0
C      1  0.4180350000000  0.5198940000000  0.4507250000000 1.0
C      1  0.5438990000000  0.4378430000000  0.4545850000000 1.0
C      1  0.5581960000000  0.5057280000000  0.5617890000000 1.0
C      1  0.4185840000000  0.4639180000000  0.4923250000000 1.0
C      1  0.4678810000000  0.4722610000000  0.4288100000000 1.0
C      1  0.5492680000000  0.4188710000000  0.5071940000000 1.0
C      1  0.4540830000000  0.5529520000000  0.4569920000000 1.0
C      1  0.5559670000000  0.4952640000000  0.5890390000000 1.0
C      1  0.5121690000000  0.4125380000000  0.5461280000000 1.0
C      1  0.5094450000000  0.4042580000000  0.4768930000000 1.0
C      1  0.4878420000000  0.5260500000000  0.4477850000000 1.0
C      1  0.5377630000000  0.5482530000000  0.4391900000000 1.0
C      1  0.5652540000000  0.5520520000000  0.5114390000000 1.0
C      1  0.4802800000000  0.4512390000000  0.4769360000000 1.0
C      1  0.5095900000000  0.4572780000000  0.4743390000000 1.0
C      1  0.5677120000000  0.4418470000000  0.5111180000000 1.0
C      1  0.4046630000000  0.5326880000000  0.5146840000000 1.0
C      1  0.4949150000000  0.4853070000000  0.5167580000000 1.0
C      1  0.4797930000000  0.5024810000000  0.5389600000000 1.0
C      1  0.4675830000000  0.4744090000000  0.5047260000000 1.0
C      1  0.4843370000000  0.5840230000000  0.5281770000000 1.0
C      1  0.5426770000000  0.4919660000000  0.4689470000000 1.0
C      1  0.5331830000000  0.5044460000000  0.4170860000000 1.0
END
