TITL C-950523-3027-416 -1.9745731328241e-06 125000 -491.252276598772 0 0 80 (C1) n - 1
REM
REM in /home/bkarasulu/work/CARBON/AIRSS/Generating-Clusters/EDIP-Nigel-Params/with-SteepDescent/Only-C1/SD-CG/HFTN-CG
REM
REM
REM
REM
REM
REM ./C.cell (11c1c37f851c82e70ff6c80c92926a4b)
REM
REM compiler GCC version 9.2.1 20190827 (Red Hat 9.2.1-1)
REM options -cpp -mtune=generic -march=x86-64 -g -O0 -fpre-include=/usr/include/finclude/math-vector-fortran.h
REM seed -1072883892 1935432792 -483025347 -884376076 589552580 918133711 -522251498 1491635506 -755242086 1068004824 -1943660517 -1474190860 -380377259 -938414852 1165783862 137022757 653464768 -491227210 827010622 1234770571 908922479 -1219422122 858235932 -1877641165 1800107911 -2089390062 -1828410941 -1143078832 -1144563298 416738420 546646738 -2121816644 1011313459
REM
CELL 1.54180   50.00000   50.00000   50.00000   90.00000   90.00000   90.00000
LATT -1
SFAC C  
C      1  0.4758890000000  0.5235120000000  0.4454300000000 1.0
C      1  0.4866590000000  0.5458690000000  0.4888780000000 1.0
C      1  0.5591990000000  0.5302080000000  0.4659960000000 1.0
C      1  0.5837410000000  0.4744280000000  0.4835980000000 1.0
C      1  0.4754900000000  0.5164710000000  0.5833370000000 1.0
C      1  0.4920160000000  0.4835980000000  0.4836440000000 1.0
C      1  0.4603680000000  0.5645870000000  0.5172040000000 1.0
C      1  0.4899910000000  0.5728080000000  0.5163020000000 1.0
C      1  0.4921100000000  0.4336310000000  0.5285290000000 1.0
C      1  0.4431900000000  0.5541430000000  0.4700310000000 1.0
C      1  0.5409950000000  0.4663700000000  0.4920790000000 1.0
C      1  0.5065220000000  0.5229580000000  0.5325260000000 1.0
C      1  0.5461100000000  0.5556180000000  0.4583890000000 1.0
C      1  0.4647670000000  0.4838860000000  0.4721660000000 1.0
C      1  0.4294500000000  0.5293070000000  0.5367800000000 1.0
C      1  0.5461090000000  0.5092990000000  0.4244910000000 1.0
C      1  0.5371500000000  0.4713870000000  0.4628740000000 1.0
C      1  0.5221350000000  0.5067030000000  0.5708340000000 1.0
C      1  0.5192980000000  0.5809110000000  0.4919960000000 1.0
C      1  0.5171870000000  0.5523840000000  0.4518860000000 1.0
C      1  0.4338210000000  0.4911350000000  0.5140510000000 1.0
C      1  0.4233330000000  0.5002780000000  0.5410520000000 1.0
C      1  0.4547510000000  0.4587470000000  0.5395680000000 1.0
C      1  0.5662080000000  0.4813720000000  0.4580370000000 1.0
C      1  0.4190050000000  0.5422100000000  0.4621400000000 1.0
C      1  0.5018950000000  0.5224940000000  0.5020620000000 1.0
C      1  0.5683160000000  0.5089670000000  0.5114100000000 1.0
C      1  0.5163620000000  0.4197640000000  0.5298040000000 1.0
C      1  0.4522600000000  0.4558980000000  0.4742400000000 1.0
C      1  0.5153320000000  0.4783450000000  0.5723960000000 1.0
C      1  0.5617630000000  0.5586810000000  0.5039400000000 1.0
C      1  0.5185210000000  0.5122170000000  0.4207780000000 1.0
C      1  0.5029030000000  0.4905520000000  0.4129010000000 1.0
C      1  0.5060200000000  0.5244240000000  0.4445810000000 1.0
C      1  0.5147290000000  0.4946310000000  0.4674300000000 1.0
C      1  0.4188570000000  0.4690000000000  0.5004410000000 1.0
C      1  0.4238210000000  0.4669120000000  0.4712180000000 1.0
C      1  0.4742990000000  0.4279180000000  0.5062450000000 1.0
C      1  0.5038150000000  0.5674650000000  0.5429880000000 1.0
C      1  0.4290230000000  0.4935950000000  0.4580140000000 1.0
C      1  0.4498320000000  0.4452440000000  0.5038510000000 1.0
C      1  0.5133020000000  0.4393280000000  0.4325190000000 1.0
C      1  0.4877840000000  0.4719900000000  0.5661670000000 1.0
C      1  0.5906030000000  0.4922960000000  0.5044770000000 1.0
C      1  0.5254170000000  0.5123840000000  0.4880400000000 1.0
C      1  0.4919820000000  0.4864830000000  0.5134980000000 1.0
C      1  0.4196690000000  0.5166820000000  0.4739740000000 1.0
C      1  0.5312370000000  0.4315620000000  0.5082150000000 1.0
C      1  0.5643100000000  0.5088320000000  0.4461470000000 1.0
C      1  0.5707070000000  0.5329550000000  0.4929700000000 1.0
C      1  0.5386920000000  0.4627140000000  0.5383890000000 1.0
C      1  0.4623500000000  0.4828880000000  0.5225570000000 1.0
C      1  0.4658260000000  0.5362100000000  0.4699060000000 1.0
C      1  0.5284160000000  0.4430270000000  0.4560980000000 1.0
C      1  0.4795370000000  0.4478590000000  0.5509460000000 1.0
C      1  0.5350720000000  0.4591580000000  0.5658520000000 1.0
C      1  0.4448790000000  0.5687820000000  0.4939750000000 1.0
C      1  0.5410590000000  0.4946720000000  0.5054110000000 1.0
C      1  0.5662000000000  0.5153470000000  0.5396240000000 1.0
C      1  0.4717840000000  0.4381200000000  0.4586080000000 1.0
C      1  0.4788860000000  0.5293420000000  0.5469620000000 1.0
C      1  0.5247950000000  0.5470500000000  0.5402780000000 1.0
C      1  0.5462840000000  0.5734170000000  0.4830920000000 1.0
C      1  0.4561220000000  0.5382520000000  0.5295310000000 1.0
C      1  0.5032240000000  0.5653700000000  0.4744950000000 1.0
C      1  0.5030290000000  0.5257330000000  0.5827060000000 1.0
C      1  0.4679190000000  0.4930340000000  0.5687950000000 1.0
C      1  0.4643920000000  0.4957780000000  0.4430550000000 1.0
C      1  0.4887440000000  0.4515480000000  0.4383780000000 1.0
C      1  0.4404080000000  0.4867790000000  0.5611720000000 1.0
C      1  0.4871820000000  0.5537090000000  0.5628770000000 1.0
C      1  0.5481560000000  0.5564200000000  0.5280790000000 1.0
C      1  0.5171080000000  0.4307940000000  0.4809510000000 1.0
C      1  0.5468910000000  0.5133300000000  0.5588620000000 1.0
C      1  0.5682190000000  0.4522360000000  0.4964910000000 1.0
C      1  0.4821250000000  0.4775870000000  0.4265270000000 1.0
C      1  0.5616370000000  0.4490870000000  0.5255710000000 1.0
C      1  0.4878340000000  0.4248700000000  0.4801280000000 1.0
C      1  0.5240180000000  0.4897290000000  0.5302930000000 1.0
C      1  0.4309560000000  0.5167200000000  0.5002650000000 1.0
END
