TITL C-950535-5962-337 -1.62208176801344e-06 125000 -543.33571255117 0 0 86 (C1) n - 1
REM
REM in /home/bkarasulu/work/CARBON/AIRSS/Generating-Clusters/EDIP-Nigel-Params/with-SteepDescent/Only-C1/SD-CG/HFTN-CG
REM
REM
REM
REM
REM
REM ./C.cell (11c1c37f851c82e70ff6c80c92926a4b)
REM
REM compiler GCC version 9.2.1 20190827 (Red Hat 9.2.1-1)
REM options -cpp -mtune=generic -march=x86-64 -g -O0 -fpre-include=/usr/include/finclude/math-vector-fortran.h
REM seed -762966732 341131684 945307400 1146488324 2093116673 -1270596145 1541254822 -1770870106 -1704135558 -898109583 -94019356 1666396787 514630316 80447970 -430344236 -1563295406 -284153196 -1875059881 -707688520 -1160087330 -1051517988 -285041114 -871421739 968941001 -816041166 -1188305740 1996263345 -958098208 -1611300365 1958414314 -128320781 -113861891 -195237605
REM
CELL 1.54180   50.00000   50.00000   50.00000   90.00000   90.00000   90.00000
LATT -1
SFAC C  
C      1  0.5078980000000  0.4439530000000  0.4505100000000 1.0
C      1  0.4619400000000  0.5313320000000  0.5446020000000 1.0
C      1  0.4631770000000  0.4867680000000  0.5849470000000 1.0
C      1  0.4807070000000  0.4926550000000  0.4872450000000 1.0
C      1  0.5064030000000  0.5588570000000  0.4439970000000 1.0
C      1  0.5233720000000  0.5328850000000  0.4937260000000 1.0
C      1  0.5333270000000  0.4096420000000  0.5149700000000 1.0
C      1  0.4898990000000  0.4080890000000  0.5007380000000 1.0
C      1  0.5138320000000  0.4968030000000  0.5938220000000 1.0
C      1  0.5726610000000  0.4642670000000  0.5072980000000 1.0
C      1  0.4340240000000  0.4895650000000  0.4570150000000 1.0
C      1  0.4909180000000  0.4461440000000  0.4946560000000 1.0
C      1  0.5496100000000  0.4939700000000  0.4452280000000 1.0
C      1  0.4840010000000  0.5166020000000  0.5294270000000 1.0
C      1  0.4944580000000  0.5378730000000  0.4869100000000 1.0
C      1  0.4440340000000  0.4452000000000  0.5157740000000 1.0
C      1  0.5076190000000  0.5798800000000  0.5225630000000 1.0
C      1  0.5247580000000  0.4377170000000  0.5541350000000 1.0
C      1  0.5648450000000  0.5565710000000  0.4816810000000 1.0
C      1  0.4455190000000  0.5138580000000  0.4487690000000 1.0
C      1  0.4756320000000  0.5165040000000  0.4451700000000 1.0
C      1  0.4839840000000  0.5134760000000  0.4161210000000 1.0
C      1  0.4963220000000  0.4752550000000  0.5047550000000 1.0
C      1  0.4875630000000  0.4181530000000  0.5276650000000 1.0
C      1  0.4829980000000  0.4738900000000  0.5660070000000 1.0
C      1  0.4684910000000  0.4402110000000  0.5323470000000 1.0
C      1  0.4701130000000  0.4479620000000  0.4736370000000 1.0
C      1  0.5566360000000  0.5252160000000  0.5417290000000 1.0
C      1  0.4841450000000  0.5444410000000  0.4588950000000 1.0
C      1  0.4565320000000  0.5743820000000  0.4884080000000 1.0
C      1  0.5591970000000  0.4720320000000  0.4626640000000 1.0
C      1  0.5250020000000  0.4810370000000  0.4986820000000 1.0
C      1  0.4827600000000  0.4689670000000  0.4180620000000 1.0
C      1  0.5257980000000  0.4891160000000  0.4283400000000 1.0
C      1  0.5022070000000  0.4737340000000  0.4400790000000 1.0
C      1  0.4790180000000  0.5783870000000  0.5195580000000 1.0
C      1  0.5222630000000  0.5194660000000  0.5795860000000 1.0
C      1  0.5223200000000  0.4849960000000  0.5426210000000 1.0
C      1  0.4663520000000  0.4501840000000  0.5594600000000 1.0
C      1  0.5252040000000  0.5752180000000  0.4602490000000 1.0
C      1  0.4737940000000  0.4906190000000  0.4031570000000 1.0
C      1  0.5238240000000  0.5798770000000  0.4977700000000 1.0
C      1  0.4429190000000  0.5567880000000  0.5071050000000 1.0
C      1  0.5173140000000  0.4391120000000  0.4790770000000 1.0
C      1  0.5300060000000  0.5130460000000  0.5509450000000 1.0
C      1  0.5488020000000  0.5529990000000  0.5312620000000 1.0
C      1  0.5231260000000  0.5381490000000  0.4316850000000 1.0
C      1  0.5201050000000  0.5608000000000  0.5424310000000 1.0
C      1  0.4271290000000  0.5126670000000  0.5130230000000 1.0
C      1  0.5105630000000  0.5309500000000  0.5356550000000 1.0
C      1  0.5175670000000  0.4111100000000  0.4914000000000 1.0
C      1  0.4371280000000  0.5125830000000  0.5410230000000 1.0
C      1  0.4733240000000  0.5348140000000  0.5720170000000 1.0
C      1  0.4589810000000  0.5591840000000  0.5311160000000 1.0
C      1  0.4198630000000  0.4849500000000  0.5047000000000 1.0
C      1  0.5411600000000  0.4587390000000  0.4885180000000 1.0
C      1  0.4674350000000  0.4462030000000  0.4238060000000 1.0
C      1  0.4270360000000  0.4669620000000  0.5268540000000 1.0
C      1  0.4757390000000  0.5188490000000  0.4997740000000 1.0
C      1  0.4390360000000  0.5358210000000  0.4668480000000 1.0
C      1  0.5414470000000  0.5558600000000  0.5011280000000 1.0
C      1  0.5160220000000  0.4200690000000  0.5347760000000 1.0
C      1  0.5749640000000  0.4795020000000  0.5310260000000 1.0
C      1  0.5366960000000  0.5071490000000  0.4930310000000 1.0
C      1  0.4394260000000  0.4742590000000  0.5741060000000 1.0
C      1  0.4396530000000  0.4837330000000  0.5472300000000 1.0
C      1  0.5903330000000  0.5236940000000  0.4551330000000 1.0
C      1  0.5280530000000  0.4638440000000  0.5629920000000 1.0
C      1  0.5778930000000  0.4816990000000  0.4839460000000 1.0
C      1  0.5801580000000  0.5310700000000  0.4804380000000 1.0
C      1  0.5029030000000  0.5418290000000  0.5715340000000 1.0
C      1  0.5080050000000  0.4715940000000  0.5825960000000 1.0
C      1  0.5669620000000  0.5179940000000  0.4402040000000 1.0
C      1  0.5670240000000  0.5081200000000  0.4950890000000 1.0
C      1  0.5138240000000  0.5144160000000  0.4168480000000 1.0
C      1  0.5531430000000  0.5654700000000  0.4553940000000 1.0
C      1  0.4647240000000  0.5143290000000  0.5884370000000 1.0
C      1  0.4577960000000  0.5594300000000  0.4630950000000 1.0
C      1  0.5513630000000  0.5427630000000  0.4353280000000 1.0
C      1  0.4431630000000  0.4478620000000  0.4852780000000 1.0
C      1  0.4453320000000  0.5294130000000  0.4961580000000 1.0
C      1  0.5736280000000  0.5071910000000  0.5243770000000 1.0
C      1  0.4272700000000  0.4726580000000  0.4786260000000 1.0
C      1  0.4922550000000  0.4860960000000  0.5356910000000 1.0
C      1  0.4887130000000  0.4939390000000  0.4593750000000 1.0
C      1  0.4788590000000  0.4365360000000  0.4479500000000 1.0
END
