TITL C-951348-1603-413 -1.40668435913084e-07 125000 -545.074144647735 0 0 89 (C1) n - 1
REM
REM in /home/bkarasulu/work/CARBON/AIRSS/Generating-Clusters/EDIP-Nigel-Params/with-SteepDescent/Only-C1/SD-CG/HFTN-CG
REM
REM
REM
REM
REM
REM ./C.cell (11c1c37f851c82e70ff6c80c92926a4b)
REM
REM compiler GCC version 9.2.1 20190827 (Red Hat 9.2.1-1)
REM options -cpp -mtune=generic -march=x86-64 -g -O0 -fpre-include=/usr/include/finclude/math-vector-fortran.h
REM seed -31738571 -1986336048 328938166 -710770285 -1260614249 1593401746 -2147232275 1782649436 -2064894123 -990911807 1384746814 1038882560 1590797879 428581050 -131734629 38882667 281446542 2138883143 2049287669 1106596199 -1556201355 889226946 -175382412 1048697332 -115720570 -410818950 361422895 860443652 712040412 -798557903 418780963 -2075600960 -1554840069
REM
CELL 1.54180   50.00000   50.00000   50.00000   90.00000   90.00000   90.00000
LATT -1
SFAC C  
C      1  0.4784770000000  0.4686220000000  0.4497510000000 1.0
C      1  0.4492660000000  0.4409880000000  0.4792780000000 1.0
C      1  0.4996600000000  0.4344180000000  0.4759600000000 1.0
C      1  0.5506720000000  0.5083250000000  0.4779080000000 1.0
C      1  0.5310020000000  0.5302790000000  0.5292300000000 1.0
C      1  0.5769240000000  0.5115120000000  0.5205850000000 1.0
C      1  0.5583380000000  0.4652290000000  0.5278110000000 1.0
C      1  0.5248920000000  0.5637350000000  0.5573640000000 1.0
C      1  0.4784450000000  0.4735030000000  0.5906710000000 1.0
C      1  0.4421920000000  0.5141140000000  0.5073480000000 1.0
C      1  0.5076730000000  0.4759650000000  0.5023900000000 1.0
C      1  0.5216990000000  0.4436380000000  0.4587740000000 1.0
C      1  0.5089890000000  0.5689530000000  0.4518550000000 1.0
C      1  0.5653030000000  0.4581980000000  0.4789350000000 1.0
C      1  0.5343720000000  0.5632930000000  0.4616060000000 1.0
C      1  0.5004630000000  0.4586590000000  0.5832060000000 1.0
C      1  0.4276660000000  0.5522300000000  0.5436190000000 1.0
C      1  0.4646220000000  0.5549370000000  0.5154750000000 1.0
C      1  0.4544980000000  0.4547200000000  0.5238570000000 1.0
C      1  0.5754400000000  0.4771800000000  0.4583040000000 1.0
C      1  0.4794670000000  0.5036250000000  0.5307050000000 1.0
C      1  0.5086770000000  0.5081390000000  0.5407170000000 1.0
C      1  0.4317520000000  0.4796040000000  0.4511860000000 1.0
C      1  0.4919580000000  0.4921720000000  0.4040220000000 1.0
C      1  0.5011330000000  0.4170710000000  0.4997500000000 1.0
C      1  0.4629800000000  0.4945970000000  0.4101330000000 1.0
C      1  0.4913810000000  0.5309050000000  0.5744800000000 1.0
C      1  0.4370790000000  0.4687260000000  0.4787170000000 1.0
C      1  0.4760500000000  0.4773290000000  0.5127660000000 1.0
C      1  0.4386990000000  0.5407890000000  0.4684530000000 1.0
C      1  0.5442550000000  0.5460020000000  0.5668400000000 1.0
C      1  0.4623170000000  0.4753300000000  0.5675940000000 1.0
C      1  0.4248840000000  0.5079920000000  0.4526220000000 1.0
C      1  0.5485770000000  0.5193580000000  0.5616980000000 1.0
C      1  0.5392530000000  0.4728560000000  0.5711910000000 1.0
C      1  0.5200600000000  0.4387140000000  0.5433500000000 1.0
C      1  0.5772390000000  0.4654300000000  0.5057320000000 1.0
C      1  0.4605560000000  0.4505070000000  0.5522610000000 1.0
C      1  0.5375820000000  0.5736280000000  0.5327640000000 1.0
C      1  0.4262140000000  0.5372340000000  0.4957500000000 1.0
C      1  0.5607850000000  0.5283690000000  0.4565160000000 1.0
C      1  0.5660230000000  0.5676760000000  0.5327410000000 1.0
C      1  0.4699800000000  0.5254240000000  0.5116320000000 1.0
C      1  0.4580030000000  0.5022880000000  0.5530410000000 1.0
C      1  0.5351170000000  0.4608320000000  0.4786270000000 1.0
C      1  0.5791030000000  0.5609220000000  0.5093990000000 1.0
C      1  0.5262780000000  0.5751800000000  0.4853680000000 1.0
C      1  0.4543240000000  0.4302260000000  0.5066340000000 1.0
C      1  0.4784770000000  0.4927430000000  0.4681150000000 1.0
C      1  0.4752540000000  0.4276130000000  0.5596620000000 1.0
C      1  0.5485760000000  0.5112030000000  0.5099190000000 1.0
C      1  0.4752290000000  0.4116300000000  0.5080900000000 1.0
C      1  0.5127170000000  0.4616020000000  0.4362760000000 1.0
C      1  0.5336580000000  0.4999410000000  0.5761270000000 1.0
C      1  0.5423020000000  0.4556210000000  0.5492690000000 1.0
C      1  0.4845160000000  0.5343040000000  0.4267550000000 1.0
C      1  0.5886290000000  0.5381140000000  0.5219170000000 1.0
C      1  0.4594650000000  0.5201780000000  0.4230710000000 1.0
C      1  0.4642890000000  0.5570830000000  0.4678640000000 1.0
C      1  0.4334830000000  0.5264520000000  0.4332840000000 1.0
C      1  0.5189560000000  0.4222260000000  0.5207250000000 1.0
C      1  0.5320770000000  0.5211330000000  0.4172930000000 1.0
C      1  0.4867770000000  0.5511450000000  0.4503120000000 1.0
C      1  0.5059570000000  0.5061770000000  0.5790510000000 1.0
C      1  0.5300890000000  0.4887270000000  0.4663220000000 1.0
C      1  0.4994760000000  0.5496200000000  0.5533560000000 1.0
C      1  0.5882060000000  0.5270110000000  0.4637450000000 1.0
C      1  0.4275430000000  0.4641240000000  0.5220300000000 1.0
C      1  0.4745450000000  0.4430300000000  0.4644830000000 1.0
C      1  0.5563320000000  0.4858990000000  0.4380270000000 1.0
C      1  0.4723270000000  0.5697440000000  0.4917630000000 1.0
C      1  0.4621790000000  0.5270650000000  0.5708750000000 1.0
C      1  0.5234650000000  0.5617570000000  0.5103740000000 1.0
C      1  0.4756540000000  0.5637690000000  0.5430490000000 1.0
C      1  0.4346350000000  0.5572660000000  0.5166440000000 1.0
C      1  0.5048040000000  0.4964270000000  0.4805170000000 1.0
C      1  0.5550720000000  0.5138410000000  0.4312410000000 1.0
C      1  0.4971090000000  0.4628110000000  0.4105950000000 1.0
C      1  0.5267700000000  0.4874690000000  0.5234030000000 1.0
C      1  0.5914630000000  0.4918690000000  0.5035320000000 1.0
C      1  0.5049380000000  0.5152070000000  0.4180970000000 1.0
C      1  0.4708720000000  0.4498350000000  0.4107950000000 1.0
C      1  0.5009820000000  0.4372570000000  0.5648650000000 1.0
C      1  0.4328990000000  0.5054420000000  0.5354020000000 1.0
C      1  0.4520850000000  0.5528850000000  0.5587040000000 1.0
C      1  0.4566070000000  0.4707000000000  0.4273470000000 1.0
C      1  0.4580300000000  0.4882340000000  0.4897490000000 1.0
C      1  0.5884870000000  0.4991720000000  0.4741150000000 1.0
C      1  0.4147550000000  0.4842520000000  0.5346260000000 1.0
END
