TITL C-951340-9809-724 -2.70814795670686e-06 125000 -310.745632066591 0 0 52 (C1) n - 1
REM
REM in /home/bkarasulu/work/CARBON/AIRSS/Generating-Clusters/EDIP-Nigel-Params/with-SteepDescent/Only-C1/SD-CG/HFTN-CG
REM
REM
REM
REM
REM
REM ./C.cell (11c1c37f851c82e70ff6c80c92926a4b)
REM
REM compiler GCC version 9.2.1 20190827 (Red Hat 9.2.1-1)
REM options -cpp -mtune=generic -march=x86-64 -g -O0 -fpre-include=/usr/include/finclude/math-vector-fortran.h
REM seed -1665355760 -1334517786 375678519 499869098 -793356284 525127911 1336494443 -738690747 640888815 -1241834713 316531542 -77849109 -650670420 -1952725912 -628368776 -1512298971 1461783846 -2075095765 1374453271 1572476213 1122385028 -528287975 -380981340 1816116524 1492305096 1190279918 688275741 206152128 -1618798998 1067151521 213592443 -648218216 1587544805
REM
CELL 1.54180   50.00000   50.00000   50.00000   90.00000   90.00000   90.00000
LATT -1
SFAC C  
C      1  0.5072360000000  0.4531920000000  0.4929480000000 1.0
C      1  0.4576520000000  0.5298620000000  0.5507050000000 1.0
C      1  0.4660870000000  0.4882230000000  0.4536440000000 1.0
C      1  0.5375070000000  0.5071230000000  0.5460150000000 1.0
C      1  0.4897350000000  0.5013920000000  0.4666080000000 1.0
C      1  0.5378300000000  0.5250290000000  0.4435980000000 1.0
C      1  0.5372290000000  0.5426990000000  0.5303910000000 1.0
C      1  0.4835870000000  0.4273920000000  0.5108010000000 1.0
C      1  0.4404800000000  0.5161760000000  0.4851470000000 1.0
C      1  0.4890760000000  0.5005250000000  0.4969570000000 1.0
C      1  0.5056020000000  0.4779020000000  0.5088110000000 1.0
C      1  0.4976350000000  0.5715490000000  0.5362800000000 1.0
C      1  0.4932530000000  0.4450140000000  0.4467280000000 1.0
C      1  0.5746790000000  0.4885270000000  0.5015530000000 1.0
C      1  0.4720240000000  0.4322410000000  0.4627420000000 1.0
C      1  0.5333010000000  0.4846500000000  0.5235070000000 1.0
C      1  0.5476190000000  0.4626100000000  0.4723580000000 1.0
C      1  0.4750760000000  0.5371740000000  0.5714820000000 1.0
C      1  0.4446640000000  0.4762940000000  0.5147020000000 1.0
C      1  0.5006760000000  0.5317010000000  0.5615540000000 1.0
C      1  0.5033970000000  0.5194600000000  0.4256890000000 1.0
C      1  0.4995110000000  0.4819560000000  0.5630770000000 1.0
C      1  0.5011280000000  0.5384630000000  0.4465030000000 1.0
C      1  0.5344370000000  0.5114800000000  0.5076790000000 1.0
C      1  0.5139170000000  0.5060560000000  0.5632090000000 1.0
C      1  0.5148700000000  0.5525760000000  0.5474370000000 1.0
C      1  0.5143110000000  0.4878390000000  0.4575400000000 1.0
C      1  0.5107770000000  0.5464520000000  0.4888640000000 1.0
C      1  0.4454500000000  0.4532650000000  0.4991270000000 1.0
C      1  0.5262510000000  0.4367960000000  0.5088700000000 1.0
C      1  0.5170400000000  0.4587470000000  0.4635280000000 1.0
C      1  0.4767300000000  0.5662490000000  0.5180280000000 1.0
C      1  0.4401110000000  0.5373930000000  0.5043920000000 1.0
C      1  0.4869110000000  0.5643680000000  0.4904070000000 1.0
C      1  0.5529020000000  0.5188380000000  0.4685600000000 1.0
C      1  0.4842800000000  0.4661030000000  0.5454680000000 1.0
C      1  0.5070930000000  0.5222740000000  0.5047280000000 1.0
C      1  0.4710990000000  0.4633950000000  0.4395110000000 1.0
C      1  0.4518240000000  0.5025130000000  0.5499250000000 1.0
C      1  0.5592050000000  0.4909110000000  0.4777420000000 1.0
C      1  0.4597810000000  0.5429750000000  0.5243690000000 1.0
C      1  0.5374660000000  0.5545800000000  0.5013950000000 1.0
C      1  0.4766910000000  0.5416310000000  0.4615140000000 1.0
C      1  0.4584640000000  0.5029400000000  0.5071130000000 1.0
C      1  0.4564030000000  0.4759650000000  0.5416570000000 1.0
C      1  0.5238890000000  0.5001730000000  0.4330600000000 1.0
C      1  0.5511310000000  0.4479080000000  0.4987100000000 1.0
C      1  0.5590580000000  0.4700360000000  0.5165950000000 1.0
C      1  0.4959220000000  0.4418000000000  0.5327280000000 1.0
C      1  0.5572190000000  0.5408380000000  0.4860070000000 1.0
C      1  0.4553760000000  0.5191880000000  0.4594990000000 1.0
C      1  0.4664050000000  0.4375550000000  0.4905390000000 1.0
END
