TITL C-950526-5686-89 -7.71133974376114e-07 125000 -733.569105607351 0 0 118 (C1) n - 1
REM
REM in /home/bkarasulu/work/CARBON/AIRSS/Generating-Clusters/EDIP-Nigel-Params/with-SteepDescent/Only-C1/SD-CG/HFTN-CG
REM
REM
REM
REM
REM
REM ./C.cell (11c1c37f851c82e70ff6c80c92926a4b)
REM
REM compiler GCC version 9.2.1 20190827 (Red Hat 9.2.1-1)
REM options -cpp -mtune=generic -march=x86-64 -g -O0 -fpre-include=/usr/include/finclude/math-vector-fortran.h
REM seed 145382520 1180625553 -2103847136 -3474007 140674922 1081213303 1838413326 773677412 -489847928 -720561982 -1047816702 562197163 1851932440 -1823055179 259830243 -1595850437 -1225304614 -123363454 1666840159 1245373062 84160625 489990870 -1966366076 -1981396996 718036341 870191627 -1689145261 -520876523 165241140 1193090987 380728058 138496618 -1002330121
REM
CELL 1.54180   50.00000   50.00000   50.00000   90.00000   90.00000   90.00000
LATT -1
SFAC C  
C      1  0.5046860000000  0.5522140000000  0.5260670000000 1.0
C      1  0.5106860000000  0.4817410000000  0.5844680000000 1.0
C      1  0.4533010000000  0.4170250000000  0.4972170000000 1.0
C      1  0.5155010000000  0.5922540000000  0.5049120000000 1.0
C      1  0.5003250000000  0.4951120000000  0.3964940000000 1.0
C      1  0.5420890000000  0.5630160000000  0.4676770000000 1.0
C      1  0.5036200000000  0.4698580000000  0.4085120000000 1.0
C      1  0.5304460000000  0.4597280000000  0.4161390000000 1.0
C      1  0.4072790000000  0.4770940000000  0.4851800000000 1.0
C      1  0.5050290000000  0.5443840000000  0.5912990000000 1.0
C      1  0.5401520000000  0.4752010000000  0.4930190000000 1.0
C      1  0.4529960000000  0.5489810000000  0.4213910000000 1.0
C      1  0.4576240000000  0.5699180000000  0.4449240000000 1.0
C      1  0.4373860000000  0.4767850000000  0.5586180000000 1.0
C      1  0.4977490000000  0.4098400000000  0.5099880000000 1.0
C      1  0.4568850000000  0.4702830000000  0.4970120000000 1.0
C      1  0.4819270000000  0.4294720000000  0.4328490000000 1.0
C      1  0.5382430000000  0.4315750000000  0.5328710000000 1.0
C      1  0.3924520000000  0.4994740000000  0.5125020000000 1.0
C      1  0.4934640000000  0.5610280000000  0.4844730000000 1.0
C      1  0.4943940000000  0.4496510000000  0.5540560000000 1.0
C      1  0.5039150000000  0.5805700000000  0.5321490000000 1.0
C      1  0.4872130000000  0.5734530000000  0.4484620000000 1.0
C      1  0.4254570000000  0.4319140000000  0.4995400000000 1.0
C      1  0.4481400000000  0.5285310000000  0.4546970000000 1.0
C      1  0.5884320000000  0.4783230000000  0.4614570000000 1.0
C      1  0.5762300000000  0.4399000000000  0.4985240000000 1.0
C      1  0.5499800000000  0.5410880000000  0.5714010000000 1.0
C      1  0.4499550000000  0.4303730000000  0.5586600000000 1.0
C      1  0.4799850000000  0.5053760000000  0.4731250000000 1.0
C      1  0.5864970000000  0.5400520000000  0.4964380000000 1.0
C      1  0.5382840000000  0.5713780000000  0.4993350000000 1.0
C      1  0.5575020000000  0.4276870000000  0.4780990000000 1.0
C      1  0.5613040000000  0.5759510000000  0.5183610000000 1.0
C      1  0.5586770000000  0.5403700000000  0.4566660000000 1.0
C      1  0.4797460000000  0.4526860000000  0.4145090000000 1.0
C      1  0.5924750000000  0.5062090000000  0.4620690000000 1.0
C      1  0.4726650000000  0.5804160000000  0.5382830000000 1.0
C      1  0.4320020000000  0.4494060000000  0.5496480000000 1.0
C      1  0.5191730000000  0.4856100000000  0.5105940000000 1.0
C      1  0.4304760000000  0.5284290000000  0.5208500000000 1.0
C      1  0.5250000000000  0.5822730000000  0.5551940000000 1.0
C      1  0.5314660000000  0.4365740000000  0.4353440000000 1.0
C      1  0.4994090000000  0.5546480000000  0.4270960000000 1.0
C      1  0.4856580000000  0.4677060000000  0.5771610000000 1.0
C      1  0.4593040000000  0.4177350000000  0.4454310000000 1.0
C      1  0.5216950000000  0.5273240000000  0.4886170000000 1.0
C      1  0.4617910000000  0.5170280000000  0.5777380000000 1.0
C      1  0.5788020000000  0.5519170000000  0.5212730000000 1.0
C      1  0.5443200000000  0.5147950000000  0.5830370000000 1.0
C      1  0.5614110000000  0.4696430000000  0.4498140000000 1.0
C      1  0.5522620000000  0.5062890000000  0.4189890000000 1.0
C      1  0.5238810000000  0.4452810000000  0.5554060000000 1.0
C      1  0.5005910000000  0.4096710000000  0.4716790000000 1.0
C      1  0.5248880000000  0.4170130000000  0.5109120000000 1.0
C      1  0.4300930000000  0.5572600000000  0.5286980000000 1.0
C      1  0.4569500000000  0.4802580000000  0.4466980000000 1.0
C      1  0.4539590000000  0.4671500000000  0.4183720000000 1.0
C      1  0.4637620000000  0.5654240000000  0.5630850000000 1.0
C      1  0.5000610000000  0.5339190000000  0.5492140000000 1.0
C      1  0.4540270000000  0.5000990000000  0.4880620000000 1.0
C      1  0.5665220000000  0.4688780000000  0.5347310000000 1.0
C      1  0.4749120000000  0.4271450000000  0.5473350000000 1.0
C      1  0.5159870000000  0.5467000000000  0.4670870000000 1.0
C      1  0.5582460000000  0.5132680000000  0.5281360000000 1.0
C      1  0.5661160000000  0.4399250000000  0.5285800000000 1.0
C      1  0.4217270000000  0.5003480000000  0.5537670000000 1.0
C      1  0.4532630000000  0.4984570000000  0.4121180000000 1.0
C      1  0.4533140000000  0.5721040000000  0.5159430000000 1.0
C      1  0.4211540000000  0.4523870000000  0.4771270000000 1.0
C      1  0.4961660000000  0.4676430000000  0.5285410000000 1.0
C      1  0.5846310000000  0.5093840000000  0.5379190000000 1.0
C      1  0.5745620000000  0.5502300000000  0.5598970000000 1.0
C      1  0.5532130000000  0.4886160000000  0.5719040000000 1.0
C      1  0.5544520000000  0.4782720000000  0.4214450000000 1.0
C      1  0.4204810000000  0.5145830000000  0.4517060000000 1.0
C      1  0.5561380000000  0.4397080000000  0.4514280000000 1.0
C      1  0.5502410000000  0.5859250000000  0.5424420000000 1.0
C      1  0.4632430000000  0.5535600000000  0.4932700000000 1.0
C      1  0.5145430000000  0.4841670000000  0.4536310000000 1.0
C      1  0.4794260000000  0.5399200000000  0.4120880000000 1.0
C      1  0.5267870000000  0.5586040000000  0.5746160000000 1.0
C      1  0.5341920000000  0.4662330000000  0.5750370000000 1.0
C      1  0.4791870000000  0.4552710000000  0.5086530000000 1.0
C      1  0.5486140000000  0.5315310000000  0.4305940000000 1.0
C      1  0.5944900000000  0.5325190000000  0.5513370000000 1.0
C      1  0.5175460000000  0.5171480000000  0.5949210000000 1.0
C      1  0.5668850000000  0.4773470000000  0.5055170000000 1.0
C      1  0.4336970000000  0.5210230000000  0.4221190000000 1.0
C      1  0.5125330000000  0.5053030000000  0.5537820000000 1.0
C      1  0.4856470000000  0.4931980000000  0.5410450000000 1.0
C      1  0.3976180000000  0.4988100000000  0.5396500000000 1.0
C      1  0.4100790000000  0.5193980000000  0.5010800000000 1.0
C      1  0.5367000000000  0.4099730000000  0.4861960000000 1.0
C      1  0.5822260000000  0.5307020000000  0.4705260000000 1.0
C      1  0.5395240000000  0.4823010000000  0.4657320000000 1.0
C      1  0.4795100000000  0.5110530000000  0.4063330000000 1.0
C      1  0.4194900000000  0.4426230000000  0.5254390000000 1.0
C      1  0.5850610000000  0.4838370000000  0.5519030000000 1.0
C      1  0.4807200000000  0.5411690000000  0.5721630000000 1.0
C      1  0.4464120000000  0.5552810000000  0.4683080000000 1.0
C      1  0.5067520000000  0.4246550000000  0.4462730000000 1.0
C      1  0.4692310000000  0.4110000000000  0.4712250000000 1.0
C      1  0.4226710000000  0.5023820000000  0.4798320000000 1.0
C      1  0.5258490000000  0.5461050000000  0.4241330000000 1.0
C      1  0.4367310000000  0.5240630000000  0.5644480000000 1.0
C      1  0.4749860000000  0.4266860000000  0.5168910000000 1.0
C      1  0.5272200000000  0.5460610000000  0.5100750000000 1.0
C      1  0.4867120000000  0.4869680000000  0.4532190000000 1.0
C      1  0.5011300000000  0.5074460000000  0.4960210000000 1.0
C      1  0.5338180000000  0.4987550000000  0.5332060000000 1.0
C      1  0.4624430000000  0.4865500000000  0.5717350000000 1.0
C      1  0.4366040000000  0.5534230000000  0.5573360000000 1.0
C      1  0.4488430000000  0.4598030000000  0.4698390000000 1.0
C      1  0.4570860000000  0.5247010000000  0.5071100000000 1.0
C      1  0.4828660000000  0.5150280000000  0.5195750000000 1.0
C      1  0.5910560000000  0.4670000000000  0.4887970000000 1.0
C      1  0.4970820000000  0.5904680000000  0.4818790000000 1.0
END
