TITL C-951343-2256-745 1.15170996410789e-06 125000 -668.474332896009 0 0 107 (C1) n - 1
REM
REM in /home/bkarasulu/work/CARBON/AIRSS/Generating-Clusters/EDIP-Nigel-Params/with-SteepDescent/Only-C1/SD-CG/HFTN-CG
REM
REM
REM
REM
REM
REM ./C.cell (11c1c37f851c82e70ff6c80c92926a4b)
REM
REM compiler GCC version 9.2.1 20190827 (Red Hat 9.2.1-1)
REM options -cpp -mtune=generic -march=x86-64 -g -O0 -fpre-include=/usr/include/finclude/math-vector-fortran.h
REM seed 534710455 -1766023847 -408612378 -450549295 1978554623 872475479 -1884502958 -862829871 1651030640 -1866300071 -266050544 -1582622972 1645440321 -1856831227 787078803 -146771290 24661406 -262612931 -1984474236 938370729 1799152012 -1364956093 1910188350 -111523405 581119868 -650811374 1907718565 -698313243 -1398666352 -301371666 1364838553 -913378800 1843621841
REM
CELL 1.54180   50.00000   50.00000   50.00000   90.00000   90.00000   90.00000
LATT -1
SFAC C  
C      1  0.5170050000000  0.5354280000000  0.5307660000000 1.0
C      1  0.5325970000000  0.5065300000000  0.5313670000000 1.0
C      1  0.4908090000000  0.5145100000000  0.4947230000000 1.0
C      1  0.5365390000000  0.4308160000000  0.5322960000000 1.0
C      1  0.5567130000000  0.4439240000000  0.4560620000000 1.0
C      1  0.5409930000000  0.4591850000000  0.5667130000000 1.0
C      1  0.4848830000000  0.5449740000000  0.4580150000000 1.0
C      1  0.5397950000000  0.4794720000000  0.4263150000000 1.0
C      1  0.5174350000000  0.5102850000000  0.4833930000000 1.0
C      1  0.5336520000000  0.4833480000000  0.5812840000000 1.0
C      1  0.5533340000000  0.4320070000000  0.4822290000000 1.0
C      1  0.4977050000000  0.4576980000000  0.4834360000000 1.0
C      1  0.4254190000000  0.4857140000000  0.4959060000000 1.0
C      1  0.4424160000000  0.4432420000000  0.4644780000000 1.0
C      1  0.4628860000000  0.5879140000000  0.4725720000000 1.0
C      1  0.4666580000000  0.4465400000000  0.4470160000000 1.0
C      1  0.5131960000000  0.4890960000000  0.5499020000000 1.0
C      1  0.5604250000000  0.5259010000000  0.4667920000000 1.0
C      1  0.5133240000000  0.5417340000000  0.4495780000000 1.0
C      1  0.4559160000000  0.4815800000000  0.5010390000000 1.0
C      1  0.4636040000000  0.4653990000000  0.5658720000000 1.0
C      1  0.5462620000000  0.5705260000000  0.4517960000000 1.0
C      1  0.5369180000000  0.5354010000000  0.5744640000000 1.0
C      1  0.5307970000000  0.5342480000000  0.4731130000000 1.0
C      1  0.5913570000000  0.4863390000000  0.4807620000000 1.0
C      1  0.5500140000000  0.5545180000000  0.5532600000000 1.0
C      1  0.5619950000000  0.5452280000000  0.4434460000000 1.0
C      1  0.4827500000000  0.5735750000000  0.5416450000000 1.0
C      1  0.4885570000000  0.5573070000000  0.5666740000000 1.0
C      1  0.5080220000000  0.5786290000000  0.4938190000000 1.0
C      1  0.4761760000000  0.5111480000000  0.5867720000000 1.0
C      1  0.5605690000000  0.4699300000000  0.4448300000000 1.0
C      1  0.5157350000000  0.4386200000000  0.4402790000000 1.0
C      1  0.5228450000000  0.5652710000000  0.4363050000000 1.0
C      1  0.5576540000000  0.5744200000000  0.5005260000000 1.0
C      1  0.5069910000000  0.5774400000000  0.5239100000000 1.0
C      1  0.4822490000000  0.4207170000000  0.5298160000000 1.0
C      1  0.5123250000000  0.4942720000000  0.4576070000000 1.0
C      1  0.4876030000000  0.5305550000000  0.5178380000000 1.0
C      1  0.4423070000000  0.5906620000000  0.5139030000000 1.0
C      1  0.5471310000000  0.4753240000000  0.4872250000000 1.0
C      1  0.5291570000000  0.5081040000000  0.4250120000000 1.0
C      1  0.4298470000000  0.4605100000000  0.5389750000000 1.0
C      1  0.4237230000000  0.4904070000000  0.5410340000000 1.0
C      1  0.5475620000000  0.5308260000000  0.4235810000000 1.0
C      1  0.5209880000000  0.4389910000000  0.5573560000000 1.0
C      1  0.4723970000000  0.4720840000000  0.4759270000000 1.0
C      1  0.5171950000000  0.4611310000000  0.4225740000000 1.0
C      1  0.5270110000000  0.4161760000000  0.4897980000000 1.0
C      1  0.5886200000000  0.4683430000000  0.5014540000000 1.0
C      1  0.4290080000000  0.5344190000000  0.5124690000000 1.0
C      1  0.4658880000000  0.5405620000000  0.5783070000000 1.0
C      1  0.5729360000000  0.4440790000000  0.5051560000000 1.0
C      1  0.4212310000000  0.4889440000000  0.4669260000000 1.0
C      1  0.5095170000000  0.5360120000000  0.5604270000000 1.0
C      1  0.4419370000000  0.5531250000000  0.4373630000000 1.0
C      1  0.4809830000000  0.4948940000000  0.4560120000000 1.0
C      1  0.4963020000000  0.4192080000000  0.4800280000000 1.0
C      1  0.4484770000000  0.4387520000000  0.4935840000000 1.0
C      1  0.5215620000000  0.4667250000000  0.4660780000000 1.0
C      1  0.4411190000000  0.4478870000000  0.5617640000000 1.0
C      1  0.5727880000000  0.5447560000000  0.5368450000000 1.0
C      1  0.5661550000000  0.4362310000000  0.5344400000000 1.0
C      1  0.4373680000000  0.5480110000000  0.5367600000000 1.0
C      1  0.4394700000000  0.5081900000000  0.4550120000000 1.0
C      1  0.4687770000000  0.5464020000000  0.4325970000000 1.0
C      1  0.4725120000000  0.5192730000000  0.4197010000000 1.0
C      1  0.5717460000000  0.5517380000000  0.5087330000000 1.0
C      1  0.5360680000000  0.5720330000000  0.4821960000000 1.0
C      1  0.4401000000000  0.5805790000000  0.4875180000000 1.0
C      1  0.5594750000000  0.5038820000000  0.5472810000000 1.0
C      1  0.4344070000000  0.5373960000000  0.4591920000000 1.0
C      1  0.4732350000000  0.5201340000000  0.4717680000000 1.0
C      1  0.4184090000000  0.5068250000000  0.5159950000000 1.0
C      1  0.5320640000000  0.5710460000000  0.5369100000000 1.0
C      1  0.4264470000000  0.4449160000000  0.5132890000000 1.0
C      1  0.4662230000000  0.4835860000000  0.5315200000000 1.0
C      1  0.4738610000000  0.4251810000000  0.5013110000000 1.0
C      1  0.5269850000000  0.4066610000000  0.5178400000000 1.0
C      1  0.4546460000000  0.4905970000000  0.5810700000000 1.0
C      1  0.5674960000000  0.4546460000000  0.5562870000000 1.0
C      1  0.4942330000000  0.4701330000000  0.5344230000000 1.0
C      1  0.5354380000000  0.4978340000000  0.5025970000000 1.0
C      1  0.4230090000000  0.4624940000000  0.4570430000000 1.0
C      1  0.4689650000000  0.5520680000000  0.5049620000000 1.0
C      1  0.4934070000000  0.4772880000000  0.4172700000000 1.0
C      1  0.4565040000000  0.5687610000000  0.5270630000000 1.0
C      1  0.5828300000000  0.5193300000000  0.5426540000000 1.0
C      1  0.5016350000000  0.4003460000000  0.5278500000000 1.0
C      1  0.5498460000000  0.5072830000000  0.5751180000000 1.0
C      1  0.4662360000000  0.4687160000000  0.4250980000000 1.0
C      1  0.4529490000000  0.4978980000000  0.4284140000000 1.0
C      1  0.5068140000000  0.4646310000000  0.5094770000000 1.0
C      1  0.4080740000000  0.4619900000000  0.5004860000000 1.0
C      1  0.4911250000000  0.4285470000000  0.4511830000000 1.0
C      1  0.5801680000000  0.5320370000000  0.4890430000000 1.0
C      1  0.4340570000000  0.5054870000000  0.5643680000000 1.0
C      1  0.4729090000000  0.5134960000000  0.5393200000000 1.0
C      1  0.4821670000000  0.5676660000000  0.4811490000000 1.0
C      1  0.4913080000000  0.4437910000000  0.5498010000000 1.0
C      1  0.4337860000000  0.5503530000000  0.4864250000000 1.0
C      1  0.4939940000000  0.5101550000000  0.5614330000000 1.0
C      1  0.5946100000000  0.5084680000000  0.4972730000000 1.0
C      1  0.4504980000000  0.5285720000000  0.5546710000000 1.0
C      1  0.5660300000000  0.4902070000000  0.4663550000000 1.0
C      1  0.5330010000000  0.4536870000000  0.5114740000000 1.0
C      1  0.4991540000000  0.5060750000000  0.4172130000000 1.0
END
