TITL C-951345-2650-294 -1.73867479926351e-06 125000 -999.526447209176 0 0 158 (C1) n - 1
REM
REM in /home/bkarasulu/work/CARBON/AIRSS/Generating-Clusters/EDIP-Nigel-Params/with-SteepDescent/Only-C1/SD-CG/HFTN-CG
REM
REM
REM
REM
REM
REM ./C.cell (11c1c37f851c82e70ff6c80c92926a4b)
REM
REM compiler GCC version 9.2.1 20190827 (Red Hat 9.2.1-1)
REM options -cpp -mtune=generic -march=x86-64 -g -O0 -fpre-include=/usr/include/finclude/math-vector-fortran.h
REM seed -1439286306 503042360 -1971725187 -626937045 -841289448 1242677995 -1962047668 453576732 -1183574361 101881512 1552142155 -848203762 -1512041364 -360482455 1448856312 -621030485 -722037575 442665126 387991094 -1667919892 1138910046 903331871 461788156 -1126421215 98375771 1079605925 -1410328904 -824736738 1068446547 428597395 628308055 -1860272104 858302275
REM
CELL 1.54180   50.00000   50.00000   50.00000   90.00000   90.00000   90.00000
LATT -1
SFAC C  
C      1  0.4577870000000  0.4171980000000  0.4530240000000 1.0
C      1  0.5187890000000  0.6155270000000  0.5646210000000 1.0
C      1  0.5045260000000  0.4049370000000  0.4664930000000 1.0
C      1  0.4949020000000  0.6030720000000  0.4983530000000 1.0
C      1  0.4879850000000  0.4368340000000  0.3943570000000 1.0
C      1  0.4460580000000  0.5504640000000  0.4680800000000 1.0
C      1  0.5243250000000  0.5193250000000  0.5525890000000 1.0
C      1  0.4063420000000  0.5253110000000  0.5241450000000 1.0
C      1  0.5874710000000  0.5251110000000  0.4656600000000 1.0
C      1  0.4141160000000  0.4522380000000  0.5223130000000 1.0
C      1  0.5327660000000  0.4125210000000  0.4593390000000 1.0
C      1  0.5846820000000  0.4529080000000  0.4947270000000 1.0
C      1  0.4363160000000  0.5222330000000  0.5213870000000 1.0
C      1  0.5207570000000  0.4061540000000  0.5556390000000 1.0
C      1  0.4202550000000  0.4215640000000  0.4849970000000 1.0
C      1  0.5198700000000  0.5610460000000  0.5985000000000 1.0
C      1  0.5728190000000  0.4315820000000  0.5388130000000 1.0
C      1  0.4908290000000  0.4236040000000  0.5100600000000 1.0
C      1  0.5031270000000  0.4747140000000  0.4924780000000 1.0
C      1  0.4552350000000  0.4627230000000  0.4173300000000 1.0
C      1  0.4587470000000  0.5276260000000  0.4279280000000 1.0
C      1  0.5405580000000  0.5399190000000  0.4114130000000 1.0
C      1  0.5220620000000  0.4798570000000  0.5156650000000 1.0
C      1  0.5811930000000  0.4944940000000  0.4670130000000 1.0
C      1  0.4626710000000  0.5616230000000  0.5375500000000 1.0
C      1  0.5567010000000  0.5043700000000  0.5471030000000 1.0
C      1  0.5914740000000  0.4452610000000  0.5222140000000 1.0
C      1  0.4943020000000  0.4926040000000  0.4280240000000 1.0
C      1  0.4784060000000  0.5884250000000  0.4784710000000 1.0
C      1  0.4842270000000  0.4266750000000  0.4626400000000 1.0
C      1  0.5250660000000  0.4942990000000  0.4346990000000 1.0
C      1  0.4491850000000  0.4897920000000  0.5801170000000 1.0
C      1  0.4943160000000  0.4298640000000  0.5820370000000 1.0
C      1  0.4190860000000  0.5558320000000  0.4818260000000 1.0
C      1  0.4592960000000  0.4238430000000  0.5483130000000 1.0
C      1  0.4440200000000  0.4048420000000  0.4765720000000 1.0
C      1  0.4911000000000  0.5556830000000  0.5343320000000 1.0
C      1  0.5478890000000  0.4170780000000  0.4844420000000 1.0
C      1  0.5151730000000  0.4608940000000  0.5385340000000 1.0
C      1  0.5639150000000  0.5056010000000  0.5174630000000 1.0
C      1  0.5624210000000  0.4523890000000  0.5549900000000 1.0
C      1  0.4366850000000  0.4960430000000  0.5084530000000 1.0
C      1  0.4016690000000  0.5064690000000  0.4723540000000 1.0
C      1  0.4675610000000  0.5012250000000  0.4679650000000 1.0
C      1  0.4958530000000  0.4463880000000  0.4439320000000 1.0
C      1  0.5532460000000  0.5220130000000  0.5913020000000 1.0
C      1  0.4730500000000  0.4600110000000  0.3934200000000 1.0
C      1  0.3982520000000  0.4795680000000  0.4847960000000 1.0
C      1  0.4987960000000  0.5313260000000  0.3983190000000 1.0
C      1  0.5328390000000  0.5552160000000  0.5568930000000 1.0
C      1  0.3952320000000  0.4972080000000  0.5308740000000 1.0
C      1  0.4935500000000  0.5200450000000  0.5038380000000 1.0
C      1  0.4723140000000  0.5174040000000  0.5469460000000 1.0
C      1  0.4887400000000  0.4840820000000  0.3910220000000 1.0
C      1  0.5415290000000  0.4333570000000  0.4402650000000 1.0
C      1  0.5732740000000  0.4350460000000  0.4749240000000 1.0
C      1  0.5233780000000  0.5786980000000  0.4457530000000 1.0
C      1  0.4539470000000  0.4536040000000  0.4946540000000 1.0
C      1  0.4800070000000  0.5144020000000  0.4445290000000 1.0
C      1  0.5636900000000  0.5256550000000  0.4241920000000 1.0
C      1  0.4443060000000  0.4462660000000  0.5598350000000 1.0
C      1  0.5480410000000  0.5633100000000  0.5315010000000 1.0
C      1  0.5105520000000  0.5978240000000  0.5435040000000 1.0
C      1  0.5779820000000  0.5576050000000  0.5348240000000 1.0
C      1  0.5386420000000  0.5150350000000  0.4769830000000 1.0
C      1  0.4021100000000  0.5315430000000  0.4897050000000 1.0
C      1  0.4338120000000  0.4348340000000  0.5081080000000 1.0
C      1  0.4943210000000  0.5675590000000  0.5832530000000 1.0
C      1  0.4013630000000  0.5060960000000  0.4442470000000 1.0
C      1  0.5660660000000  0.5272370000000  0.5650340000000 1.0
C      1  0.4968540000000  0.5588320000000  0.4093760000000 1.0
C      1  0.5365410000000  0.6011000000000  0.5791140000000 1.0
C      1  0.4686940000000  0.5595800000000  0.4860840000000 1.0
C      1  0.5033330000000  0.4325820000000  0.4173790000000 1.0
C      1  0.5666560000000  0.4966620000000  0.4187390000000 1.0
C      1  0.5322840000000  0.4787540000000  0.5821260000000 1.0
C      1  0.5417730000000  0.5917000000000  0.5209380000000 1.0
C      1  0.4825410000000  0.5636420000000  0.4355030000000 1.0
C      1  0.5192450000000  0.5595970000000  0.4907920000000 1.0
C      1  0.4063400000000  0.4843250000000  0.5561660000000 1.0
C      1  0.4047240000000  0.5421900000000  0.5480830000000 1.0
C      1  0.5527780000000  0.5281800000000  0.4990880000000 1.0
C      1  0.4583370000000  0.5915980000000  0.5313210000000 1.0
C      1  0.4485580000000  0.5097400000000  0.3962690000000 1.0
C      1  0.4780140000000  0.5247330000000  0.6049630000000 1.0
C      1  0.5415550000000  0.5738100000000  0.5826170000000 1.0
C      1  0.4810330000000  0.4951800000000  0.4939430000000 1.0
C      1  0.4835610000000  0.4138530000000  0.5602130000000 1.0
C      1  0.4721020000000  0.5473010000000  0.5866550000000 1.0
C      1  0.6005780000000  0.5184260000000  0.5206420000000 1.0
C      1  0.5287980000000  0.5251920000000  0.4509230000000 1.0
C      1  0.4496690000000  0.4142840000000  0.5228760000000 1.0
C      1  0.5785570000000  0.4791070000000  0.4407560000000 1.0
C      1  0.6047640000000  0.4908730000000  0.5129140000000 1.0
C      1  0.5834070000000  0.5363930000000  0.4405580000000 1.0
C      1  0.5528700000000  0.4937060000000  0.5936500000000 1.0
C      1  0.5215570000000  0.5893490000000  0.4963630000000 1.0
C      1  0.4966310000000  0.5268690000000  0.5330710000000 1.0
C      1  0.4545320000000  0.4602110000000  0.5827080000000 1.0
C      1  0.4677850000000  0.4884140000000  0.5459380000000 1.0
C      1  0.4941760000000  0.5426920000000  0.4843270000000 1.0
C      1  0.5174260000000  0.4357430000000  0.5193310000000 1.0
C      1  0.4628360000000  0.3981910000000  0.5007380000000 1.0
C      1  0.5360920000000  0.5596550000000  0.4655910000000 1.0
C      1  0.4993110000000  0.5347220000000  0.4550090000000 1.0
C      1  0.5347350000000  0.4435970000000  0.4943040000000 1.0
C      1  0.4559580000000  0.5397520000000  0.5611190000000 1.0
C      1  0.5114630000000  0.4973000000000  0.5725070000000 1.0
C      1  0.4769740000000  0.4699450000000  0.4384030000000 1.0
C      1  0.4383130000000  0.4577720000000  0.4665940000000 1.0
C      1  0.5255390000000  0.5326690000000  0.5946620000000 1.0
C      1  0.4275060000000  0.5690480000000  0.5082370000000 1.0
C      1  0.4366960000000  0.4874230000000  0.4119680000000 1.0
C      1  0.4380710000000  0.5952560000000  0.5113090000000 1.0
C      1  0.5851790000000  0.5474130000000  0.5600170000000 1.0
C      1  0.4928990000000  0.5867850000000  0.4514420000000 1.0
C      1  0.4599160000000  0.5041640000000  0.6019710000000 1.0
C      1  0.5374690000000  0.4742870000000  0.4552730000000 1.0
C      1  0.4841480000000  0.4580690000000  0.5824450000000 1.0
C      1  0.5179720000000  0.4575020000000  0.4695690000000 1.0
C      1  0.5347130000000  0.5459670000000  0.5119750000000 1.0
C      1  0.4187260000000  0.4569810000000  0.5500850000000 1.0
C      1  0.4928770000000  0.4755950000000  0.5585420000000 1.0
C      1  0.5600460000000  0.5922550000000  0.4955210000000 1.0
C      1  0.5665040000000  0.4484010000000  0.4482190000000 1.0
C      1  0.5755610000000  0.4781490000000  0.5529260000000 1.0
C      1  0.5059720000000  0.5697360000000  0.5545200000000 1.0
C      1  0.4235120000000  0.5022890000000  0.5718440000000 1.0
C      1  0.5396500000000  0.4600470000000  0.4016180000000 1.0
C      1  0.4530950000000  0.5540560000000  0.4394010000000 1.0
C      1  0.5247830000000  0.5652000000000  0.4182600000000 1.0
C      1  0.4496390000000  0.5495870000000  0.5135800000000 1.0
C      1  0.5316380000000  0.4361930000000  0.4138290000000 1.0
C      1  0.4090670000000  0.4550750000000  0.4718860000000 1.0
C      1  0.4463160000000  0.4844880000000  0.4564910000000 1.0
C      1  0.4853480000000  0.6054600000000  0.5266210000000 1.0
C      1  0.5257400000000  0.5253100000000  0.3920780000000 1.0
C      1  0.5966940000000  0.4784410000000  0.4871490000000 1.0
C      1  0.5924890000000  0.5448160000000  0.5122390000000 1.0
C      1  0.4260220000000  0.5308940000000  0.5637170000000 1.0
C      1  0.5343840000000  0.4547020000000  0.5635330000000 1.0
C      1  0.4437840000000  0.4406610000000  0.4419630000000 1.0
C      1  0.5633690000000  0.5694680000000  0.4765420000000 1.0
C      1  0.5759420000000  0.5433200000000  0.4873450000000 1.0
C      1  0.4107450000000  0.4803650000000  0.5113530000000 1.0
C      1  0.5321300000000  0.3959820000000  0.5058900000000 1.0
C      1  0.5018840000000  0.3977340000000  0.4956520000000 1.0
C      1  0.4777750000000  0.5106100000000  0.3916520000000 1.0
C      1  0.5231460000000  0.4283010000000  0.5752740000000 1.0
C      1  0.5519610000000  0.4897890000000  0.4758620000000 1.0
C      1  0.5405560000000  0.4871600000000  0.4089790000000 1.0
C      1  0.5989280000000  0.4712750000000  0.5348560000000 1.0
C      1  0.4277260000000  0.4979790000000  0.4375620000000 1.0
C      1  0.4814270000000  0.4420210000000  0.4891550000000 1.0
C      1  0.5333880000000  0.4131160000000  0.5307250000000 1.0
C      1  0.5502950000000  0.4784010000000  0.5047080000000 1.0
C      1  0.5051270000000  0.5155810000000  0.6054030000000 1.0
C      1  0.4607110000000  0.4813160000000  0.5127910000000 1.0
END
