TITL C-951339-9237-414 1.88647299834539e-07 125000 -302.419230281653 0 0 50 (C1) n - 1
REM
REM in /home/bkarasulu/work/CARBON/AIRSS/Generating-Clusters/EDIP-Nigel-Params/with-SteepDescent/Only-C1/SD-CG/HFTN-CG
REM
REM
REM
REM
REM
REM ./C.cell (11c1c37f851c82e70ff6c80c92926a4b)
REM
REM compiler GCC version 9.2.1 20190827 (Red Hat 9.2.1-1)
REM options -cpp -mtune=generic -march=x86-64 -g -O0 -fpre-include=/usr/include/finclude/math-vector-fortran.h
REM seed -364662108 180879343 -573205817 -688565816 642023634 758587560 1302245532 1223306021 -1885523246 1503912121 1314962159 -1931088348 -607315101 1338980791 -949488409 -443761650 988408188 1671888272 1469673481 -240222420 -1536965752 339768266 1177905937 734157000 -1364614755 -439111978 -68811846 -1930599923 -1325761575 2025095760 -770924544 1571160540 1200462430
REM
CELL 1.54180   50.00000   50.00000   50.00000   90.00000   90.00000   90.00000
LATT -1
SFAC C  
C      1  0.5359770000000  0.4748870000000  0.4414470000000 1.0
C      1  0.5322780000000  0.4597010000000  0.5273420000000 1.0
C      1  0.5077340000000  0.5410830000000  0.4837180000000 1.0
C      1  0.5498090000000  0.4895700000000  0.4607470000000 1.0
C      1  0.5581120000000  0.4766800000000  0.4870690000000 1.0
C      1  0.4811710000000  0.4642710000000  0.5176220000000 1.0
C      1  0.4763790000000  0.5617860000000  0.5136230000000 1.0
C      1  0.4673420000000  0.5048930000000  0.4357030000000 1.0
C      1  0.4893130000000  0.4906920000000  0.5074050000000 1.0
C      1  0.5293020000000  0.5211530000000  0.4898270000000 1.0
C      1  0.4595730000000  0.5410920000000  0.4639290000000 1.0
C      1  0.4896880000000  0.4640590000000  0.4516130000000 1.0
C      1  0.5165260000000  0.4958590000000  0.5012260000000 1.0
C      1  0.5340270000000  0.4893890000000  0.5234360000000 1.0
C      1  0.5092480000000  0.4828560000000  0.4439270000000 1.0
C      1  0.5253500000000  0.5058620000000  0.5479640000000 1.0
C      1  0.4722450000000  0.5039380000000  0.4896580000000 1.0
C      1  0.4319790000000  0.4661880000000  0.4878580000000 1.0
C      1  0.5829090000000  0.4930290000000  0.5313330000000 1.0
C      1  0.4638420000000  0.4778320000000  0.4485330000000 1.0
C      1  0.5187830000000  0.4830200000000  0.5677990000000 1.0
C      1  0.4998550000000  0.4424830000000  0.4662580000000 1.0
C      1  0.5455010000000  0.5408480000000  0.5325320000000 1.0
C      1  0.4838950000000  0.5244780000000  0.4719310000000 1.0
C      1  0.4966640000000  0.4552980000000  0.5417850000000 1.0
C      1  0.4503730000000  0.5268290000000  0.4412790000000 1.0
C      1  0.5221490000000  0.5293410000000  0.4404850000000 1.0
C      1  0.4250630000000  0.4902970000000  0.5027910000000 1.0
C      1  0.5205570000000  0.5520110000000  0.4587090000000 1.0
C      1  0.4522050000000  0.5032570000000  0.5422740000000 1.0
C      1  0.4459310000000  0.5126830000000  0.4997410000000 1.0
C      1  0.5758240000000  0.5080890000000  0.5526000000000 1.0
C      1  0.5026290000000  0.5539880000000  0.5102890000000 1.0
C      1  0.4520430000000  0.4592440000000  0.5190900000000 1.0
C      1  0.4497350000000  0.5528370000000  0.5144010000000 1.0
C      1  0.4408070000000  0.4690720000000  0.4616650000000 1.0
C      1  0.5617190000000  0.4972930000000  0.5117840000000 1.0
C      1  0.4401110000000  0.5406290000000  0.4868040000000 1.0
C      1  0.4466480000000  0.5308510000000  0.5343210000000 1.0
C      1  0.5315300000000  0.4584080000000  0.5576220000000 1.0
C      1  0.4978110000000  0.5105450000000  0.4422880000000 1.0
C      1  0.5162600000000  0.5404640000000  0.5320410000000 1.0
C      1  0.5515470000000  0.5216610000000  0.5554360000000 1.0
C      1  0.5230830000000  0.4409020000000  0.4801070000000 1.0
C      1  0.4358160000000  0.4818770000000  0.5294550000000 1.0
C      1  0.4714180000000  0.4950490000000  0.5611250000000 1.0
C      1  0.5541390000000  0.5276640000000  0.5070680000000 1.0
C      1  0.4905710000000  0.4747090000000  0.5649270000000 1.0
C      1  0.5422240000000  0.5191250000000  0.4621260000000 1.0
C      1  0.5423060000000  0.4522300000000  0.4972870000000 1.0
END
