TITL C-950522-5749-5 -1.88794340626642e-06 125000 -1255.57530173037 0 0 200 (C1) n - 1
REM
REM in /home/bkarasulu/work/CARBON/AIRSS/Generating-Clusters/EDIP-Nigel-Params/with-SteepDescent/Only-C1/SD-CG/HFTN-CG
REM
REM
REM
REM
REM
REM ./C.cell (11c1c37f851c82e70ff6c80c92926a4b)
REM
REM compiler GCC version 9.2.1 20190827 (Red Hat 9.2.1-1)
REM options -cpp -mtune=generic -march=x86-64 -g -O0 -fpre-include=/usr/include/finclude/math-vector-fortran.h
REM seed 329665099 519007061 -2079590340 1366407281 1410034298 -1516679348 -1446721511 1915072686 1201213932 1088117407 -1288674834 1166719227 936526345 -1530188174 1465443568 1958657113 -1535901454 49409198 1745261976 728442723 -115431224 -1326623206 -369767571 -735457304 782796685 136803401 1716691038 -1724813741 1617489605 -1372241929 943506792 1831843272 -203016952
REM
CELL 1.54180   50.00000   50.00000   50.00000   90.00000   90.00000   90.00000
LATT -1
SFAC C  
C      1  0.4671930000000  0.5517760000000  0.6059260000000 1.0
C      1  0.5090050000000  0.5158270000000  0.4309780000000 1.0
C      1  0.5962610000000  0.5009270000000  0.5475440000000 1.0
C      1  0.4706460000000  0.4852250000000  0.6086160000000 1.0
C      1  0.4334650000000  0.4158810000000  0.4856710000000 1.0
C      1  0.4246740000000  0.5042830000000  0.4009420000000 1.0
C      1  0.4990260000000  0.5178260000000  0.4027100000000 1.0
C      1  0.4478980000000  0.5577190000000  0.5153940000000 1.0
C      1  0.3933570000000  0.4379690000000  0.4995780000000 1.0
C      1  0.4583920000000  0.5584520000000  0.4435830000000 1.0
C      1  0.5386450000000  0.5939990000000  0.5438960000000 1.0
C      1  0.5564490000000  0.4589750000000  0.4979380000000 1.0
C      1  0.5144990000000  0.4700790000000  0.6185850000000 1.0
C      1  0.4836190000000  0.5650080000000  0.5860050000000 1.0
C      1  0.4136460000000  0.4165710000000  0.5091390000000 1.0
C      1  0.5171780000000  0.5057570000000  0.5599690000000 1.0
C      1  0.5219680000000  0.4581330000000  0.5604850000000 1.0
C      1  0.5002250000000  0.6100360000000  0.4771110000000 1.0
C      1  0.5239030000000  0.6107320000000  0.4600210000000 1.0
C      1  0.5925590000000  0.4935340000000  0.4757390000000 1.0
C      1  0.5650440000000  0.5541410000000  0.5893240000000 1.0
C      1  0.4093630000000  0.5257990000000  0.4592010000000 1.0
C      1  0.4120590000000  0.5878000000000  0.5004500000000 1.0
C      1  0.5018590000000  0.5447640000000  0.4637370000000 1.0
C      1  0.5019710000000  0.4822060000000  0.5680580000000 1.0
C      1  0.5932160000000  0.4721380000000  0.5384120000000 1.0
C      1  0.5139090000000  0.5699070000000  0.5860100000000 1.0
C      1  0.4536550000000  0.6103610000000  0.5081240000000 1.0
C      1  0.4731540000000  0.4909020000000  0.3905280000000 1.0
C      1  0.5202150000000  0.4824640000000  0.4637520000000 1.0
C      1  0.4346720000000  0.5351420000000  0.5696730000000 1.0
C      1  0.3925790000000  0.5174060000000  0.5083770000000 1.0
C      1  0.5049200000000  0.5719370000000  0.5268430000000 1.0
C      1  0.5791430000000  0.5375130000000  0.6077210000000 1.0
C      1  0.4817140000000  0.5865400000000  0.5400420000000 1.0
C      1  0.5829440000000  0.4424040000000  0.5007320000000 1.0
C      1  0.5020500000000  0.5214850000000  0.6151200000000 1.0
C      1  0.3984740000000  0.4834090000000  0.4435100000000 1.0
C      1  0.5164480000000  0.6024130000000  0.4331160000000 1.0
C      1  0.4567470000000  0.5163640000000  0.5597540000000 1.0
C      1  0.4224250000000  0.5794490000000  0.4742740000000 1.0
C      1  0.5843440000000  0.5399930000000  0.4400820000000 1.0
C      1  0.5082670000000  0.4878120000000  0.4360980000000 1.0
C      1  0.5557230000000  0.4598770000000  0.4090240000000 1.0
C      1  0.4636680000000  0.4746100000000  0.4153020000000 1.0
C      1  0.5399000000000  0.4764830000000  0.6095250000000 1.0
C      1  0.4215350000000  0.5199830000000  0.5174840000000 1.0
C      1  0.4418040000000  0.5236740000000  0.6003720000000 1.0
C      1  0.5819190000000  0.5214940000000  0.4846110000000 1.0
C      1  0.4863430000000  0.6005160000000  0.4355030000000 1.0
C      1  0.4731850000000  0.5361540000000  0.4012730000000 1.0
C      1  0.5668810000000  0.5504190000000  0.5362210000000 1.0
C      1  0.5289670000000  0.4365390000000  0.5148350000000 1.0
C      1  0.4713910000000  0.4058390000000  0.5578310000000 1.0
C      1  0.5712130000000  0.4070130000000  0.4713480000000 1.0
C      1  0.4196940000000  0.4670720000000  0.4313380000000 1.0
C      1  0.4322150000000  0.4412070000000  0.4389530000000 1.0
C      1  0.4094390000000  0.5248660000000  0.5597110000000 1.0
C      1  0.4431770000000  0.4479310000000  0.5055520000000 1.0
C      1  0.5007230000000  0.4427700000000  0.4156620000000 1.0
C      1  0.5930340000000  0.5158730000000  0.4275070000000 1.0
C      1  0.5885240000000  0.5419740000000  0.5151060000000 1.0
C      1  0.5187080000000  0.4331120000000  0.5812470000000 1.0
C      1  0.5670090000000  0.4751190000000  0.4726560000000 1.0
C      1  0.4576520000000  0.5314700000000  0.3768780000000 1.0
C      1  0.5231260000000  0.5347660000000  0.3933850000000 1.0
C      1  0.5910090000000  0.5425400000000  0.4668260000000 1.0
C      1  0.5773180000000  0.5677370000000  0.4743670000000 1.0
C      1  0.4512220000000  0.3990690000000  0.5380970000000 1.0
C      1  0.4533080000000  0.5824980000000  0.4708740000000 1.0
C      1  0.5742760000000  0.5113530000000  0.5969380000000 1.0
C      1  0.5530150000000  0.5208190000000  0.4744950000000 1.0
C      1  0.4920390000000  0.4466980000000  0.4454040000000 1.0
C      1  0.5415160000000  0.4016850000000  0.5484930000000 1.0
C      1  0.4669610000000  0.5774650000000  0.5650800000000 1.0
C      1  0.4476560000000  0.5056990000000  0.3814910000000 1.0
C      1  0.4746760000000  0.4621320000000  0.3799950000000 1.0
C      1  0.5299440000000  0.6062100000000  0.5177510000000 1.0
C      1  0.4417100000000  0.4445180000000  0.5750390000000 1.0
C      1  0.6084900000000  0.5263250000000  0.5341710000000 1.0
C      1  0.5751090000000  0.5911400000000  0.5142190000000 1.0
C      1  0.5458690000000  0.4018080000000  0.4555160000000 1.0
C      1  0.4748670000000  0.6059020000000  0.4624980000000 1.0
C      1  0.4021360000000  0.5115150000000  0.4314140000000 1.0
C      1  0.4840300000000  0.4126520000000  0.4812770000000 1.0
C      1  0.4391810000000  0.5661810000000  0.5611520000000 1.0
C      1  0.5507070000000  0.6032870000000  0.4701180000000 1.0
C      1  0.4848720000000  0.5634770000000  0.4020300000000 1.0
C      1  0.5078640000000  0.4376660000000  0.4894430000000 1.0
C      1  0.5288430000000  0.5266790000000  0.6092360000000 1.0
C      1  0.4584380000000  0.3987220000000  0.4904240000000 1.0
C      1  0.5384450000000  0.4323430000000  0.6025430000000 1.0
C      1  0.4252270000000  0.4677730000000  0.5207330000000 1.0
C      1  0.6075780000000  0.5442510000000  0.5572330000000 1.0
C      1  0.5043640000000  0.5010030000000  0.4886430000000 1.0
C      1  0.4288220000000  0.6018190000000  0.5203030000000 1.0
C      1  0.5214260000000  0.5533570000000  0.5459620000000 1.0
C      1  0.5198490000000  0.4062880000000  0.5674570000000 1.0
C      1  0.5241660000000  0.5893060000000  0.5680600000000 1.0
C      1  0.4293230000000  0.4845690000000  0.4797410000000 1.0
C      1  0.6110170000000  0.4817540000000  0.4944090000000 1.0
C      1  0.4783330000000  0.4381140000000  0.3967240000000 1.0
C      1  0.5374080000000  0.5392990000000  0.4945860000000 1.0
C      1  0.4644900000000  0.5018720000000  0.5353110000000 1.0
C      1  0.4786050000000  0.4789920000000  0.5491770000000 1.0
C      1  0.5468280000000  0.4934270000000  0.4636920000000 1.0
C      1  0.4774440000000  0.5743760000000  0.4274030000000 1.0
C      1  0.5647350000000  0.5808140000000  0.5393540000000 1.0
C      1  0.5439000000000  0.4768880000000  0.5189850000000 1.0
C      1  0.4705650000000  0.4469970000000  0.5153150000000 1.0
C      1  0.5277790000000  0.5553200000000  0.4508200000000 1.0
C      1  0.5287520000000  0.5744900000000  0.4243620000000 1.0
C      1  0.6026340000000  0.4623140000000  0.5124260000000 1.0
C      1  0.4902330000000  0.4641760000000  0.6063350000000 1.0
C      1  0.4981500000000  0.4036180000000  0.4359500000000 1.0
C      1  0.4859320000000  0.5221520000000  0.5256730000000 1.0
C      1  0.4977400000000  0.3952230000000  0.5524930000000 1.0
C      1  0.5650100000000  0.3989420000000  0.4993520000000 1.0
C      1  0.4727640000000  0.5438140000000  0.4645650000000 1.0
C      1  0.4807010000000  0.4758420000000  0.4416390000000 1.0
C      1  0.4389330000000  0.4954490000000  0.5157550000000 1.0
C      1  0.4689840000000  0.4300470000000  0.4607650000000 1.0
C      1  0.5094900000000  0.4471390000000  0.5368530000000 1.0
C      1  0.5750700000000  0.4538150000000  0.4518670000000 1.0
C      1  0.5762510000000  0.4186880000000  0.5176470000000 1.0
C      1  0.5723050000000  0.4545270000000  0.5528170000000 1.0
C      1  0.5126330000000  0.4695960000000  0.4104730000000 1.0
C      1  0.5794280000000  0.5870900000000  0.4509320000000 1.0
C      1  0.5363780000000  0.5279420000000  0.4394370000000 1.0
C      1  0.5754340000000  0.5067780000000  0.4064940000000 1.0
C      1  0.5911950000000  0.5705040000000  0.5012130000000 1.0
C      1  0.5000920000000  0.3944990000000  0.4640140000000 1.0
C      1  0.4362840000000  0.5108770000000  0.4643070000000 1.0
C      1  0.5558190000000  0.4538840000000  0.6019960000000 1.0
C      1  0.5139830000000  0.5626900000000  0.3995130000000 1.0
C      1  0.5784990000000  0.5413290000000  0.5632450000000 1.0
C      1  0.4783060000000  0.6096700000000  0.5225500000000 1.0
C      1  0.4454860000000  0.4575890000000  0.4766910000000 1.0
C      1  0.5135090000000  0.5100750000000  0.5312580000000 1.0
C      1  0.4653640000000  0.5750250000000  0.4998500000000 1.0
C      1  0.3863310000000  0.4936390000000  0.5249270000000 1.0
C      1  0.5348820000000  0.4697240000000  0.3935570000000 1.0
C      1  0.4035600000000  0.4542170000000  0.5497000000000 1.0
C      1  0.5565720000000  0.5643810000000  0.4121780000000 1.0
C      1  0.5802370000000  0.5668800000000  0.4290470000000 1.0
C      1  0.5029340000000  0.6109300000000  0.5061030000000 1.0
C      1  0.4683370000000  0.4099910000000  0.4372210000000 1.0
C      1  0.5360550000000  0.3950730000000  0.5019300000000 1.0
C      1  0.3992610000000  0.4828540000000  0.4750570000000 1.0
C      1  0.4373130000000  0.5371890000000  0.5003740000000 1.0
C      1  0.4783470000000  0.5104940000000  0.5801600000000 1.0
C      1  0.5042750000000  0.5287430000000  0.5728670000000 1.0
C      1  0.4568460000000  0.5239930000000  0.4813540000000 1.0
C      1  0.4800840000000  0.4508580000000  0.5420970000000 1.0
C      1  0.5353360000000  0.5507240000000  0.5941030000000 1.0
C      1  0.4286340000000  0.5720800000000  0.5318660000000 1.0
C      1  0.5863710000000  0.4328960000000  0.4710260000000 1.0
C      1  0.4721890000000  0.4729730000000  0.4756630000000 1.0
C      1  0.4891500000000  0.5435780000000  0.5480110000000 1.0
C      1  0.3907640000000  0.5115370000000  0.4791920000000 1.0
C      1  0.5179940000000  0.4496470000000  0.4631500000000 1.0
C      1  0.4382440000000  0.4876590000000  0.4210980000000 1.0
C      1  0.4440190000000  0.4919670000000  0.6002050000000 1.0
C      1  0.4078500000000  0.4764830000000  0.5662610000000 1.0
C      1  0.5759810000000  0.5117140000000  0.5667530000000 1.0
C      1  0.4752080000000  0.5281950000000  0.6189030000000 1.0
C      1  0.3976220000000  0.4683270000000  0.5067660000000 1.0
C      1  0.4188890000000  0.4261460000000  0.4607490000000 1.0
C      1  0.5260350000000  0.3873660000000  0.5279380000000 1.0
C      1  0.4738230000000  0.5000400000000  0.4894190000000 1.0
C      1  0.5945070000000  0.4691680000000  0.4339730000000 1.0
C      1  0.4900950000000  0.4597820000000  0.4980450000000 1.0
C      1  0.4294680000000  0.4177630000000  0.5346080000000 1.0
C      1  0.4542250000000  0.5344890000000  0.4253690000000 1.0
C      1  0.5408070000000  0.5376180000000  0.5270310000000 1.0
C      1  0.4484180000000  0.5089710000000  0.4384990000000 1.0
C      1  0.5520290000000  0.6017370000000  0.4994700000000 1.0
C      1  0.4699780000000  0.4344870000000  0.5676370000000 1.0
C      1  0.5089830000000  0.5333350000000  0.4893440000000 1.0
C      1  0.5747230000000  0.4542860000000  0.5814530000000 1.0
C      1  0.3948040000000  0.4367910000000  0.4711870000000 1.0
C      1  0.6027060000000  0.4944560000000  0.4465190000000 1.0
C      1  0.5514430000000  0.4455810000000  0.4344440000000 1.0
C      1  0.5471410000000  0.4682760000000  0.5472620000000 1.0
C      1  0.5270600000000  0.3894260000000  0.4742580000000 1.0
C      1  0.5317650000000  0.4225690000000  0.4391720000000 1.0
C      1  0.4335940000000  0.4732150000000  0.5795470000000 1.0
C      1  0.4119750000000  0.5553020000000  0.4629490000000 1.0
C      1  0.4903050000000  0.4395820000000  0.5900330000000 1.0
C      1  0.5789640000000  0.4774460000000  0.4099850000000 1.0
C      1  0.5476610000000  0.5041330000000  0.6070650000000 1.0
C      1  0.4522300000000  0.4278980000000  0.4203170000000 1.0
C      1  0.4211510000000  0.4335520000000  0.5570140000000 1.0
C      1  0.5541400000000  0.4264750000000  0.5356000000000 1.0
C      1  0.4005430000000  0.4995240000000  0.5509130000000 1.0
C      1  0.5453880000000  0.5643440000000  0.4770220000000 1.0
C      1  0.4594480000000  0.3857490000000  0.5150610000000 1.0
C      1  0.5489640000000  0.5335980000000  0.4110000000000 1.0
C      1  0.4909210000000  0.5551160000000  0.5054610000000 1.0
C      1  0.5150980000000  0.4850870000000  0.5147250000000 1.0
END
