TITL C-950531-5884-103 -2.57477604306864e-06 125000 -912.164022850052 0 0 148 (C1) n - 1
REM
REM in /home/bkarasulu/work/CARBON/AIRSS/Generating-Clusters/EDIP-Nigel-Params/with-SteepDescent/Only-C1/SD-CG/HFTN-CG
REM
REM
REM
REM
REM
REM ./C.cell (11c1c37f851c82e70ff6c80c92926a4b)
REM
REM compiler GCC version 9.2.1 20190827 (Red Hat 9.2.1-1)
REM options -cpp -mtune=generic -march=x86-64 -g -O0 -fpre-include=/usr/include/finclude/math-vector-fortran.h
REM seed -377835176 1005721036 -1368114471 -1310397392 -1033383777 1739401581 -1891341676 1965210361 -327906138 -417294302 -1060653035 1902107815 1579331333 -2055426925 545981058 -614473322 -1922929920 -1794478495 -683830645 -1608673660 703792196 -119120046 113512890 -376078127 -76155450 494842798 -736459230 991890928 39541559 1441394623 -2089453788 1948128269 -1116470151
REM
CELL 1.54180   50.00000   50.00000   50.00000   90.00000   90.00000   90.00000
LATT -1
SFAC C  
C      1  0.4435050000000  0.4617660000000  0.4174070000000 1.0
C      1  0.5429450000000  0.5040820000000  0.4306430000000 1.0
C      1  0.4954000000000  0.4981400000000  0.6064930000000 1.0
C      1  0.4718180000000  0.4028130000000  0.5334680000000 1.0
C      1  0.5794730000000  0.5342120000000  0.5743050000000 1.0
C      1  0.3992280000000  0.5331030000000  0.4488590000000 1.0
C      1  0.5002510000000  0.5996300000000  0.4882300000000 1.0
C      1  0.4742030000000  0.4837840000000  0.4605570000000 1.0
C      1  0.4079740000000  0.5124770000000  0.5216150000000 1.0
C      1  0.5280110000000  0.5894310000000  0.4863730000000 1.0
C      1  0.5206210000000  0.4664140000000  0.5260660000000 1.0
C      1  0.4599160000000  0.4204120000000  0.4944740000000 1.0
C      1  0.5050230000000  0.5620590000000  0.4195450000000 1.0
C      1  0.5095540000000  0.4342010000000  0.4167790000000 1.0
C      1  0.4674610000000  0.4557980000000  0.5284940000000 1.0
C      1  0.5048960000000  0.5461030000000  0.5993310000000 1.0
C      1  0.5447480000000  0.4340650000000  0.4303760000000 1.0
C      1  0.4709900000000  0.4962900000000  0.4006090000000 1.0
C      1  0.4264500000000  0.4417760000000  0.4673610000000 1.0
C      1  0.5715680000000  0.4736500000000  0.4515970000000 1.0
C      1  0.4998240000000  0.3993920000000  0.4496560000000 1.0
C      1  0.4944880000000  0.4079440000000  0.5515340000000 1.0
C      1  0.5199240000000  0.5078740000000  0.4928030000000 1.0
C      1  0.5195240000000  0.5169430000000  0.5394340000000 1.0
C      1  0.5219640000000  0.4749410000000  0.4646240000000 1.0
C      1  0.4391340000000  0.5115960000000  0.4296700000000 1.0
C      1  0.4127660000000  0.4512340000000  0.5141170000000 1.0
C      1  0.4490160000000  0.4598420000000  0.5037200000000 1.0
C      1  0.5133480000000  0.5426600000000  0.5253420000000 1.0
C      1  0.5930110000000  0.5232150000000  0.4952950000000 1.0
C      1  0.5179510000000  0.5314040000000  0.4624830000000 1.0
C      1  0.5193680000000  0.5619430000000  0.5803210000000 1.0
C      1  0.5409960000000  0.5703860000000  0.5632970000000 1.0
C      1  0.6106400000000  0.5011920000000  0.5049390000000 1.0
C      1  0.5273420000000  0.4051560000000  0.5120100000000 1.0
C      1  0.5725520000000  0.5266070000000  0.4228420000000 1.0
C      1  0.4773880000000  0.5244640000000  0.5659780000000 1.0
C      1  0.4770970000000  0.3993940000000  0.5046210000000 1.0
C      1  0.4085350000000  0.5079480000000  0.4903810000000 1.0
C      1  0.5143600000000  0.5130870000000  0.4381540000000 1.0
C      1  0.5430870000000  0.5325340000000  0.4883540000000 1.0
C      1  0.5954200000000  0.5509360000000  0.5363820000000 1.0
C      1  0.5793200000000  0.4536250000000  0.4747730000000 1.0
C      1  0.5212000000000  0.4477310000000  0.4766550000000 1.0
C      1  0.5309860000000  0.5779570000000  0.4598600000000 1.0
C      1  0.5268220000000  0.4638480000000  0.5845840000000 1.0
C      1  0.4534650000000  0.4888920000000  0.5022190000000 1.0
C      1  0.4694450000000  0.4043520000000  0.4547170000000 1.0
C      1  0.4857160000000  0.4213320000000  0.5747250000000 1.0
C      1  0.5467320000000  0.5177550000000  0.5491040000000 1.0
C      1  0.5462460000000  0.5800100000000  0.5089470000000 1.0
C      1  0.5042150000000  0.5897150000000  0.5377900000000 1.0
C      1  0.3991250000000  0.4825430000000  0.4760130000000 1.0
C      1  0.5197630000000  0.4798540000000  0.3974240000000 1.0
C      1  0.4951220000000  0.4507250000000  0.5180820000000 1.0
C      1  0.5454890000000  0.4185590000000  0.4553660000000 1.0
C      1  0.5605620000000  0.4337780000000  0.5255540000000 1.0
C      1  0.5211310000000  0.4959180000000  0.5198260000000 1.0
C      1  0.5830120000000  0.4754160000000  0.5306920000000 1.0
C      1  0.5465630000000  0.4818170000000  0.5956200000000 1.0
C      1  0.5919690000000  0.4681990000000  0.5005420000000 1.0
C      1  0.4723260000000  0.4341870000000  0.4468020000000 1.0
C      1  0.5753700000000  0.5555640000000  0.4688580000000 1.0
C      1  0.4626160000000  0.4544410000000  0.4675310000000 1.0
C      1  0.4590200000000  0.5919400000000  0.5164210000000 1.0
C      1  0.5019160000000  0.5101440000000  0.5605070000000 1.0
C      1  0.5345750000000  0.5873540000000  0.5385560000000 1.0
C      1  0.4335290000000  0.4769140000000  0.5792210000000 1.0
C      1  0.4253580000000  0.5533330000000  0.4846140000000 1.0
C      1  0.5614880000000  0.5343910000000  0.5299180000000 1.0
C      1  0.4078380000000  0.4979360000000  0.5468630000000 1.0
C      1  0.4096190000000  0.5104650000000  0.4362940000000 1.0
C      1  0.5984240000000  0.5268470000000  0.5519850000000 1.0
C      1  0.5436560000000  0.4816420000000  0.4118750000000 1.0
C      1  0.5314320000000  0.5547080000000  0.4093020000000 1.0
C      1  0.4613980000000  0.4642730000000  0.5780740000000 1.0
C      1  0.4794240000000  0.4886020000000  0.4897580000000 1.0
C      1  0.5402350000000  0.4576810000000  0.5045740000000 1.0
C      1  0.4238610000000  0.4436320000000  0.5402750000000 1.0
C      1  0.4030620000000  0.5349730000000  0.4764770000000 1.0
C      1  0.4720150000000  0.5243230000000  0.4097780000000 1.0
C      1  0.4870190000000  0.4484030000000  0.4049830000000 1.0
C      1  0.4929220000000  0.4767840000000  0.4046030000000 1.0
C      1  0.5048620000000  0.4068670000000  0.4925840000000 1.0
C      1  0.4532690000000  0.5758520000000  0.4481660000000 1.0
C      1  0.5574890000000  0.5139060000000  0.5766640000000 1.0
C      1  0.5665810000000  0.5592590000000  0.5688510000000 1.0
C      1  0.4550760000000  0.5817750000000  0.5672970000000 1.0
C      1  0.5576290000000  0.4603420000000  0.4275390000000 1.0
C      1  0.4154530000000  0.4632630000000  0.5603420000000 1.0
C      1  0.5567210000000  0.4843470000000  0.4961900000000 1.0
C      1  0.4962390000000  0.4827620000000  0.5591010000000 1.0
C      1  0.4009890000000  0.4867710000000  0.4484070000000 1.0
C      1  0.5896900000000  0.5293080000000  0.4665560000000 1.0
C      1  0.5544030000000  0.4163530000000  0.5037970000000 1.0
C      1  0.5776370000000  0.5690140000000  0.4948680000000 1.0
C      1  0.4329400000000  0.5284880000000  0.5265010000000 1.0
C      1  0.4749060000000  0.5344170000000  0.5050020000000 1.0
C      1  0.5694880000000  0.4858030000000  0.5783150000000 1.0
C      1  0.5013900000000  0.4863980000000  0.4471310000000 1.0
C      1  0.5649690000000  0.4705370000000  0.5538240000000 1.0
C      1  0.4697110000000  0.5347040000000  0.4524150000000 1.0
C      1  0.5513630000000  0.5584080000000  0.4535830000000 1.0
C      1  0.4948450000000  0.4376180000000  0.4908180000000 1.0
C      1  0.4292060000000  0.5532050000000  0.5418860000000 1.0
C      1  0.5605340000000  0.4295600000000  0.4776510000000 1.0
C      1  0.4624660000000  0.4414090000000  0.4194610000000 1.0
C      1  0.4486630000000  0.5579550000000  0.5814120000000 1.0
C      1  0.5036870000000  0.5726600000000  0.4486550000000 1.0
C      1  0.5157800000000  0.5199680000000  0.6080220000000 1.0
C      1  0.5964150000000  0.5505480000000  0.5080120000000 1.0
C      1  0.5488300000000  0.4887090000000  0.4660060000000 1.0
C      1  0.4880430000000  0.6027620000000  0.5155940000000 1.0
C      1  0.4855040000000  0.5588700000000  0.4950090000000 1.0
C      1  0.5813820000000  0.5099680000000  0.4459390000000 1.0
C      1  0.5391960000000  0.5502910000000  0.5132610000000 1.0
C      1  0.4830920000000  0.5929560000000  0.4617050000000 1.0
C      1  0.5654760000000  0.5153340000000  0.5041230000000 1.0
C      1  0.4793470000000  0.5241820000000  0.5964610000000 1.0
C      1  0.4092870000000  0.4563390000000  0.4854450000000 1.0
C      1  0.4499980000000  0.5747500000000  0.5398610000000 1.0
C      1  0.4908710000000  0.5137790000000  0.4922020000000 1.0
C      1  0.4312330000000  0.5755850000000  0.4668380000000 1.0
C      1  0.6024880000000  0.4970070000000  0.5327200000000 1.0
C      1  0.4918410000000  0.5623170000000  0.5332670000000 1.0
C      1  0.4616000000000  0.4353060000000  0.5712750000000 1.0
C      1  0.4684060000000  0.4786230000000  0.5509380000000 1.0
C      1  0.4399450000000  0.4172040000000  0.4740190000000 1.0
C      1  0.4976120000000  0.4739350000000  0.5874640000000 1.0
C      1  0.4454410000000  0.5345350000000  0.4999020000000 1.0
C      1  0.4818500000000  0.5545950000000  0.5623680000000 1.0
C      1  0.5523610000000  0.5471540000000  0.4273520000000 1.0
C      1  0.4532690000000  0.4325500000000  0.5429130000000 1.0
C      1  0.4552010000000  0.5502860000000  0.4332440000000 1.0
C      1  0.5371580000000  0.4580900000000  0.5556050000000 1.0
C      1  0.5258290000000  0.3975050000000  0.4627890000000 1.0
C      1  0.4548410000000  0.5085540000000  0.4567360000000 1.0
C      1  0.5428360000000  0.4295750000000  0.5489300000000 1.0
C      1  0.5036670000000  0.4308530000000  0.4459570000000 1.0
C      1  0.4554260000000  0.5078610000000  0.5503130000000 1.0
C      1  0.5013080000000  0.5306200000000  0.4152860000000 1.0
C      1  0.4618070000000  0.5777700000000  0.4900690000000 1.0
C      1  0.4286810000000  0.5407940000000  0.5690440000000 1.0
C      1  0.4936560000000  0.5490820000000  0.4652300000000 1.0
C      1  0.5198820000000  0.4152680000000  0.5381760000000 1.0
C      1  0.4294570000000  0.5066210000000  0.5665790000000 1.0
C      1  0.4395700000000  0.5086540000000  0.4852150000000 1.0
C      1  0.4454580000000  0.4887570000000  0.4108110000000 1.0
END
