TITL C-951347-9520-266 7.16924320859501e-07 125000 -249.637649571546 0 0 41 (C1) n - 1
REM
REM in /home/bkarasulu/work/CARBON/AIRSS/Generating-Clusters/EDIP-Nigel-Params/with-SteepDescent/Only-C1/SD-CG/HFTN-CG
REM
REM
REM
REM
REM
REM ./C.cell (11c1c37f851c82e70ff6c80c92926a4b)
REM
REM compiler GCC version 9.2.1 20190827 (Red Hat 9.2.1-1)
REM options -cpp -mtune=generic -march=x86-64 -g -O0 -fpre-include=/usr/include/finclude/math-vector-fortran.h
REM seed 748467107 -1774826404 1616670420 1179659193 -1248188917 -1072580203 625620377 -936723615 302825484 -1103825899 -1657313706 -1562639782 821251323 1926760989 -593629351 -206906173 253938423 -243081596 -1944826029 319357085 -1246173519 -1708746678 1036183192 -1344962733 -1797401300 -1182509382 -238601210 1289265619 -2138619292 -783575937 1613613345 531601333 -2089263748
REM
CELL 1.54180   50.00000   50.00000   50.00000   90.00000   90.00000   90.00000
LATT -1
SFAC C  
C      1  0.4853530000000  0.4414630000000  0.4857630000000 1.0
C      1  0.4680870000000  0.5264590000000  0.4898400000000 1.0
C      1  0.5235450000000  0.4739390000000  0.4795660000000 1.0
C      1  0.4708950000000  0.4983820000000  0.5574920000000 1.0
C      1  0.5263970000000  0.5374870000000  0.5175050000000 1.0
C      1  0.4860530000000  0.5769670000000  0.4925030000000 1.0
C      1  0.5293430000000  0.4503710000000  0.5224540000000 1.0
C      1  0.5024190000000  0.5178470000000  0.4484410000000 1.0
C      1  0.5694300000000  0.5194240000000  0.5049530000000 1.0
C      1  0.5209290000000  0.4642990000000  0.4422710000000 1.0
C      1  0.5256000000000  0.5237040000000  0.4891550000000 1.0
C      1  0.4847160000000  0.5112670000000  0.5125640000000 1.0
C      1  0.4778160000000  0.5527510000000  0.5352700000000 1.0
C      1  0.4890390000000  0.4948960000000  0.4613660000000 1.0
C      1  0.4635060000000  0.4999240000000  0.4755720000000 1.0
C      1  0.5121700000000  0.4590860000000  0.5430970000000 1.0
C      1  0.5108660000000  0.5387360000000  0.4671370000000 1.0
C      1  0.4457420000000  0.5405830000000  0.5014020000000 1.0
C      1  0.5282770000000  0.4479660000000  0.4947270000000 1.0
C      1  0.5344000000000  0.4944160000000  0.5245920000000 1.0
C      1  0.4928940000000  0.5591130000000  0.4737110000000 1.0
C      1  0.4994530000000  0.5310490000000  0.5319790000000 1.0
C      1  0.4987970000000  0.5095320000000  0.5550690000000 1.0
C      1  0.5199000000000  0.4878750000000  0.5498400000000 1.0
C      1  0.4933560000000  0.4695960000000  0.4483950000000 1.0
C      1  0.4695050000000  0.4705140000000  0.5560720000000 1.0
C      1  0.5536150000000  0.5158650000000  0.4815000000000 1.0
C      1  0.5250840000000  0.5092370000000  0.4341520000000 1.0
C      1  0.5501580000000  0.5201730000000  0.5259620000000 1.0
C      1  0.4399800000000  0.4902290000000  0.5190360000000 1.0
C      1  0.4560790000000  0.4798760000000  0.4978890000000 1.0
C      1  0.4778300000000  0.4612680000000  0.5061480000000 1.0
C      1  0.4809430000000  0.5750600000000  0.5187280000000 1.0
C      1  0.4788100000000  0.4483560000000  0.4594210000000 1.0
C      1  0.5140240000000  0.4967510000000  0.5000710000000 1.0
C      1  0.4832990000000  0.4565150000000  0.5357910000000 1.0
C      1  0.5509310000000  0.4881360000000  0.4699010000000 1.0
C      1  0.4520750000000  0.5382760000000  0.5293240000000 1.0
C      1  0.4587130000000  0.5083020000000  0.5320070000000 1.0
C      1  0.5098380000000  0.4279460000000  0.4880710000000 1.0
C      1  0.5401290000000  0.4863640000000  0.4412630000000 1.0
END
