TITL C-950524-1808-735 -4.7862291071737e-06 125000 -418.101470297904 0 0 70 (C1) n - 1
REM
REM in /home/bkarasulu/work/CARBON/AIRSS/Generating-Clusters/EDIP-Nigel-Params/with-SteepDescent/Only-C1/SD-CG/HFTN-CG
REM
REM
REM
REM
REM
REM ./C.cell (11c1c37f851c82e70ff6c80c92926a4b)
REM
REM compiler GCC version 9.2.1 20190827 (Red Hat 9.2.1-1)
REM options -cpp -mtune=generic -march=x86-64 -g -O0 -fpre-include=/usr/include/finclude/math-vector-fortran.h
REM seed 620290970 2125015318 -1479380535 542485491 -1714687712 -911178057 -296024527 605857179 -176302875 -736875505 1354554125 574455046 1410888286 -1969951305 -1882417586 897940411 1521484089 -1259862737 -2121082141 -2124203312 15535955 2022102746 528639586 1581418008 -161145100 537346890 292659751 1787006373 207404926 145432023 -378455165 -1451697745 1686211274
REM
CELL 1.54180   50.00000   50.00000   50.00000   90.00000   90.00000   90.00000
LATT -1
SFAC C  
C      1  0.5002120000000  0.4402280000000  0.4264870000000 1.0
C      1  0.5055070000000  0.5453080000000  0.5708060000000 1.0
C      1  0.5130510000000  0.4942020000000  0.5435440000000 1.0
C      1  0.5174700000000  0.5487230000000  0.5240710000000 1.0
C      1  0.4392250000000  0.5223970000000  0.4803290000000 1.0
C      1  0.5614630000000  0.4826080000000  0.5371810000000 1.0
C      1  0.5120930000000  0.4709940000000  0.5246930000000 1.0
C      1  0.5034290000000  0.4535070000000  0.5678880000000 1.0
C      1  0.4670810000000  0.5251900000000  0.4107940000000 1.0
C      1  0.5566500000000  0.5539320000000  0.4705810000000 1.0
C      1  0.5005540000000  0.5711300000000  0.4574780000000 1.0
C      1  0.4503770000000  0.5538650000000  0.4458840000000 1.0
C      1  0.5670100000000  0.5374350000000  0.5369150000000 1.0
C      1  0.4890900000000  0.4711930000000  0.5066950000000 1.0
C      1  0.5194970000000  0.5329380000000  0.5473350000000 1.0
C      1  0.4348380000000  0.4818380000000  0.5133150000000 1.0
C      1  0.4540850000000  0.5665100000000  0.4921740000000 1.0
C      1  0.4711880000000  0.5286300000000  0.5796350000000 1.0
C      1  0.5684370000000  0.4980440000000  0.5136650000000 1.0
C      1  0.5744890000000  0.5259390000000  0.5129720000000 1.0
C      1  0.5423890000000  0.5011940000000  0.4666470000000 1.0
C      1  0.4437480000000  0.5498310000000  0.4727410000000 1.0
C      1  0.5480060000000  0.5275800000000  0.5548660000000 1.0
C      1  0.4630590000000  0.5491240000000  0.5358690000000 1.0
C      1  0.5208370000000  0.5335340000000  0.4346240000000 1.0
C      1  0.4582460000000  0.5205700000000  0.5324660000000 1.0
C      1  0.4734630000000  0.5629180000000  0.5119390000000 1.0
C      1  0.4524690000000  0.4594010000000  0.5531260000000 1.0
C      1  0.5096780000000  0.4474350000000  0.5411310000000 1.0
C      1  0.4764310000000  0.5001070000000  0.4982890000000 1.0
C      1  0.4757160000000  0.5548520000000  0.5626490000000 1.0
C      1  0.4599660000000  0.5092410000000  0.5597180000000 1.0
C      1  0.4405660000000  0.5113160000000  0.5093210000000 1.0
C      1  0.4438890000000  0.5036370000000  0.4597050000000 1.0
C      1  0.5393530000000  0.5716910000000  0.4829260000000 1.0
C      1  0.4488070000000  0.4355060000000  0.4995840000000 1.0
C      1  0.4625020000000  0.5096540000000  0.3909340000000 1.0
C      1  0.5177480000000  0.4984040000000  0.5870680000000 1.0
C      1  0.4758800000000  0.4481400000000  0.4371430000000 1.0
C      1  0.5098920000000  0.4812740000000  0.4439920000000 1.0
C      1  0.5116700000000  0.5699240000000  0.4827920000000 1.0
C      1  0.5025280000000  0.4824460000000  0.5688450000000 1.0
C      1  0.4948750000000  0.4544420000000  0.4813390000000 1.0
C      1  0.4597450000000  0.4226320000000  0.4761560000000 1.0
C      1  0.4880260000000  0.4251520000000  0.4822150000000 1.0
C      1  0.5398990000000  0.4440250000000  0.4528480000000 1.0
C      1  0.5447310000000  0.5414790000000  0.4480210000000 1.0
C      1  0.4584010000000  0.4766540000000  0.5299320000000 1.0
C      1  0.4995240000000  0.5502670000000  0.5021060000000 1.0
C      1  0.5628440000000  0.4551540000000  0.4988740000000 1.0
C      1  0.5726850000000  0.5397840000000  0.4886920000000 1.0
C      1  0.4688480000000  0.4277460000000  0.5218030000000 1.0
C      1  0.4619500000000  0.4853280000000  0.4731130000000 1.0
C      1  0.5152990000000  0.5061520000000  0.4310110000000 1.0
C      1  0.5214800000000  0.5104550000000  0.4817860000000 1.0
C      1  0.5677560000000  0.4907260000000  0.4658890000000 1.0
C      1  0.4712660000000  0.5442340000000  0.4301690000000 1.0
C      1  0.5732330000000  0.4809110000000  0.4914630000000 1.0
C      1  0.4389640000000  0.4624280000000  0.4927470000000 1.0
C      1  0.4977090000000  0.5503460000000  0.4394250000000 1.0
C      1  0.5425040000000  0.4973450000000  0.5572260000000 1.0
C      1  0.4582570000000  0.4822740000000  0.5689460000000 1.0
C      1  0.4843030000000  0.4685510000000  0.4568460000000 1.0
C      1  0.4726990000000  0.4390710000000  0.5494690000000 1.0
C      1  0.5224890000000  0.4559870000000  0.4341960000000 1.0
C      1  0.5509140000000  0.4413640000000  0.4774550000000 1.0
C      1  0.5027990000000  0.5229880000000  0.5923220000000 1.0
C      1  0.4912770000000  0.4150910000000  0.5091150000000 1.0
C      1  0.4973660000000  0.5212580000000  0.4907320000000 1.0
C      1  0.5575690000000  0.4557660000000  0.5272840000000 1.0
END
