TITL C-950533-5798-454 -1.37124516439856e-06 125000 -425.731449192756 0 0 70 (C1) n - 1
REM
REM in /home/bkarasulu/work/CARBON/AIRSS/Generating-Clusters/EDIP-Nigel-Params/with-SteepDescent/Only-C1/SD-CG/HFTN-CG
REM
REM
REM
REM
REM
REM ./C.cell (11c1c37f851c82e70ff6c80c92926a4b)
REM
REM compiler GCC version 9.2.1 20190827 (Red Hat 9.2.1-1)
REM options -cpp -mtune=generic -march=x86-64 -g -O0 -fpre-include=/usr/include/finclude/math-vector-fortran.h
REM seed 3230177 -1125411091 272053235 -985140136 -1679132646 308929872 -2084580826 -656286632 657839267 1752244855 1306598755 1774207740 1049358269 -1090365448 -537619066 -291907665 2044158260 2075363911 1934219780 206504241 -1071006694 -135822922 1596267553 -1715214150 1811382669 -1821759607 -1700384367 -436983084 -886271838 -821880293 -1694941354 747391246 1456813737
REM
CELL 1.54180   50.00000   50.00000   50.00000   90.00000   90.00000   90.00000
LATT -1
SFAC C  
C      1  0.5356610000000  0.5140990000000  0.5281420000000 1.0
C      1  0.4269410000000  0.4916630000000  0.4509850000000 1.0
C      1  0.5359920000000  0.5149800000000  0.5584000000000 1.0
C      1  0.4770530000000  0.5616430000000  0.5033920000000 1.0
C      1  0.4763890000000  0.5549920000000  0.4403380000000 1.0
C      1  0.4854910000000  0.5287050000000  0.4343290000000 1.0
C      1  0.4489020000000  0.5578830000000  0.4943360000000 1.0
C      1  0.4574950000000  0.4591060000000  0.4593410000000 1.0
C      1  0.4801820000000  0.4660180000000  0.5552960000000 1.0
C      1  0.5088310000000  0.4696850000000  0.5624410000000 1.0
C      1  0.4764030000000  0.5010760000000  0.4417250000000 1.0
C      1  0.5013640000000  0.4859930000000  0.4405900000000 1.0
C      1  0.4875900000000  0.5130290000000  0.4957350000000 1.0
C      1  0.4916480000000  0.4257160000000  0.4775980000000 1.0
C      1  0.5567420000000  0.5115000000000  0.4832570000000 1.0
C      1  0.4402580000000  0.5321880000000  0.4791240000000 1.0
C      1  0.4472380000000  0.5524660000000  0.5476050000000 1.0
C      1  0.4737820000000  0.5609270000000  0.5509520000000 1.0
C      1  0.4890600000000  0.4667760000000  0.4966930000000 1.0
C      1  0.5601200000000  0.5113880000000  0.4531330000000 1.0
C      1  0.4304560000000  0.5095740000000  0.5224500000000 1.0
C      1  0.4899050000000  0.4373080000000  0.5044880000000 1.0
C      1  0.5326880000000  0.5093030000000  0.4422100000000 1.0
C      1  0.4754300000000  0.4917280000000  0.5417090000000 1.0
C      1  0.5785090000000  0.5034250000000  0.5305420000000 1.0
C      1  0.5552160000000  0.4655200000000  0.5466040000000 1.0
C      1  0.5163330000000  0.4380730000000  0.5227900000000 1.0
C      1  0.5650170000000  0.4526010000000  0.5205020000000 1.0
C      1  0.5199220000000  0.5576230000000  0.4502030000000 1.0
C      1  0.5620410000000  0.4627050000000  0.4738740000000 1.0
C      1  0.4220130000000  0.4856470000000  0.4785880000000 1.0
C      1  0.5340090000000  0.5398450000000  0.5146970000000 1.0
C      1  0.4375150000000  0.4901950000000  0.5418570000000 1.0
C      1  0.4359170000000  0.5590260000000  0.4686770000000 1.0
C      1  0.5785800000000  0.4939410000000  0.4415930000000 1.0
C      1  0.4391490000000  0.4615060000000  0.5393510000000 1.0
C      1  0.5390450000000  0.4453890000000  0.4799490000000 1.0
C      1  0.4901340000000  0.5369160000000  0.5127010000000 1.0
C      1  0.5074980000000  0.5066190000000  0.4726970000000 1.0
C      1  0.5258730000000  0.4647880000000  0.5378460000000 1.0
C      1  0.4639750000000  0.4298970000000  0.5151670000000 1.0
C      1  0.5648100000000  0.4933320000000  0.5532010000000 1.0
C      1  0.4941760000000  0.5384220000000  0.5461950000000 1.0
C      1  0.4321490000000  0.5351390000000  0.5334760000000 1.0
C      1  0.5491160000000  0.5402610000000  0.4902940000000 1.0
C      1  0.4835600000000  0.5781980000000  0.5278980000000 1.0
C      1  0.5231420000000  0.5448480000000  0.5574250000000 1.0
C      1  0.4524440000000  0.4832680000000  0.4414850000000 1.0
C      1  0.4871090000000  0.5123950000000  0.5593400000000 1.0
C      1  0.5150720000000  0.4641630000000  0.4761530000000 1.0
C      1  0.4564890000000  0.4500220000000  0.5592700000000 1.0
C      1  0.5023240000000  0.4568150000000  0.4413120000000 1.0
C      1  0.4957110000000  0.5721670000000  0.4501650000000 1.0
C      1  0.5118110000000  0.4989740000000  0.5689220000000 1.0
C      1  0.5718880000000  0.4687700000000  0.4483000000000 1.0
C      1  0.5305750000000  0.4913240000000  0.4868760000000 1.0
C      1  0.5228820000000  0.4897830000000  0.5175600000000 1.0
C      1  0.4308040000000  0.4572110000000  0.4871790000000 1.0
C      1  0.4824770000000  0.4418960000000  0.4558100000000 1.0
C      1  0.5118370000000  0.5813150000000  0.5301040000000 1.0
C      1  0.5786440000000  0.4987940000000  0.5025540000000 1.0
C      1  0.4928020000000  0.4911110000000  0.5150640000000 1.0
C      1  0.5766970000000  0.4695800000000  0.4982270000000 1.0
C      1  0.5421790000000  0.4360230000000  0.5079920000000 1.0
C      1  0.4393240000000  0.5053000000000  0.4939680000000 1.0
C      1  0.5317300000000  0.5616450000000  0.5345250000000 1.0
C      1  0.5145310000000  0.5322270000000  0.4380650000000 1.0
C      1  0.4453980000000  0.4509590000000  0.5131240000000 1.0
C      1  0.5397640000000  0.5571420000000  0.4700110000000 1.0
C      1  0.4641920000000  0.4774580000000  0.4836030000000 1.0
END
