TITL C-950527-2551-435 -1.32759600886491e-06 125000 -1020.57780351419 0 0 162 (C1) n - 1
REM
REM in /home/bkarasulu/work/CARBON/AIRSS/Generating-Clusters/EDIP-Nigel-Params/with-SteepDescent/Only-C1/SD-CG/HFTN-CG
REM
REM
REM
REM
REM
REM ./C.cell (11c1c37f851c82e70ff6c80c92926a4b)
REM
REM compiler GCC version 9.2.1 20190827 (Red Hat 9.2.1-1)
REM options -cpp -mtune=generic -march=x86-64 -g -O0 -fpre-include=/usr/include/finclude/math-vector-fortran.h
REM seed -1243999499 -1121796075 -751151530 -1810019758 -1907422772 35872859 798587150 87875692 -8566812 1630837439 -493967564 -1395868064 -932018199 -1891018992 463137764 515965478 -193366669 1683351946 -522268032 1108597794 905953130 1568683923 -1208163828 -250841715 1662322974 -1207508292 -907826316 -1606499052 -1505429636 508367543 780386965 2052931549 239417875
REM
CELL 1.54180   50.00000   50.00000   50.00000   90.00000   90.00000   90.00000
LATT -1
SFAC C  
C      1  0.4702130000000  0.5936640000000  0.4467930000000 1.0
C      1  0.4303630000000  0.4562910000000  0.5833300000000 1.0
C      1  0.5771000000000  0.4511410000000  0.5098110000000 1.0
C      1  0.4655820000000  0.5383920000000  0.5485860000000 1.0
C      1  0.5429950000000  0.4874910000000  0.6005010000000 1.0
C      1  0.4601560000000  0.5157950000000  0.6061780000000 1.0
C      1  0.4894520000000  0.4163270000000  0.5423760000000 1.0
C      1  0.5838800000000  0.5585960000000  0.4451060000000 1.0
C      1  0.4586950000000  0.4734260000000  0.4149850000000 1.0
C      1  0.4386740000000  0.5838150000000  0.5383190000000 1.0
C      1  0.5315290000000  0.5649980000000  0.5351810000000 1.0
C      1  0.4441430000000  0.4992190000000  0.5666090000000 1.0
C      1  0.5405610000000  0.4701720000000  0.5242960000000 1.0
C      1  0.5218600000000  0.4419600000000  0.5987440000000 1.0
C      1  0.5838240000000  0.5551200000000  0.4945500000000 1.0
C      1  0.5697210000000  0.5348130000000  0.5113320000000 1.0
C      1  0.4091520000000  0.4363270000000  0.4599990000000 1.0
C      1  0.4988400000000  0.6011730000000  0.5188780000000 1.0
C      1  0.5195330000000  0.4381340000000  0.5184470000000 1.0
C      1  0.5079440000000  0.5938970000000  0.5673940000000 1.0
C      1  0.5383880000000  0.5303890000000  0.4239420000000 1.0
C      1  0.4155940000000  0.4738690000000  0.5390510000000 1.0
C      1  0.5023760000000  0.4995300000000  0.5611300000000 1.0
C      1  0.5506510000000  0.5844930000000  0.4751680000000 1.0
C      1  0.5615610000000  0.4127710000000  0.5260350000000 1.0
C      1  0.4652450000000  0.5054820000000  0.4505270000000 1.0
C      1  0.4849840000000  0.5292270000000  0.5970770000000 1.0
C      1  0.4377830000000  0.5485360000000  0.5736820000000 1.0
C      1  0.4529520000000  0.4362850000000  0.4498280000000 1.0
C      1  0.5810690000000  0.4666900000000  0.4853670000000 1.0
C      1  0.5160790000000  0.5396990000000  0.4642190000000 1.0
C      1  0.5231310000000  0.4837170000000  0.4777370000000 1.0
C      1  0.5426950000000  0.4279630000000  0.4278240000000 1.0
C      1  0.4785310000000  0.4525610000000  0.5726570000000 1.0
C      1  0.4544610000000  0.4725840000000  0.5832050000000 1.0
C      1  0.4402700000000  0.4329270000000  0.5426950000000 1.0
C      1  0.4023710000000  0.4437020000000  0.4857470000000 1.0
C      1  0.4179960000000  0.4961160000000  0.5560820000000 1.0
C      1  0.5691660000000  0.4541850000000  0.4610040000000 1.0
C      1  0.5229030000000  0.4538120000000  0.5460780000000 1.0
C      1  0.5730820000000  0.4649070000000  0.4341290000000 1.0
C      1  0.4959480000000  0.4341290000000  0.4730250000000 1.0
C      1  0.3949340000000  0.4818660000000  0.5182360000000 1.0
C      1  0.5241320000000  0.5453520000000  0.4912490000000 1.0
C      1  0.5352880000000  0.5821440000000  0.5617870000000 1.0
C      1  0.4032560000000  0.4718020000000  0.4922140000000 1.0
C      1  0.5733010000000  0.5840980000000  0.4954950000000 1.0
C      1  0.5761130000000  0.4926790000000  0.5356850000000 1.0
C      1  0.5339050000000  0.5175090000000  0.3875000000000 1.0
C      1  0.5667070000000  0.4931120000000  0.4263600000000 1.0
C      1  0.5859660000000  0.5093940000000  0.5142120000000 1.0
C      1  0.5605710000000  0.4477150000000  0.4136550000000 1.0
C      1  0.5144160000000  0.4401860000000  0.4240630000000 1.0
C      1  0.4956840000000  0.5546490000000  0.4065480000000 1.0
C      1  0.4168520000000  0.5185710000000  0.4763590000000 1.0
C      1  0.4251080000000  0.5353330000000  0.4534350000000 1.0
C      1  0.5374240000000  0.4068110000000  0.4834250000000 1.0
C      1  0.5854790000000  0.5378360000000  0.4224800000000 1.0
C      1  0.4273350000000  0.5457630000000  0.5185490000000 1.0
C      1  0.5368780000000  0.4208790000000  0.5708910000000 1.0
C      1  0.5477880000000  0.5618950000000  0.5822330000000 1.0
C      1  0.5612950000000  0.5372680000000  0.4064590000000 1.0
C      1  0.5123910000000  0.5703790000000  0.4258510000000 1.0
C      1  0.5131890000000  0.3932540000000  0.4744590000000 1.0
C      1  0.4916390000000  0.5830220000000  0.5884460000000 1.0
C      1  0.3939830000000  0.5099350000000  0.5166800000000 1.0
C      1  0.4094220000000  0.4258430000000  0.5054550000000 1.0
C      1  0.5450840000000  0.4665200000000  0.3957820000000 1.0
C      1  0.4844530000000  0.5456830000000  0.5271860000000 1.0
C      1  0.5472970000000  0.5194390000000  0.5655750000000 1.0
C      1  0.4894770000000  0.5490930000000  0.4595910000000 1.0
C      1  0.5617560000000  0.5444120000000  0.5635200000000 1.0
C      1  0.4538690000000  0.5711170000000  0.4368930000000 1.0
C      1  0.4766880000000  0.5138020000000  0.3935020000000 1.0
C      1  0.4571680000000  0.4999580000000  0.5164830000000 1.0
C      1  0.5363430000000  0.5454260000000  0.6025260000000 1.0
C      1  0.5045310000000  0.5271520000000  0.3965470000000 1.0
C      1  0.4873110000000  0.5870520000000  0.4937220000000 1.0
C      1  0.5316290000000  0.5532600000000  0.4412870000000 1.0
C      1  0.4371050000000  0.5826360000000  0.4816230000000 1.0
C      1  0.5559960000000  0.4944830000000  0.3961900000000 1.0
C      1  0.4519450000000  0.5307580000000  0.4048840000000 1.0
C      1  0.4945460000000  0.4812650000000  0.6145710000000 1.0
C      1  0.5689010000000  0.5003610000000  0.5626090000000 1.0
C      1  0.4726550000000  0.5622610000000  0.5042030000000 1.0
C      1  0.5412830000000  0.5041160000000  0.4396450000000 1.0
C      1  0.4903820000000  0.3983060000000  0.5205880000000 1.0
C      1  0.5798790000000  0.4643090000000  0.5357710000000 1.0
C      1  0.4322710000000  0.4191080000000  0.5187790000000 1.0
C      1  0.4392310000000  0.5214950000000  0.5857700000000 1.0
C      1  0.5090070000000  0.3910480000000  0.4462360000000 1.0
C      1  0.4753440000000  0.4835070000000  0.4677020000000 1.0
C      1  0.5173170000000  0.4878160000000  0.4312320000000 1.0
C      1  0.5050330000000  0.5083470000000  0.5896970000000 1.0
C      1  0.4667780000000  0.4305210000000  0.5549050000000 1.0
C      1  0.4877320000000  0.4267500000000  0.4175710000000 1.0
C      1  0.5348390000000  0.5171740000000  0.5933630000000 1.0
C      1  0.5882410000000  0.4959020000000  0.4877090000000 1.0
C      1  0.5613410000000  0.5542590000000  0.5356510000000 1.0
C      1  0.4688430000000  0.5497590000000  0.4202550000000 1.0
C      1  0.4973260000000  0.4324050000000  0.5870730000000 1.0
C      1  0.5931870000000  0.5440320000000  0.4693060000000 1.0
C      1  0.4276690000000  0.4232440000000  0.4456470000000 1.0
C      1  0.5135800000000  0.4472690000000  0.4542650000000 1.0
C      1  0.4714290000000  0.4454880000000  0.5137690000000 1.0
C      1  0.4971650000000  0.5842160000000  0.4462990000000 1.0
C      1  0.4436290000000  0.5708030000000  0.5093620000000 1.0
C      1  0.4387160000000  0.4749030000000  0.5181250000000 1.0
C      1  0.4441810000000  0.4928710000000  0.4339540000000 1.0
C      1  0.4981230000000  0.4709310000000  0.3888830000000 1.0
C      1  0.4627140000000  0.5091770000000  0.5452890000000 1.0
C      1  0.5421360000000  0.5049550000000  0.4720900000000 1.0
C      1  0.5261790000000  0.5880350000000  0.5150910000000 1.0
C      1  0.4275250000000  0.4762660000000  0.4531670000000 1.0
C      1  0.5197830000000  0.4697890000000  0.6046780000000 1.0
C      1  0.4798670000000  0.4948490000000  0.4959210000000 1.0
C      1  0.4745610000000  0.4846400000000  0.3937610000000 1.0
C      1  0.4498610000000  0.4608030000000  0.4685390000000 1.0
C      1  0.4212870000000  0.4496330000000  0.5570880000000 1.0
C      1  0.4633250000000  0.5832290000000  0.5825210000000 1.0
C      1  0.4091290000000  0.4907810000000  0.4708370000000 1.0
C      1  0.5602290000000  0.4174920000000  0.5547240000000 1.0
C      1  0.5901490000000  0.5152240000000  0.4648870000000 1.0
C      1  0.4260960000000  0.5570320000000  0.5477740000000 1.0
C      1  0.4856940000000  0.4039780000000  0.4369610000000 1.0
C      1  0.4891450000000  0.5938140000000  0.5451990000000 1.0
C      1  0.5822500000000  0.4234510000000  0.5101510000000 1.0
C      1  0.5313300000000  0.5013030000000  0.5203360000000 1.0
C      1  0.4615430000000  0.5931140000000  0.5552090000000 1.0
C      1  0.5557980000000  0.5696060000000  0.4500320000000 1.0
C      1  0.5762140000000  0.5807600000000  0.5337070000000 1.0
C      1  0.4966850000000  0.4700040000000  0.5537340000000 1.0
C      1  0.4749870000000  0.4694570000000  0.5316660000000 1.0
C      1  0.4974360000000  0.4479580000000  0.4999950000000 1.0
C      1  0.5360100000000  0.4136790000000  0.5118110000000 1.0
C      1  0.5053290000000  0.4796970000000  0.5013660000000 1.0
C      1  0.5887140000000  0.5111870000000  0.4355950000000 1.0
C      1  0.4895470000000  0.3910430000000  0.4933230000000 1.0
C      1  0.5600510000000  0.4559710000000  0.5580930000000 1.0
C      1  0.4628170000000  0.5990120000000  0.4756110000000 1.0
C      1  0.4441560000000  0.4503900000000  0.4992230000000 1.0
C      1  0.5084960000000  0.4163670000000  0.5649670000000 1.0
C      1  0.5490490000000  0.4315240000000  0.4581530000000 1.0
C      1  0.4800330000000  0.5494740000000  0.5758220000000 1.0
C      1  0.5065100000000  0.4758530000000  0.4558580000000 1.0
C      1  0.5430140000000  0.5224680000000  0.4985380000000 1.0
C      1  0.4738600000000  0.4171620000000  0.4610290000000 1.0
C      1  0.4441310000000  0.5583870000000  0.4626150000000 1.0
C      1  0.4681680000000  0.5466150000000  0.4795720000000 1.0
C      1  0.4656040000000  0.4858990000000  0.6087880000000 1.0
C      1  0.4089570000000  0.5290370000000  0.5027230000000 1.0
C      1  0.5239210000000  0.5760820000000  0.4874690000000 1.0
C      1  0.4649960000000  0.3965130000000  0.4801270000000 1.0
C      1  0.4796820000000  0.5298520000000  0.4402180000000 1.0
C      1  0.5228620000000  0.5156050000000  0.5458020000000 1.0
C      1  0.5627520000000  0.4778010000000  0.5799710000000 1.0
C      1  0.5118960000000  0.5426870000000  0.5375850000000 1.0
C      1  0.4312600000000  0.5189730000000  0.4252510000000 1.0
C      1  0.5507200000000  0.6055390000000  0.5184360000000 1.0
C      1  0.5182320000000  0.4670040000000  0.4090400000000 1.0
C      1  0.5572170000000  0.6006390000000  0.5483860000000 1.0
C      1  0.4643020000000  0.4453160000000  0.4236680000000 1.0
END
