TITL C-950523-3027-447 -3.04336442640088e-06 125000 -252.761255228114 0 0 42 (C1) n - 1
REM
REM in /home/bkarasulu/work/CARBON/AIRSS/Generating-Clusters/EDIP-Nigel-Params/with-SteepDescent/Only-C1/SD-CG/HFTN-CG
REM
REM
REM
REM
REM
REM ./C.cell (11c1c37f851c82e70ff6c80c92926a4b)
REM
REM compiler GCC version 9.2.1 20190827 (Red Hat 9.2.1-1)
REM options -cpp -mtune=generic -march=x86-64 -g -O0 -fpre-include=/usr/include/finclude/math-vector-fortran.h
REM seed -784921127 1940379521 195351609 -1301689778 -1943010990 -366437313 80968367 16775710 1874413397 -1707262588 -1661029255 -758716764 -1855983022 -1442351811 295509946 1858542264 1574247744 -517465935 791225730 -417936139 -1824190507 -1401039296 -1039104937 -1459255167 1870490297 -184593671 -1720382798 113258222 251994732 -1126594878 -1341258612 -119817066 -1383871045
REM
CELL 1.54180   50.00000   50.00000   50.00000   90.00000   90.00000   90.00000
LATT -1
SFAC C  
C      1  0.5433680000000  0.5065010000000  0.4602760000000 1.0
C      1  0.4946460000000  0.4907330000000  0.4356400000000 1.0
C      1  0.4975360000000  0.5098470000000  0.4993310000000 1.0
C      1  0.4847550000000  0.5139640000000  0.4478390000000 1.0
C      1  0.5006420000000  0.4465900000000  0.5402640000000 1.0
C      1  0.5611070000000  0.5199620000000  0.5299370000000 1.0
C      1  0.4921580000000  0.5535690000000  0.4664110000000 1.0
C      1  0.4460080000000  0.5010320000000  0.5220160000000 1.0
C      1  0.4793320000000  0.5629210000000  0.4420770000000 1.0
C      1  0.4657550000000  0.4933920000000  0.5436370000000 1.0
C      1  0.5010000000000  0.4464510000000  0.4538870000000 1.0
C      1  0.4593430000000  0.5498780000000  0.5065770000000 1.0
C      1  0.4815540000000  0.5648430000000  0.4928420000000 1.0
C      1  0.4919040000000  0.4763270000000  0.5360020000000 1.0
C      1  0.5154780000000  0.4881370000000  0.5506440000000 1.0
C      1  0.5282290000000  0.5474040000000  0.4949770000000 1.0
C      1  0.5300260000000  0.4814230000000  0.4665770000000 1.0
C      1  0.4899640000000  0.5320520000000  0.5208680000000 1.0
C      1  0.5296210000000  0.4438450000000  0.5032000000000 1.0
C      1  0.5117240000000  0.4710950000000  0.4461970000000 1.0
C      1  0.4497420000000  0.4634540000000  0.4987130000000 1.0
C      1  0.4321370000000  0.4787600000000  0.5117560000000 1.0
C      1  0.4892640000000  0.4264770000000  0.5243100000000 1.0
C      1  0.4705250000000  0.5142640000000  0.5618370000000 1.0
C      1  0.4917970000000  0.5286590000000  0.5507710000000 1.0
C      1  0.4524160000000  0.5221710000000  0.5020570000000 1.0
C      1  0.5276900000000  0.5163470000000  0.4938450000000 1.0
C      1  0.5479480000000  0.4984800000000  0.5151260000000 1.0
C      1  0.5036530000000  0.4285700000000  0.4996300000000 1.0
C      1  0.5416500000000  0.5284820000000  0.5467770000000 1.0
C      1  0.5301480000000  0.4486710000000  0.5327440000000 1.0
C      1  0.4966770000000  0.4802910000000  0.5056440000000 1.0
C      1  0.5049210000000  0.5572010000000  0.5111320000000 1.0
C      1  0.5390980000000  0.4772260000000  0.5379980000000 1.0
C      1  0.4756150000000  0.4657080000000  0.4888850000000 1.0
C      1  0.5258060000000  0.4731160000000  0.4961400000000 1.0
C      1  0.5179110000000  0.5167250000000  0.5563850000000 1.0
C      1  0.4869310000000  0.4408350000000  0.4775790000000 1.0
C      1  0.4790690000000  0.5132470000000  0.4760600000000 1.0
C      1  0.5344380000000  0.5317260000000  0.4531330000000 1.0
C      1  0.4762860000000  0.5369280000000  0.4335160000000 1.0
C      1  0.5221230000000  0.5526940000000  0.4667620000000 1.0
END
