TITL C-950526-5686-126 -2.37138950463514e-05 125000 -49.8717002215754 0 0 10 (C1) n - 1
REM
REM in /home/bkarasulu/work/CARBON/AIRSS/Generating-Clusters/EDIP-Nigel-Params/with-SteepDescent/Only-C1/SD-CG/HFTN-CG
REM
REM
REM
REM
REM
REM ./C.cell (11c1c37f851c82e70ff6c80c92926a4b)
REM
REM compiler GCC version 9.2.1 20190827 (Red Hat 9.2.1-1)
REM options -cpp -mtune=generic -march=x86-64 -g -O0 -fpre-include=/usr/include/finclude/math-vector-fortran.h
REM seed -553642252 619292420 -1277475460 1339221590 -883377684 -1928735533 -1346113025 1222625407 -1574183727 -839059067 1966817181 -1074145325 -1596403418 1185158260 -162850955 -428653708 -1396628634 784900066 851766825 1302848726 830972240 -1591903841 451537072 -1916674132 2034857154 898298129 -718418866 -1653918251 1535941280 -1958863096 2052018387 648898713 -520388787
REM
CELL 1.54180   50.00000   50.00000   50.00000   90.00000   90.00000   90.00000
LATT -1
SFAC C  
C      1  0.4530170000000  0.4848640000000  0.5248100000000 1.0
C      1  0.4710780000000  0.5054050000000  0.5218870000000 1.0
C      1  0.5367910000000  0.5156650000000  0.4865660000000 1.0
C      1  0.5165140000000  0.5207170000000  0.5042720000000 1.0
C      1  0.5152720000000  0.5444090000000  0.5158870000000 1.0
C      1  0.4929430000000  0.5046430000000  0.5033170000000 1.0
C      1  0.5004760000000  0.4682900000000  0.4711500000000 1.0
C      1  0.5567920000000  0.5088830000000  0.4720780000000 1.0
C      1  0.4660380000000  0.4697230000000  0.5058860000000 1.0
C      1  0.4910790000000  0.4774010000000  0.4941480000000 1.0
END
