TITL C-951337-3020-424 -1.99046193475074e-06 125000 -1174.42431099628 0 0 188 (C1) n - 1
REM
REM in /home/bkarasulu/work/CARBON/AIRSS/Generating-Clusters/EDIP-Nigel-Params/with-SteepDescent/Only-C1/SD-CG/HFTN-CG
REM
REM
REM
REM
REM
REM ./C.cell (11c1c37f851c82e70ff6c80c92926a4b)
REM
REM compiler GCC version 9.2.1 20190827 (Red Hat 9.2.1-1)
REM options -cpp -mtune=generic -march=x86-64 -g -O0 -fpre-include=/usr/include/finclude/math-vector-fortran.h
REM seed 440744084 -1840083830 -1567872913 -148399293 -1377851697 -1959359992 1506131451 -1963236720 1614719733 -825559962 1576814681 -392809049 1230265796 2029628277 1189510270 -840929999 -1196393096 1718371947 -1472304237 -971147681 1834270485 -1974038271 1290085074 -207101143 1609830681 -1625935431 1975012566 -663440974 -2144158668 964372553 1599832680 -1022074859 2092893301
REM
CELL 1.54180   50.00000   50.00000   50.00000   90.00000   90.00000   90.00000
LATT -1
SFAC C  
C      1  0.5744290000000  0.4818750000000  0.5076340000000 1.0
C      1  0.5242340000000  0.4805850000000  0.5447270000000 1.0
C      1  0.5075150000000  0.5258750000000  0.4067400000000 1.0
C      1  0.5129920000000  0.5229420000000  0.5224900000000 1.0
C      1  0.5806810000000  0.4519820000000  0.5423870000000 1.0
C      1  0.4128680000000  0.4974270000000  0.5911020000000 1.0
C      1  0.4286310000000  0.4130670000000  0.5073620000000 1.0
C      1  0.5041520000000  0.5355980000000  0.4340090000000 1.0
C      1  0.5275100000000  0.4300860000000  0.4263880000000 1.0
C      1  0.5734460000000  0.4897830000000  0.5909530000000 1.0
C      1  0.5342360000000  0.4025230000000  0.5265380000000 1.0
C      1  0.6075180000000  0.5616530000000  0.4516940000000 1.0
C      1  0.5068160000000  0.4480510000000  0.4662710000000 1.0
C      1  0.4235970000000  0.5263610000000  0.5286950000000 1.0
C      1  0.4711970000000  0.4573040000000  0.6123630000000 1.0
C      1  0.4626770000000  0.5739130000000  0.5693250000000 1.0
C      1  0.5075460000000  0.5284600000000  0.4790650000000 1.0
C      1  0.4011880000000  0.5544880000000  0.5150890000000 1.0
C      1  0.4871060000000  0.5535180000000  0.4874680000000 1.0
C      1  0.6058800000000  0.5331680000000  0.4857310000000 1.0
C      1  0.4661370000000  0.5117870000000  0.4569810000000 1.0
C      1  0.5473570000000  0.4967890000000  0.5420170000000 1.0
C      1  0.4897200000000  0.5603680000000  0.4346910000000 1.0
C      1  0.4658860000000  0.5075990000000  0.3963950000000 1.0
C      1  0.4865370000000  0.5379510000000  0.5912070000000 1.0
C      1  0.6062170000000  0.4918540000000  0.5700710000000 1.0
C      1  0.5626250000000  0.4534390000000  0.5183570000000 1.0
C      1  0.4559960000000  0.5954100000000  0.5288050000000 1.0
C      1  0.5551120000000  0.4414660000000  0.4616090000000 1.0
C      1  0.5359230000000  0.5272040000000  0.4019900000000 1.0
C      1  0.5177760000000  0.6093700000000  0.4623690000000 1.0
C      1  0.4148080000000  0.5737320000000  0.5536730000000 1.0
C      1  0.4976570000000  0.4629930000000  0.6178550000000 1.0
C      1  0.5144680000000  0.3996860000000  0.4640440000000 1.0
C      1  0.5083020000000  0.4137820000000  0.5150440000000 1.0
C      1  0.5204730000000  0.4755460000000  0.6070760000000 1.0
C      1  0.5743890000000  0.4298040000000  0.5015520000000 1.0
C      1  0.4757550000000  0.4100290000000  0.5458580000000 1.0
C      1  0.5886760000000  0.4622940000000  0.4350260000000 1.0
C      1  0.4551290000000  0.5541130000000  0.4911230000000 1.0
C      1  0.4849450000000  0.5947980000000  0.5357360000000 1.0
C      1  0.5775920000000  0.5568310000000  0.5259250000000 1.0
C      1  0.5450690000000  0.5551400000000  0.4087030000000 1.0
C      1  0.4597960000000  0.4999070000000  0.6093390000000 1.0
C      1  0.4857250000000  0.4883620000000  0.5009150000000 1.0
C      1  0.4678790000000  0.3915230000000  0.4704020000000 1.0
C      1  0.5131660000000  0.5038960000000  0.6015160000000 1.0
C      1  0.5727760000000  0.5346610000000  0.5592790000000 1.0
C      1  0.5473380000000  0.6068800000000  0.4632550000000 1.0
C      1  0.5501430000000  0.5048560000000  0.3903760000000 1.0
C      1  0.6161450000000  0.5103200000000  0.5004060000000 1.0
C      1  0.4937830000000  0.3817300000000  0.4675580000000 1.0
C      1  0.6166430000000  0.4856120000000  0.4860430000000 1.0
C      1  0.3880750000000  0.5036660000000  0.5378160000000 1.0
C      1  0.4892240000000  0.4544940000000  0.4892810000000 1.0
C      1  0.4354630000000  0.4407810000000  0.4711050000000 1.0
C      1  0.6004590000000  0.5021510000000  0.5233770000000 1.0
C      1  0.5326710000000  0.5938310000000  0.5301930000000 1.0
C      1  0.5368430000000  0.5397100000000  0.5266870000000 1.0
C      1  0.3944380000000  0.4773030000000  0.5498810000000 1.0
C      1  0.5588180000000  0.5912480000000  0.4415700000000 1.0
C      1  0.4657610000000  0.4375290000000  0.5924490000000 1.0
C      1  0.4664590000000  0.5267750000000  0.5331330000000 1.0
C      1  0.5875070000000  0.5132080000000  0.5784860000000 1.0
C      1  0.6147540000000  0.4866790000000  0.5431030000000 1.0
C      1  0.4779100000000  0.4837180000000  0.5314990000000 1.0
C      1  0.4245830000000  0.4157410000000  0.5363060000000 1.0
C      1  0.5663680000000  0.5828890000000  0.4866060000000 1.0
C      1  0.4240370000000  0.4513670000000  0.4224090000000 1.0
C      1  0.4589980000000  0.4064710000000  0.4461990000000 1.0
C      1  0.6087970000000  0.4596420000000  0.5322090000000 1.0
C      1  0.4126960000000  0.5319920000000  0.4749070000000 1.0
C      1  0.5280490000000  0.4366560000000  0.5584440000000 1.0
C      1  0.4892610000000  0.5830000000000  0.5629310000000 1.0
C      1  0.4188150000000  0.4488160000000  0.5831590000000 1.0
C      1  0.4485260000000  0.4891180000000  0.4132460000000 1.0
C      1  0.5295000000000  0.4540740000000  0.5328640000000 1.0
C      1  0.5061040000000  0.6018850000000  0.4341580000000 1.0
C      1  0.4408240000000  0.4314480000000  0.5790620000000 1.0
C      1  0.5576600000000  0.5291760000000  0.5067980000000 1.0
C      1  0.5601010000000  0.5605960000000  0.5720880000000 1.0
C      1  0.3954530000000  0.5560770000000  0.5429950000000 1.0
C      1  0.5449050000000  0.5643880000000  0.4405540000000 1.0
C      1  0.4741450000000  0.4444350000000  0.4119060000000 1.0
C      1  0.4995870000000  0.4254440000000  0.5607260000000 1.0
C      1  0.4212550000000  0.5212010000000  0.4325720000000 1.0
C      1  0.5791310000000  0.4396840000000  0.5790520000000 1.0
C      1  0.4468910000000  0.5338850000000  0.4446150000000 1.0
C      1  0.5446060000000  0.5235060000000  0.5534520000000 1.0
C      1  0.3926430000000  0.4539820000000  0.5328000000000 1.0
C      1  0.3935630000000  0.5283990000000  0.5528720000000 1.0
C      1  0.5864720000000  0.5259030000000  0.4159480000000 1.0
C      1  0.4062270000000  0.4741070000000  0.4291630000000 1.0
C      1  0.4514380000000  0.4445200000000  0.5171790000000 1.0
C      1  0.4616270000000  0.4369090000000  0.4893330000000 1.0
C      1  0.4791700000000  0.4250850000000  0.4346830000000 1.0
C      1  0.4659030000000  0.5390460000000  0.3978490000000 1.0
C      1  0.4481900000000  0.4590420000000  0.4074110000000 1.0
C      1  0.5360300000000  0.4581330000000  0.5879750000000 1.0
C      1  0.4610290000000  0.4857300000000  0.4415160000000 1.0
C      1  0.5606990000000  0.5726820000000  0.5450310000000 1.0
C      1  0.5469150000000  0.4687760000000  0.4019330000000 1.0
C      1  0.5040380000000  0.4440880000000  0.5166710000000 1.0
C      1  0.5572200000000  0.5013390000000  0.4643460000000 1.0
C      1  0.4718670000000  0.6039650000000  0.4828200000000 1.0
C      1  0.5770130000000  0.5537840000000  0.4093520000000 1.0
C      1  0.5766690000000  0.5014220000000  0.4015490000000 1.0
C      1  0.5827900000000  0.5234810000000  0.4452090000000 1.0
C      1  0.5035220000000  0.5267760000000  0.5650690000000 1.0
C      1  0.4325650000000  0.4184000000000  0.4504590000000 1.0
C      1  0.5790200000000  0.4836900000000  0.4773970000000 1.0
C      1  0.4531070000000  0.5906410000000  0.5007780000000 1.0
C      1  0.4921560000000  0.5395020000000  0.5364850000000 1.0
C      1  0.4438820000000  0.5261370000000  0.5549840000000 1.0
C      1  0.4519020000000  0.5277190000000  0.5068580000000 1.0
C      1  0.4617260000000  0.4887950000000  0.5827730000000 1.0
C      1  0.5068430000000  0.4244100000000  0.4475250000000 1.0
C      1  0.3943350000000  0.5330510000000  0.4971120000000 1.0
C      1  0.5718570000000  0.4760110000000  0.4165130000000 1.0
C      1  0.4676250000000  0.5975380000000  0.4553640000000 1.0
C      1  0.5251390000000  0.5659760000000  0.4645150000000 1.0
C      1  0.5299060000000  0.4883330000000  0.4704360000000 1.0
C      1  0.4205490000000  0.4972770000000  0.4161600000000 1.0
C      1  0.4608590000000  0.5514860000000  0.5866690000000 1.0
C      1  0.4178290000000  0.4245230000000  0.4271680000000 1.0
C      1  0.4791930000000  0.6097880000000  0.4334220000000 1.0
C      1  0.4357000000000  0.5391580000000  0.5905340000000 1.0
C      1  0.3903100000000  0.5058230000000  0.5083180000000 1.0
C      1  0.4973200000000  0.5639330000000  0.5154050000000 1.0
C      1  0.4972900000000  0.4591130000000  0.3993040000000 1.0
C      1  0.4065050000000  0.4734110000000  0.5763760000000 1.0
C      1  0.5117670000000  0.5699720000000  0.5740570000000 1.0
C      1  0.4617530000000  0.5040550000000  0.4882140000000 1.0
C      1  0.4138600000000  0.4346560000000  0.4913610000000 1.0
C      1  0.5457750000000  0.4140730000000  0.5512210000000 1.0
C      1  0.5877030000000  0.5744730000000  0.5043790000000 1.0
C      1  0.5112470000000  0.5738430000000  0.4132260000000 1.0
C      1  0.5240100000000  0.4526200000000  0.4090090000000 1.0
C      1  0.4809890000000  0.4473260000000  0.5689900000000 1.0
C      1  0.4907490000000  0.4802550000000  0.4310410000000 1.0
C      1  0.4362230000000  0.5491820000000  0.4681270000000 1.0
C      1  0.4966180000000  0.5178790000000  0.4543760000000 1.0
C      1  0.5333040000000  0.5538360000000  0.5833300000000 1.0
C      1  0.4987370000000  0.4929740000000  0.5553740000000 1.0
C      1  0.6126580000000  0.4603180000000  0.5010870000000 1.0
C      1  0.5323490000000  0.4590040000000  0.4707190000000 1.0
C      1  0.4059820000000  0.4595250000000  0.5069440000000 1.0
C      1  0.5625050000000  0.5441380000000  0.4556560000000 1.0
C      1  0.6081210000000  0.5327060000000  0.4570650000000 1.0
C      1  0.5635690000000  0.4640230000000  0.5812040000000 1.0
C      1  0.4013660000000  0.4297020000000  0.5435520000000 1.0
C      1  0.4869220000000  0.5161000000000  0.6114640000000 1.0
C      1  0.5568090000000  0.4191740000000  0.4810520000000 1.0
C      1  0.4621210000000  0.4060370000000  0.4964470000000 1.0
C      1  0.5276800000000  0.5678280000000  0.5156590000000 1.0
C      1  0.4931330000000  0.4978370000000  0.4028780000000 1.0
C      1  0.4347920000000  0.4717600000000  0.4629440000000 1.0
C      1  0.5332190000000  0.5239100000000  0.5911400000000 1.0
C      1  0.5966990000000  0.4410820000000  0.4851240000000 1.0
C      1  0.4615780000000  0.5516160000000  0.4250770000000 1.0
C      1  0.4482000000000  0.4865300000000  0.5358970000000 1.0
C      1  0.4348930000000  0.4699920000000  0.5139580000000 1.0
C      1  0.5329850000000  0.4029030000000  0.4876170000000 1.0
C      1  0.5109570000000  0.4940870000000  0.4483490000000 1.0
C      1  0.5398490000000  0.5715540000000  0.4890960000000 1.0
C      1  0.4821400000000  0.4001020000000  0.5188750000000 1.0
C      1  0.4939540000000  0.5485780000000  0.3915100000000 1.0
C      1  0.4878450000000  0.4755980000000  0.5792020000000 1.0
C      1  0.6093760000000  0.5620350000000  0.4898590000000 1.0
C      1  0.4046780000000  0.5138600000000  0.4544710000000 1.0
C      1  0.5879330000000  0.5715540000000  0.4315550000000 1.0
C      1  0.4421830000000  0.5799150000000  0.5497900000000 1.0
C      1  0.5535070000000  0.5002080000000  0.5140540000000 1.0
C      1  0.5745630000000  0.4222330000000  0.5553290000000 1.0
C      1  0.5118850000000  0.5045730000000  0.4983110000000 1.0
C      1  0.5463800000000  0.5293930000000  0.4775260000000 1.0
C      1  0.3928330000000  0.4814980000000  0.4904690000000 1.0
C      1  0.5005270000000  0.6070660000000  0.4888360000000 1.0
C      1  0.4946920000000  0.5716340000000  0.4637410000000 1.0
C      1  0.4418920000000  0.4835160000000  0.4886570000000 1.0
C      1  0.5073040000000  0.6071030000000  0.5188800000000 1.0
C      1  0.4777390000000  0.4526210000000  0.5333190000000 1.0
C      1  0.5813580000000  0.4567460000000  0.4630040000000 1.0
C      1  0.4327620000000  0.5143650000000  0.6049960000000 1.0
C      1  0.4044820000000  0.4840720000000  0.4598930000000 1.0
C      1  0.5533900000000  0.4290000000000  0.4356100000000 1.0
C      1  0.4477380000000  0.4199450000000  0.5527900000000 1.0
C      1  0.4402420000000  0.4965510000000  0.5633700000000 1.0
END
