TITL C-951348-1603-695 -1.99375141670815e-06 125000 -951.444054426465 0 0 152 (C1) n - 1
REM
REM in /home/bkarasulu/work/CARBON/AIRSS/Generating-Clusters/EDIP-Nigel-Params/with-SteepDescent/Only-C1/SD-CG/HFTN-CG
REM
REM
REM
REM
REM
REM ./C.cell (11c1c37f851c82e70ff6c80c92926a4b)
REM
REM compiler GCC version 9.2.1 20190827 (Red Hat 9.2.1-1)
REM options -cpp -mtune=generic -march=x86-64 -g -O0 -fpre-include=/usr/include/finclude/math-vector-fortran.h
REM seed -45790263 814930158 122546661 -1920044353 1971070325 675821618 1557557556 1033761695 -1700201725 -101417026 -1845301224 -945292867 -1493354273 426218101 1623810307 726061445 -1381180717 -152367390 -798547610 54153928 950149620 -1547638708 -487643349 2099779077 1572227434 112911252 197936507 875013659 -877691203 -666648775 -2085190157 -1998098653 1519901210
REM
CELL 1.54180   50.00000   50.00000   50.00000   90.00000   90.00000   90.00000
LATT -1
SFAC C  
C      1  0.4810160000000  0.5412990000000  0.4450820000000 1.0
C      1  0.4705010000000  0.4767750000000  0.5820500000000 1.0
C      1  0.4315760000000  0.5708480000000  0.5399190000000 1.0
C      1  0.5825710000000  0.4515560000000  0.4406670000000 1.0
C      1  0.4369080000000  0.4360260000000  0.4325660000000 1.0
C      1  0.4287580000000  0.4582530000000  0.5572260000000 1.0
C      1  0.5546140000000  0.4548540000000  0.4417890000000 1.0
C      1  0.5838860000000  0.5547720000000  0.4853650000000 1.0
C      1  0.4643430000000  0.4753230000000  0.5026940000000 1.0
C      1  0.5037100000000  0.4502670000000  0.5948360000000 1.0
C      1  0.4547130000000  0.5364350000000  0.5638340000000 1.0
C      1  0.4777690000000  0.5724270000000  0.4406790000000 1.0
C      1  0.4565170000000  0.5844380000000  0.5490590000000 1.0
C      1  0.5087570000000  0.5981720000000  0.5339570000000 1.0
C      1  0.4837000000000  0.4118090000000  0.5709890000000 1.0
C      1  0.5637430000000  0.4168680000000  0.5390810000000 1.0
C      1  0.4115380000000  0.4852630000000  0.5220930000000 1.0
C      1  0.4568440000000  0.5884620000000  0.4525840000000 1.0
C      1  0.5119370000000  0.6025280000000  0.4828120000000 1.0
C      1  0.4654890000000  0.4416260000000  0.4260410000000 1.0
C      1  0.4273700000000  0.5789390000000  0.4785440000000 1.0
C      1  0.4268100000000  0.5473000000000  0.5570650000000 1.0
C      1  0.4619050000000  0.5023810000000  0.3931750000000 1.0
C      1  0.4091980000000  0.5282800000000  0.5434560000000 1.0
C      1  0.5475810000000  0.4810580000000  0.4958380000000 1.0
C      1  0.5548210000000  0.5287940000000  0.4977560000000 1.0
C      1  0.5063490000000  0.4326160000000  0.4493860000000 1.0
C      1  0.5535400000000  0.5891160000000  0.5537850000000 1.0
C      1  0.5847390000000  0.4336420000000  0.5384660000000 1.0
C      1  0.4637880000000  0.5199950000000  0.4588350000000 1.0
C      1  0.5446300000000  0.5023400000000  0.5854710000000 1.0
C      1  0.4756280000000  0.5973280000000  0.5267490000000 1.0
C      1  0.4739550000000  0.5541900000000  0.5224640000000 1.0
C      1  0.5119050000000  0.5002010000000  0.4001870000000 1.0
C      1  0.5214770000000  0.3950740000000  0.4765600000000 1.0
C      1  0.5502160000000  0.5306350000000  0.4049250000000 1.0
C      1  0.5102170000000  0.4826580000000  0.4540530000000 1.0
C      1  0.4708170000000  0.5629390000000  0.5653110000000 1.0
C      1  0.4513680000000  0.3993530000000  0.5060920000000 1.0
C      1  0.5183530000000  0.5776580000000  0.5817370000000 1.0
C      1  0.4361470000000  0.4953250000000  0.4002770000000 1.0
C      1  0.4925230000000  0.5694070000000  0.5040920000000 1.0
C      1  0.3953100000000  0.5072950000000  0.5033600000000 1.0
C      1  0.5943170000000  0.5062430000000  0.5390700000000 1.0
C      1  0.5222580000000  0.4379530000000  0.5760480000000 1.0
C      1  0.4551520000000  0.5834580000000  0.4797960000000 1.0
C      1  0.5641650000000  0.4840340000000  0.5707740000000 1.0
C      1  0.4989210000000  0.3884790000000  0.4929730000000 1.0
C      1  0.4851950000000  0.4878820000000  0.4009070000000 1.0
C      1  0.5552690000000  0.5675360000000  0.5362870000000 1.0
C      1  0.4357160000000  0.5173620000000  0.4170890000000 1.0
C      1  0.4768980000000  0.4838650000000  0.5519260000000 1.0
C      1  0.4806110000000  0.4935600000000  0.4601360000000 1.0
C      1  0.4660330000000  0.4475560000000  0.5861620000000 1.0
C      1  0.4843150000000  0.4630200000000  0.4165320000000 1.0
C      1  0.5088100000000  0.4588330000000  0.4337060000000 1.0
C      1  0.5416440000000  0.5730120000000  0.5096090000000 1.0
C      1  0.4375840000000  0.4378530000000  0.4784680000000 1.0
C      1  0.4496910000000  0.5187080000000  0.5124560000000 1.0
C      1  0.5104290000000  0.5486370000000  0.4130800000000 1.0
C      1  0.5256820000000  0.5346580000000  0.4890350000000 1.0
C      1  0.4372520000000  0.4899140000000  0.5035440000000 1.0
C      1  0.5358110000000  0.4835540000000  0.4036440000000 1.0
C      1  0.4360430000000  0.5550140000000  0.5146400000000 1.0
C      1  0.5175120000000  0.5758120000000  0.4113310000000 1.0
C      1  0.4733580000000  0.5594470000000  0.4823640000000 1.0
C      1  0.4748610000000  0.4055280000000  0.4877130000000 1.0
C      1  0.5952140000000  0.4720380000000  0.4847040000000 1.0
C      1  0.5022920000000  0.5270130000000  0.5895670000000 1.0
C      1  0.5707410000000  0.4600030000000  0.4988200000000 1.0
C      1  0.5218670000000  0.5287550000000  0.3953870000000 1.0
C      1  0.5550630000000  0.5102080000000  0.4551020000000 1.0
C      1  0.5072230000000  0.4828140000000  0.5543200000000 1.0
C      1  0.5145540000000  0.4998600000000  0.5813890000000 1.0
C      1  0.5424180000000  0.4926620000000  0.5248640000000 1.0
C      1  0.5463510000000  0.5397260000000  0.5466030000000 1.0
C      1  0.5355050000000  0.4282080000000  0.5018320000000 1.0
C      1  0.4658950000000  0.3940590000000  0.5317820000000 1.0
C      1  0.5146130000000  0.5396070000000  0.5493590000000 1.0
C      1  0.5623190000000  0.5047990000000  0.4829080000000 1.0
C      1  0.5538490000000  0.4715490000000  0.5448860000000 1.0
C      1  0.5240710000000  0.5479190000000  0.4625840000000 1.0
C      1  0.4698700000000  0.4651560000000  0.5300910000000 1.0
C      1  0.5608750000000  0.4335910000000  0.4882020000000 1.0
C      1  0.4471420000000  0.4367510000000  0.5666330000000 1.0
C      1  0.5916730000000  0.5432750000000  0.5104450000000 1.0
C      1  0.5264400000000  0.5925530000000  0.5592190000000 1.0
C      1  0.5128100000000  0.4417410000000  0.4865620000000 1.0
C      1  0.4361570000000  0.5172910000000  0.4457680000000 1.0
C      1  0.4881820000000  0.6174490000000  0.4843030000000 1.0
C      1  0.4265300000000  0.4853410000000  0.5687030000000 1.0
C      1  0.5113660000000  0.4112960000000  0.5685520000000 1.0
C      1  0.4812580000000  0.4210940000000  0.4398260000000 1.0
C      1  0.5036170000000  0.5876730000000  0.4332770000000 1.0
C      1  0.5104580000000  0.5341050000000  0.4401550000000 1.0
C      1  0.4128930000000  0.5274540000000  0.4590410000000 1.0
C      1  0.5757080000000  0.4581610000000  0.5287880000000 1.0
C      1  0.4672650000000  0.4196890000000  0.5483260000000 1.0
C      1  0.3987530000000  0.5336480000000  0.5161700000000 1.0
C      1  0.5177120000000  0.5532480000000  0.5105450000000 1.0
C      1  0.5179650000000  0.4036500000000  0.5409170000000 1.0
C      1  0.4838450000000  0.4339450000000  0.4976430000000 1.0
C      1  0.4045950000000  0.5052970000000  0.4746180000000 1.0
C      1  0.4658180000000  0.4051910000000  0.4584550000000 1.0
C      1  0.5599490000000  0.5278020000000  0.5723240000000 1.0
C      1  0.5371060000000  0.4250340000000  0.5319350000000 1.0
C      1  0.4684430000000  0.5147440000000  0.5406370000000 1.0
C      1  0.5295660000000  0.4512640000000  0.5495340000000 1.0
C      1  0.5283790000000  0.5057460000000  0.4401830000000 1.0
C      1  0.4955790000000  0.5636230000000  0.5474240000000 1.0
C      1  0.4146370000000  0.5604770000000  0.4952370000000 1.0
C      1  0.4991990000000  0.5218510000000  0.5309350000000 1.0
C      1  0.4668680000000  0.6052380000000  0.4979110000000 1.0
C      1  0.4961990000000  0.3894070000000  0.5237580000000 1.0
C      1  0.4307990000000  0.4213560000000  0.5028140000000 1.0
C      1  0.6083890000000  0.5152270000000  0.4660560000000 1.0
C      1  0.4781460000000  0.5257750000000  0.6032060000000 1.0
C      1  0.5256940000000  0.5980790000000  0.5087520000000 1.0
C      1  0.5435710000000  0.5688040000000  0.4569920000000 1.0
C      1  0.4197900000000  0.4591610000000  0.4666630000000 1.0
C      1  0.5947530000000  0.5410970000000  0.4610090000000 1.0
C      1  0.4394040000000  0.4176920000000  0.4558920000000 1.0
C      1  0.5227590000000  0.5918470000000  0.4566200000000 1.0
C      1  0.4119980000000  0.4558830000000  0.5336490000000 1.0
C      1  0.4852870000000  0.4947460000000  0.4889820000000 1.0
C      1  0.5289910000000  0.4141670000000  0.4565210000000 1.0
C      1  0.4637420000000  0.4514720000000  0.4850040000000 1.0
C      1  0.4125040000000  0.4312680000000  0.5209900000000 1.0
C      1  0.4262690000000  0.4861830000000  0.4756690000000 1.0
C      1  0.4178060000000  0.4561590000000  0.4386160000000 1.0
C      1  0.5141230000000  0.4960960000000  0.5305310000000 1.0
C      1  0.5999700000000  0.5165680000000  0.5139360000000 1.0
C      1  0.4978510000000  0.4792980000000  0.5974370000000 1.0
C      1  0.5547770000000  0.5027540000000  0.4118480000000 1.0
C      1  0.5152690000000  0.5520680000000  0.5906080000000 1.0
C      1  0.5085460000000  0.5118810000000  0.4896420000000 1.0
C      1  0.5560030000000  0.4292560000000  0.4587060000000 1.0
C      1  0.5987490000000  0.4712830000000  0.4545120000000 1.0
C      1  0.5749020000000  0.5278100000000  0.4412080000000 1.0
C      1  0.5546350000000  0.5199320000000  0.5257360000000 1.0
C      1  0.4537610000000  0.5224110000000  0.5904050000000 1.0
C      1  0.5585100000000  0.5701570000000  0.4835680000000 1.0
C      1  0.5348290000000  0.4590970000000  0.4203640000000 1.0
C      1  0.4610940000000  0.5318550000000  0.4865900000000 1.0
C      1  0.4465890000000  0.4936080000000  0.5891000000000 1.0
C      1  0.4179290000000  0.5012000000000  0.5460480000000 1.0
C      1  0.6011940000000  0.4987030000000  0.4432470000000 1.0
C      1  0.5835380000000  0.5070100000000  0.5650690000000 1.0
C      1  0.5215750000000  0.4707140000000  0.4809200000000 1.0
C      1  0.4811940000000  0.4389500000000  0.5287450000000 1.0
C      1  0.5581200000000  0.5499730000000  0.4276830000000 1.0
C      1  0.5930460000000  0.5020090000000  0.4882430000000 1.0
END
