TITL C-951343-2256-707 -2.13795030132469e-07 125000 -273.243226704417 0 0 45 (C1) n - 1
REM
REM in /home/bkarasulu/work/CARBON/AIRSS/Generating-Clusters/EDIP-Nigel-Params/with-SteepDescent/Only-C1/SD-CG/HFTN-CG
REM
REM
REM
REM
REM
REM ./C.cell (11c1c37f851c82e70ff6c80c92926a4b)
REM
REM compiler GCC version 9.2.1 20190827 (Red Hat 9.2.1-1)
REM options -cpp -mtune=generic -march=x86-64 -g -O0 -fpre-include=/usr/include/finclude/math-vector-fortran.h
REM seed 1469588491 705373959 -1946926150 -425694450 247972289 2105296897 -1079630048 1496745611 -376127308 15297339 321397572 -474610911 1615108228 2057295989 -1596765060 1462224565 -65620883 -570873546 1482921694 1823961652 78331610 -1813107251 -61642047 1012361439 -2068023930 -695405477 -535687088 -196306351 1952498295 -1905686913 -430125590 2101952520 -1432745427
REM
CELL 1.54180   50.00000   50.00000   50.00000   90.00000   90.00000   90.00000
LATT -1
SFAC C  
C      1  0.5180020000000  0.4533720000000  0.5513140000000 1.0
C      1  0.4922480000000  0.5477080000000  0.5454890000000 1.0
C      1  0.4512620000000  0.5153740000000  0.4988340000000 1.0
C      1  0.4725510000000  0.5629130000000  0.5318070000000 1.0
C      1  0.5204160000000  0.4401650000000  0.4766790000000 1.0
C      1  0.4691310000000  0.5023170000000  0.5195550000000 1.0
C      1  0.5686420000000  0.5142800000000  0.4950690000000 1.0
C      1  0.5591900000000  0.4855060000000  0.5018270000000 1.0
C      1  0.4573690000000  0.5141400000000  0.5547580000000 1.0
C      1  0.5315120000000  0.4819370000000  0.5145730000000 1.0
C      1  0.5242800000000  0.4698500000000  0.4722770000000 1.0
C      1  0.5366460000000  0.5302390000000  0.5314300000000 1.0
C      1  0.5132300000000  0.4357170000000  0.5063460000000 1.0
C      1  0.5199340000000  0.5537300000000  0.5373080000000 1.0
C      1  0.4791140000000  0.5186580000000  0.4412070000000 1.0
C      1  0.4917690000000  0.4582870000000  0.4414040000000 1.0
C      1  0.5216160000000  0.5749600000000  0.5177750000000 1.0
C      1  0.4599490000000  0.4992060000000  0.4355460000000 1.0
C      1  0.4992420000000  0.5162340000000  0.4805970000000 1.0
C      1  0.4891780000000  0.4678610000000  0.4893210000000 1.0
C      1  0.4986330000000  0.4345840000000  0.4576480000000 1.0
C      1  0.5203520000000  0.5374950000000  0.4867310000000 1.0
C      1  0.4850960000000  0.5210000000000  0.5551140000000 1.0
C      1  0.5570190000000  0.5098760000000  0.4652510000000 1.0
C      1  0.4419550000000  0.4977140000000  0.4793350000000 1.0
C      1  0.4966350000000  0.4947880000000  0.5033400000000 1.0
C      1  0.4792530000000  0.5574910000000  0.5043110000000 1.0
C      1  0.5046750000000  0.4992530000000  0.5538580000000 1.0
C      1  0.5525230000000  0.4793670000000  0.4734800000000 1.0
C      1  0.5133120000000  0.4780160000000  0.4459490000000 1.0
C      1  0.5075190000000  0.5628190000000  0.4958290000000 1.0
C      1  0.4848300000000  0.4455470000000  0.5087950000000 1.0
C      1  0.5069360000000  0.5076620000000  0.4474700000000 1.0
C      1  0.4715620000000  0.4619590000000  0.4643070000000 1.0
C      1  0.4985410000000  0.4715450000000  0.5593450000000 1.0
C      1  0.5261090000000  0.5033210000000  0.5351230000000 1.0
C      1  0.4521740000000  0.4838020000000  0.4575300000000 1.0
C      1  0.5318730000000  0.5265350000000  0.4597170000000 1.0
C      1  0.5288620000000  0.4536210000000  0.5252820000000 1.0
C      1  0.4693530000000  0.5378180000000  0.4593540000000 1.0
C      1  0.4564150000000  0.4769880000000  0.5310840000000 1.0
C      1  0.4748690000000  0.4551820000000  0.5340970000000 1.0
C      1  0.4469460000000  0.4882020000000  0.5550840000000 1.0
C      1  0.5564700000000  0.5331120000000  0.5119610000000 1.0
C      1  0.4628070000000  0.5398480000000  0.4868890000000 1.0
END
