TITL C-951347-9520-134 -2.97426813940762e-06 125000 -1045.96180782829 0 0 169 (C1) n - 1
REM
REM in /home/bkarasulu/work/CARBON/AIRSS/Generating-Clusters/EDIP-Nigel-Params/with-SteepDescent/Only-C1/SD-CG/HFTN-CG
REM
REM
REM
REM
REM
REM ./C.cell (11c1c37f851c82e70ff6c80c92926a4b)
REM
REM compiler GCC version 9.2.1 20190827 (Red Hat 9.2.1-1)
REM options -cpp -mtune=generic -march=x86-64 -g -O0 -fpre-include=/usr/include/finclude/math-vector-fortran.h
REM seed -1363225919 219276520 -2092370348 -1969077810 -624512580 931093717 -118423851 -1329447942 1210708169 -177638141 -824502057 1935580014 1613021030 -186713446 -1786511535 1406870033 148209732 895264427 -2085898094 -1204412204 728378901 1573995667 1823762223 -174139817 764607737 -882098090 -1683883743 1493771757 -1510682868 -2024673360 -1760695309 1589887903 -854429505
REM
CELL 1.54180   50.00000   50.00000   50.00000   90.00000   90.00000   90.00000
LATT -1
SFAC C  
C      1  0.5343170000000  0.5170850000000  0.5485380000000 1.0
C      1  0.5470570000000  0.6035710000000  0.4553350000000 1.0
C      1  0.5167130000000  0.5518190000000  0.5912950000000 1.0
C      1  0.4016930000000  0.4796240000000  0.5478760000000 1.0
C      1  0.4633890000000  0.4287170000000  0.5827570000000 1.0
C      1  0.4057260000000  0.4858070000000  0.4762060000000 1.0
C      1  0.4381290000000  0.4280700000000  0.4623660000000 1.0
C      1  0.4670570000000  0.5832700000000  0.5545840000000 1.0
C      1  0.5735190000000  0.4336570000000  0.4731560000000 1.0
C      1  0.3980830000000  0.5057230000000  0.5608840000000 1.0
C      1  0.4050760000000  0.5417430000000  0.5273140000000 1.0
C      1  0.5203810000000  0.6107320000000  0.4994140000000 1.0
C      1  0.4568030000000  0.4426490000000  0.4799720000000 1.0
C      1  0.4753490000000  0.5575890000000  0.5141790000000 1.0
C      1  0.5195340000000  0.4477670000000  0.4170230000000 1.0
C      1  0.5352030000000  0.4555120000000  0.4682370000000 1.0
C      1  0.5171640000000  0.4446180000000  0.4929440000000 1.0
C      1  0.5233500000000  0.5702640000000  0.4642630000000 1.0
C      1  0.5455390000000  0.6032720000000  0.4838750000000 1.0
C      1  0.4932500000000  0.5114400000000  0.5205880000000 1.0
C      1  0.4529690000000  0.4733320000000  0.4787430000000 1.0
C      1  0.5990700000000  0.5092620000000  0.4904140000000 1.0
C      1  0.5064720000000  0.4756890000000  0.6117380000000 1.0
C      1  0.6069090000000  0.4736470000000  0.4625320000000 1.0
C      1  0.6003450000000  0.4905230000000  0.5132460000000 1.0
C      1  0.5337210000000  0.5117200000000  0.4054850000000 1.0
C      1  0.5815880000000  0.5116830000000  0.4413530000000 1.0
C      1  0.3970240000000  0.4700690000000  0.4997130000000 1.0
C      1  0.3861590000000  0.4828060000000  0.5233110000000 1.0
C      1  0.5080630000000  0.5966150000000  0.5775140000000 1.0
C      1  0.5225090000000  0.4719540000000  0.5342950000000 1.0
C      1  0.4748870000000  0.4689640000000  0.5524420000000 1.0
C      1  0.4780820000000  0.4833730000000  0.4667570000000 1.0
C      1  0.5659640000000  0.4661890000000  0.4408000000000 1.0
C      1  0.4894090000000  0.4083780000000  0.5370480000000 1.0
C      1  0.5321680000000  0.5239040000000  0.5992640000000 1.0
C      1  0.5176800000000  0.3995320000000  0.5322240000000 1.0
C      1  0.4302080000000  0.4308140000000  0.5182800000000 1.0
C      1  0.4218200000000  0.4602810000000  0.5573710000000 1.0
C      1  0.4370970000000  0.4975560000000  0.5892210000000 1.0
C      1  0.5447560000000  0.4920820000000  0.5401160000000 1.0
C      1  0.5600370000000  0.4480660000000  0.5707740000000 1.0
C      1  0.5421320000000  0.4950400000000  0.4956100000000 1.0
C      1  0.5394390000000  0.4275790000000  0.5684420000000 1.0
C      1  0.5424830000000  0.4883920000000  0.4627290000000 1.0
C      1  0.6018430000000  0.5016790000000  0.4622970000000 1.0
C      1  0.4520520000000  0.5275560000000  0.4916060000000 1.0
C      1  0.5685810000000  0.4243350000000  0.5291450000000 1.0
C      1  0.5444550000000  0.4658990000000  0.3935410000000 1.0
C      1  0.5207230000000  0.5103340000000  0.4474700000000 1.0
C      1  0.6018710000000  0.5577690000000  0.4848120000000 1.0
C      1  0.5359950000000  0.5859400000000  0.5421940000000 1.0
C      1  0.4589430000000  0.4200880000000  0.5556510000000 1.0
C      1  0.4639410000000  0.5623580000000  0.4096470000000 1.0
C      1  0.4503140000000  0.4899710000000  0.4132590000000 1.0
C      1  0.5612130000000  0.5575820000000  0.5646530000000 1.0
C      1  0.5349850000000  0.4055190000000  0.4596050000000 1.0
C      1  0.5095450000000  0.4961650000000  0.4993070000000 1.0
C      1  0.4820020000000  0.5172690000000  0.5984930000000 1.0
C      1  0.4879250000000  0.5209220000000  0.3958710000000 1.0
C      1  0.5570330000000  0.5762790000000  0.5245170000000 1.0
C      1  0.5016300000000  0.4230160000000  0.4228790000000 1.0
C      1  0.5798750000000  0.5250850000000  0.5744920000000 1.0
C      1  0.4910820000000  0.6162080000000  0.4748430000000 1.0
C      1  0.5789520000000  0.4972740000000  0.5779980000000 1.0
C      1  0.5157540000000  0.4655630000000  0.3899820000000 1.0
C      1  0.4872140000000  0.5346010000000  0.5580740000000 1.0
C      1  0.4768760000000  0.6043690000000  0.4987880000000 1.0
C      1  0.5543540000000  0.5835750000000  0.4359300000000 1.0
C      1  0.4785910000000  0.5359060000000  0.4760600000000 1.0
C      1  0.5747620000000  0.5622070000000  0.4766500000000 1.0
C      1  0.4934870000000  0.4861250000000  0.4225800000000 1.0
C      1  0.5542990000000  0.4914600000000  0.4031130000000 1.0
C      1  0.4010530000000  0.5390420000000  0.4767780000000 1.0
C      1  0.4290140000000  0.5556590000000  0.5383560000000 1.0
C      1  0.5676650000000  0.5375800000000  0.4336880000000 1.0
C      1  0.4932650000000  0.4602560000000  0.4594420000000 1.0
C      1  0.4658910000000  0.4674790000000  0.4044540000000 1.0
C      1  0.5012700000000  0.4807440000000  0.5548940000000 1.0
C      1  0.4602880000000  0.5219020000000  0.5537190000000 1.0
C      1  0.5003790000000  0.3681250000000  0.4975810000000 1.0
C      1  0.5829810000000  0.4588430000000  0.4618960000000 1.0
C      1  0.4335950000000  0.4683950000000  0.5827480000000 1.0
C      1  0.5582870000000  0.5368370000000  0.4772260000000 1.0
C      1  0.4507170000000  0.5183190000000  0.4559350000000 1.0
C      1  0.4481650000000  0.5964290000000  0.5083720000000 1.0
C      1  0.5140380000000  0.5987270000000  0.5283580000000 1.0
C      1  0.5221900000000  0.3838170000000  0.5072350000000 1.0
C      1  0.5356820000000  0.3965000000000  0.4861290000000 1.0
C      1  0.4591750000000  0.4409290000000  0.4028060000000 1.0
C      1  0.5739920000000  0.5642350000000  0.4460680000000 1.0
C      1  0.5082670000000  0.4970000000000  0.3962000000000 1.0
C      1  0.5240370000000  0.5450960000000  0.5045740000000 1.0
C      1  0.4982790000000  0.5388910000000  0.5155600000000 1.0
C      1  0.3944250000000  0.5501290000000  0.5021250000000 1.0
C      1  0.5504020000000  0.5263610000000  0.5033320000000 1.0
C      1  0.4955850000000  0.4140520000000  0.4880020000000 1.0
C      1  0.4597570000000  0.5801530000000  0.4646250000000 1.0
C      1  0.5331400000000  0.5679540000000  0.4215180000000 1.0
C      1  0.4942940000000  0.5968040000000  0.5527480000000 1.0
C      1  0.5574580000000  0.4940380000000  0.5970110000000 1.0
C      1  0.4724530000000  0.4279040000000  0.4234230000000 1.0
C      1  0.4103050000000  0.4462620000000  0.5060250000000 1.0
C      1  0.4583790000000  0.4356800000000  0.5093160000000 1.0
C      1  0.6001920000000  0.5359360000000  0.5018770000000 1.0
C      1  0.4457280000000  0.5405740000000  0.4103440000000 1.0
C      1  0.4338130000000  0.4343830000000  0.5464690000000 1.0
C      1  0.4855980000000  0.5753780000000  0.4933470000000 1.0
C      1  0.4640860000000  0.5030760000000  0.5787520000000 1.0
C      1  0.4874730000000  0.5444790000000  0.5859670000000 1.0
C      1  0.4192810000000  0.5176680000000  0.5769940000000 1.0
C      1  0.5030690000000  0.5998500000000  0.4530790000000 1.0
C      1  0.4561200000000  0.4149350000000  0.4432640000000 1.0
C      1  0.4121530000000  0.5136890000000  0.4372690000000 1.0
C      1  0.5333770000000  0.5400740000000  0.4615640000000 1.0
C      1  0.5095210000000  0.4051380000000  0.4451780000000 1.0
C      1  0.5537230000000  0.4257330000000  0.4537440000000 1.0
C      1  0.4609520000000  0.5099050000000  0.5172260000000 1.0
C      1  0.3992630000000  0.5125190000000  0.4644200000000 1.0
C      1  0.4619610000000  0.4592420000000  0.5799550000000 1.0
C      1  0.5731320000000  0.4887600000000  0.4252680000000 1.0
C      1  0.4585960000000  0.5156400000000  0.4007660000000 1.0
C      1  0.5791270000000  0.4470990000000  0.5471010000000 1.0
C      1  0.4981600000000  0.4672590000000  0.5025200000000 1.0
C      1  0.4884450000000  0.3857740000000  0.4788860000000 1.0
C      1  0.4727080000000  0.5567070000000  0.4557910000000 1.0
C      1  0.5277230000000  0.5755960000000  0.5724630000000 1.0
C      1  0.5719930000000  0.4264170000000  0.5008500000000 1.0
C      1  0.4819810000000  0.4329390000000  0.4660690000000 1.0
C      1  0.5129720000000  0.4680680000000  0.4385950000000 1.0
C      1  0.4532790000000  0.5734190000000  0.5291280000000 1.0
C      1  0.5499250000000  0.4668760000000  0.5911710000000 1.0
C      1  0.4824880000000  0.4583820000000  0.6101850000000 1.0
C      1  0.5560090000000  0.4680060000000  0.5049610000000 1.0
C      1  0.4530260000000  0.4823820000000  0.5089010000000 1.0
C      1  0.5157900000000  0.4356330000000  0.5845590000000 1.0
C      1  0.4184660000000  0.4451380000000  0.4523750000000 1.0
C      1  0.4397290000000  0.5794140000000  0.4853370000000 1.0
C      1  0.4322070000000  0.5362980000000  0.4365040000000 1.0
C      1  0.5048040000000  0.5109210000000  0.5496380000000 1.0
C      1  0.4256900000000  0.4725020000000  0.4586850000000 1.0
C      1  0.4774930000000  0.4137880000000  0.5116880000000 1.0
C      1  0.5079610000000  0.5040420000000  0.6014560000000 1.0
C      1  0.5351230000000  0.4494190000000  0.5169660000000 1.0
C      1  0.5727030000000  0.4856040000000  0.5503760000000 1.0
C      1  0.3863320000000  0.5235550000000  0.5406360000000 1.0
C      1  0.5049530000000  0.5176840000000  0.4755950000000 1.0
C      1  0.5056950000000  0.5791430000000  0.4294250000000 1.0
C      1  0.4849040000000  0.5572330000000  0.4292360000000 1.0
C      1  0.4276780000000  0.4887020000000  0.4328760000000 1.0
C      1  0.4713830000000  0.4623150000000  0.5206340000000 1.0
C      1  0.4980380000000  0.5300060000000  0.4240930000000 1.0
C      1  0.5778750000000  0.5319130000000  0.5225250000000 1.0
C      1  0.5260480000000  0.4566260000000  0.6017370000000 1.0
C      1  0.5410130000000  0.5377620000000  0.4195610000000 1.0
C      1  0.4322270000000  0.5517170000000  0.4951070000000 1.0
C      1  0.5899100000000  0.5057450000000  0.5358480000000 1.0
C      1  0.5611280000000  0.5822560000000  0.4957220000000 1.0
C      1  0.3716960000000  0.5073670000000  0.5220970000000 1.0
C      1  0.5161450000000  0.5724960000000  0.4930270000000 1.0
C      1  0.4773070000000  0.5043730000000  0.4448870000000 1.0
C      1  0.5839800000000  0.4663810000000  0.5141540000000 1.0
C      1  0.5402850000000  0.4185760000000  0.5402840000000 1.0
C      1  0.4930960000000  0.3828960000000  0.4512840000000 1.0
C      1  0.5492030000000  0.5293840000000  0.5712650000000 1.0
C      1  0.4403590000000  0.5433990000000  0.5630500000000 1.0
C      1  0.4604060000000  0.5638890000000  0.5770210000000 1.0
C      1  0.5736280000000  0.5576790000000  0.5379520000000 1.0
C      1  0.4898280000000  0.4306680000000  0.5984670000000 1.0
END
