TITL C-950533-5798-573 0.000100734102330043 125000 -104.568881255522 0 0 19 (C1) n - 1
REM
REM in /home/bkarasulu/work/CARBON/AIRSS/Generating-Clusters/EDIP-Nigel-Params/with-SteepDescent/Only-C1/SD-CG/HFTN-CG
REM
REM
REM
REM
REM
REM ./C.cell (11c1c37f851c82e70ff6c80c92926a4b)
REM
REM compiler GCC version 9.2.1 20190827 (Red Hat 9.2.1-1)
REM options -cpp -mtune=generic -march=x86-64 -g -O0 -fpre-include=/usr/include/finclude/math-vector-fortran.h
REM seed 1723545567 960140386 848597699 238566776 1159204710 -1192047674 941668309 -1726448896 -968371847 700758042 -1261969107 779176455 -27878606 -1511155473 294498274 1302280532 1164005978 -211455461 -1637025821 -1330187667 1025561775 -1669056524 499136765 1424302502 2099489486 -1368449958 -2097427560 -24554148 333177578 -2081473988 245856423 -1196584127 -449248655
REM
CELL 1.54180   50.00000   50.00000   50.00000   90.00000   90.00000   90.00000
LATT -1
SFAC C  
C      1  0.5096170000000  0.4726330000000  0.4749610000000 1.0
C      1  0.4766510000000  0.5206160000000  0.4974340000000 1.0
C      1  0.4795940000000  0.5244530000000  0.4693100000000 1.0
C      1  0.4682180000000  0.5708370000000  0.4790320000000 1.0
C      1  0.4817040000000  0.4944850000000  0.5111070000000 1.0
C      1  0.4884800000000  0.4949080000000  0.5392270000000 1.0
C      1  0.5019690000000  0.5569720000000  0.4928650000000 1.0
C      1  0.4820250000000  0.5458440000000  0.5121780000000 1.0
C      1  0.5149510000000  0.4953160000000  0.5319620000000 1.0
C      1  0.4884820000000  0.4699590000000  0.4936550000000 1.0
C      1  0.5163550000000  0.4486560000000  0.5206700000000 1.0
C      1  0.4743650000000  0.4448180000000  0.4966690000000 1.0
C      1  0.4930810000000  0.4359520000000  0.5144220000000 1.0
C      1  0.5270000000000  0.4744800000000  0.5154760000000 1.0
C      1  0.4876980000000  0.5516460000000  0.4676770000000 1.0
C      1  0.5568970000000  0.4796440000000  0.4889180000000 1.0
C      1  0.5356070000000  0.4779360000000  0.4722510000000 1.0
C      1  0.4613100000000  0.5655920000000  0.5063010000000 1.0
C      1  0.5559940000000  0.4752520000000  0.5158840000000 1.0
END
