TITL C-950530-3293-575 -2.53927197034002e-06 125000 -945.462868675146 0 0 151 (C1) n - 1
REM
REM in /home/bkarasulu/work/CARBON/AIRSS/Generating-Clusters/EDIP-Nigel-Params/with-SteepDescent/Only-C1/SD-CG/HFTN-CG
REM
REM
REM
REM
REM
REM ./C.cell (11c1c37f851c82e70ff6c80c92926a4b)
REM
REM compiler GCC version 9.2.1 20190827 (Red Hat 9.2.1-1)
REM options -cpp -mtune=generic -march=x86-64 -g -O0 -fpre-include=/usr/include/finclude/math-vector-fortran.h
REM seed -1004653168 -586879254 -1144313642 -10824811 -1777249204 1494514489 1514714598 613382711 -283566890 -55525659 586341031 -808708409 1794892696 186107040 1396349552 -159407077 102980457 1775183513 -393336128 -1927296785 1128154838 -1859640268 -1264594538 1629278422 -23112953 -1135915598 1453875741 77856049 -1302908397 -39339345 -973527055 1529158069 -1777263802
REM
CELL 1.54180   50.00000   50.00000   50.00000   90.00000   90.00000   90.00000
LATT -1
SFAC C  
C      1  0.5647070000000  0.4897150000000  0.5386290000000 1.0
C      1  0.5774860000000  0.4394680000000  0.5212420000000 1.0
C      1  0.5344840000000  0.4250270000000  0.4284750000000 1.0
C      1  0.5221500000000  0.5222190000000  0.4630580000000 1.0
C      1  0.4960860000000  0.5357600000000  0.5878200000000 1.0
C      1  0.3974990000000  0.5263200000000  0.5116600000000 1.0
C      1  0.5531090000000  0.5078330000000  0.5096840000000 1.0
C      1  0.5531010000000  0.5946310000000  0.4911100000000 1.0
C      1  0.4443650000000  0.4967190000000  0.4212250000000 1.0
C      1  0.4227850000000  0.5191880000000  0.5527870000000 1.0
C      1  0.5064760000000  0.4210420000000  0.4406460000000 1.0
C      1  0.4499450000000  0.5182040000000  0.4708770000000 1.0
C      1  0.5703890000000  0.5593820000000  0.4661990000000 1.0
C      1  0.6029330000000  0.4862090000000  0.5105080000000 1.0
C      1  0.5339570000000  0.4123870000000  0.5110520000000 1.0
C      1  0.5121460000000  0.4715450000000  0.5890230000000 1.0
C      1  0.6017280000000  0.5194690000000  0.5441540000000 1.0
C      1  0.4635150000000  0.4715080000000  0.6008450000000 1.0
C      1  0.4855250000000  0.5785610000000  0.5585270000000 1.0
C      1  0.4864820000000  0.4891790000000  0.4676790000000 1.0
C      1  0.4576770000000  0.4149160000000  0.4778060000000 1.0
C      1  0.5783790000000  0.5509430000000  0.4937470000000 1.0
C      1  0.5129340000000  0.4736240000000  0.5338960000000 1.0
C      1  0.4198640000000  0.5238580000000  0.4668020000000 1.0
C      1  0.4952110000000  0.4720680000000  0.5098100000000 1.0
C      1  0.5282220000000  0.5016130000000  0.4858170000000 1.0
C      1  0.4415650000000  0.4758290000000  0.5828020000000 1.0
C      1  0.4430490000000  0.5048820000000  0.5162520000000 1.0
C      1  0.4894510000000  0.4588210000000  0.6032730000000 1.0
C      1  0.5442810000000  0.5145630000000  0.4409270000000 1.0
C      1  0.5517810000000  0.4647460000000  0.5526410000000 1.0
C      1  0.5111280000000  0.4245730000000  0.5552640000000 1.0
C      1  0.4955570000000  0.4608710000000  0.4619560000000 1.0
C      1  0.4315070000000  0.4542490000000  0.5663350000000 1.0
C      1  0.5596960000000  0.5507350000000  0.5498350000000 1.0
C      1  0.5160220000000  0.4053200000000  0.4638380000000 1.0
C      1  0.4810220000000  0.4952610000000  0.5609950000000 1.0
C      1  0.4883890000000  0.4089630000000  0.5419570000000 1.0
C      1  0.4609640000000  0.5752180000000  0.4462180000000 1.0
C      1  0.5544280000000  0.5829260000000  0.4641880000000 1.0
C      1  0.5771010000000  0.5438480000000  0.4430580000000 1.0
C      1  0.5785840000000  0.4720250000000  0.4378660000000 1.0
C      1  0.5263390000000  0.5524120000000  0.5065260000000 1.0
C      1  0.5945590000000  0.4930390000000  0.5368870000000 1.0
C      1  0.5456340000000  0.4055340000000  0.4685280000000 1.0
C      1  0.5052040000000  0.4549460000000  0.5560250000000 1.0
C      1  0.5001050000000  0.4952300000000  0.4935100000000 1.0
C      1  0.5258850000000  0.4386770000000  0.4965980000000 1.0
C      1  0.5245110000000  0.5316890000000  0.5819470000000 1.0
C      1  0.4742420000000  0.4560230000000  0.4155070000000 1.0
C      1  0.4980710000000  0.3989390000000  0.4867900000000 1.0
C      1  0.4595200000000  0.5091550000000  0.5426770000000 1.0
C      1  0.4373830000000  0.4018690000000  0.4925530000000 1.0
C      1  0.4620680000000  0.5388000000000  0.5468920000000 1.0
C      1  0.4723390000000  0.5333410000000  0.4541740000000 1.0
C      1  0.4071220000000  0.4815770000000  0.5250600000000 1.0
C      1  0.4466970000000  0.5244060000000  0.4268200000000 1.0
C      1  0.4355130000000  0.5646920000000  0.4397720000000 1.0
C      1  0.4749100000000  0.5417600000000  0.5017010000000 1.0
C      1  0.4767180000000  0.4444690000000  0.4432010000000 1.0
C      1  0.4845620000000  0.5529770000000  0.4760840000000 1.0
C      1  0.5814080000000  0.4749080000000  0.4103260000000 1.0
C      1  0.4517680000000  0.5867710000000  0.5428890000000 1.0
C      1  0.5051250000000  0.6113310000000  0.4960410000000 1.0
C      1  0.5873510000000  0.5192500000000  0.4555580000000 1.0
C      1  0.5220370000000  0.4960190000000  0.4083390000000 1.0
C      1  0.4057280000000  0.4766350000000  0.4952710000000 1.0
C      1  0.4525660000000  0.5472290000000  0.5754110000000 1.0
C      1  0.5598980000000  0.5776240000000  0.5352070000000 1.0
C      1  0.5727710000000  0.5796000000000  0.5085170000000 1.0
C      1  0.5101550000000  0.5006120000000  0.5472860000000 1.0
C      1  0.5297540000000  0.5796650000000  0.5792730000000 1.0
C      1  0.5147940000000  0.5483040000000  0.4778400000000 1.0
C      1  0.5771010000000  0.4458260000000  0.4507950000000 1.0
C      1  0.5470840000000  0.5113350000000  0.4018060000000 1.0
C      1  0.5319610000000  0.5872730000000  0.5324600000000 1.0
C      1  0.5462240000000  0.4577830000000  0.4908420000000 1.0
C      1  0.4791380000000  0.5605510000000  0.5817770000000 1.0
C      1  0.4465890000000  0.5837160000000  0.4952560000000 1.0
C      1  0.5810080000000  0.5004890000000  0.4951610000000 1.0
C      1  0.5129740000000  0.3905920000000  0.5098620000000 1.0
C      1  0.5212650000000  0.4666880000000  0.4498650000000 1.0
C      1  0.4874680000000  0.5784390000000  0.4324950000000 1.0
C      1  0.5407200000000  0.4785450000000  0.4700840000000 1.0
C      1  0.4190050000000  0.4580440000000  0.5397470000000 1.0
C      1  0.5884560000000  0.4677080000000  0.4806020000000 1.0
C      1  0.5539860000000  0.5398420000000  0.4236410000000 1.0
C      1  0.4450280000000  0.4778740000000  0.4959070000000 1.0
C      1  0.4753080000000  0.4588680000000  0.5598460000000 1.0
C      1  0.5383460000000  0.4189090000000  0.5407680000000 1.0
C      1  0.4399420000000  0.4132020000000  0.5183620000000 1.0
C      1  0.5122630000000  0.5225430000000  0.5265540000000 1.0
C      1  0.4299750000000  0.5677380000000  0.5359810000000 1.0
C      1  0.5401720000000  0.5542860000000  0.5730640000000 1.0
C      1  0.5542810000000  0.5395190000000  0.5129870000000 1.0
C      1  0.4207150000000  0.5492670000000  0.5571870000000 1.0
C      1  0.4253120000000  0.5384930000000  0.4398630000000 1.0
C      1  0.4282030000000  0.5626930000000  0.5060680000000 1.0
C      1  0.4107310000000  0.5416920000000  0.4921380000000 1.0
C      1  0.4953600000000  0.5130800000000  0.4491010000000 1.0
C      1  0.5066810000000  0.5508590000000  0.5314330000000 1.0
C      1  0.4469020000000  0.4760870000000  0.4436400000000 1.0
C      1  0.5070770000000  0.5952430000000  0.4470910000000 1.0
C      1  0.4232260000000  0.4379040000000  0.5180100000000 1.0
C      1  0.5315460000000  0.5053850000000  0.5702030000000 1.0
C      1  0.5384580000000  0.4462330000000  0.4089880000000 1.0
C      1  0.5572990000000  0.4232790000000  0.4476370000000 1.0
C      1  0.5336470000000  0.5838410000000  0.4434180000000 1.0
C      1  0.4031660000000  0.5089790000000  0.5330590000000 1.0
C      1  0.4806680000000  0.4222050000000  0.4947910000000 1.0
C      1  0.5275530000000  0.5959030000000  0.5051920000000 1.0
C      1  0.5671660000000  0.4952600000000  0.4535010000000 1.0
C      1  0.4661690000000  0.4828370000000  0.4101310000000 1.0
C      1  0.4132490000000  0.4483100000000  0.4916540000000 1.0
C      1  0.5598000000000  0.5076710000000  0.5603920000000 1.0
C      1  0.4566600000000  0.4892470000000  0.4695820000000 1.0
C      1  0.4516730000000  0.5261770000000  0.4980860000000 1.0
C      1  0.4794090000000  0.5108610000000  0.5883480000000 1.0
C      1  0.4622120000000  0.4509830000000  0.5347580000000 1.0
C      1  0.4178560000000  0.4716680000000  0.4498610000000 1.0
C      1  0.4954460000000  0.5359440000000  0.4051080000000 1.0
C      1  0.4985680000000  0.4477490000000  0.4905470000000 1.0
C      1  0.4686150000000  0.4231140000000  0.5237710000000 1.0
C      1  0.5689540000000  0.4942640000000  0.3966540000000 1.0
C      1  0.5603740000000  0.4383610000000  0.5437300000000 1.0
C      1  0.4634950000000  0.4355980000000  0.5762780000000 1.0
C      1  0.4989710000000  0.5113200000000  0.4182290000000 1.0
C      1  0.5146310000000  0.5865570000000  0.5566670000000 1.0
C      1  0.4226450000000  0.4451720000000  0.4633500000000 1.0
C      1  0.4668680000000  0.4739570000000  0.5182760000000 1.0
C      1  0.5794620000000  0.5292830000000  0.5582860000000 1.0
C      1  0.4075150000000  0.4934000000000  0.4685410000000 1.0
C      1  0.4331820000000  0.5033570000000  0.5774060000000 1.0
C      1  0.5016120000000  0.6125470000000  0.4684680000000 1.0
C      1  0.5003280000000  0.4526240000000  0.4049410000000 1.0
C      1  0.5723970000000  0.4480720000000  0.4949430000000 1.0
C      1  0.4826680000000  0.6112210000000  0.5122120000000 1.0
C      1  0.5326760000000  0.5618390000000  0.4244520000000 1.0
C      1  0.4516520000000  0.5214490000000  0.5909170000000 1.0
C      1  0.5043820000000  0.5588150000000  0.4179860000000 1.0
C      1  0.4637100000000  0.5853850000000  0.4723620000000 1.0
C      1  0.4601310000000  0.5959880000000  0.5173280000000 1.0
C      1  0.5566610000000  0.4018390000000  0.4951480000000 1.0
C      1  0.5395350000000  0.4688870000000  0.5794270000000 1.0
C      1  0.4508140000000  0.4346820000000  0.4583550000000 1.0
C      1  0.5097810000000  0.4181460000000  0.5835450000000 1.0
C      1  0.4863210000000  0.4304260000000  0.5946450000000 1.0
C      1  0.5928930000000  0.5251950000000  0.4838470000000 1.0
C      1  0.5215540000000  0.4680160000000  0.4193410000000 1.0
C      1  0.4971130000000  0.3846380000000  0.5321170000000 1.0
C      1  0.4775960000000  0.5565300000000  0.5274410000000 1.0
END
