TITL C-950536-5891-442 -4.05498516207654e-06 125000 -456.556035624803 0 0 75 (C1) n - 1
REM
REM in /home/bkarasulu/work/CARBON/AIRSS/Generating-Clusters/EDIP-Nigel-Params/with-SteepDescent/Only-C1/SD-CG/HFTN-CG
REM
REM
REM
REM
REM
REM ./C.cell (11c1c37f851c82e70ff6c80c92926a4b)
REM
REM compiler GCC version 9.2.1 20190827 (Red Hat 9.2.1-1)
REM options -cpp -mtune=generic -march=x86-64 -g -O0 -fpre-include=/usr/include/finclude/math-vector-fortran.h
REM seed 1436874255 1246478239 1570916537 498657543 2009809650 941646374 -727328505 1678500395 589018190 -1476678556 2121411004 26459208 -1946565394 -1568694310 1955662954 345678489 -337353406 1516718982 -1935810316 -163152804 1721461493 1244955313 1951755304 -2047312515 -745421445 -671862459 -1381133302 2048064887 990068557 -911559583 -1176202104 152529170 -948289357
REM
CELL 1.54180   50.00000   50.00000   50.00000   90.00000   90.00000   90.00000
LATT -1
SFAC C  
C      1  0.4624600000000  0.5633830000000  0.5210900000000 1.0
C      1  0.5488850000000  0.4528730000000  0.5188690000000 1.0
C      1  0.5271860000000  0.5410280000000  0.5676830000000 1.0
C      1  0.4593160000000  0.5449480000000  0.5435840000000 1.0
C      1  0.4519910000000  0.4340440000000  0.4776850000000 1.0
C      1  0.5184120000000  0.4794930000000  0.5009530000000 1.0
C      1  0.5583800000000  0.5584780000000  0.4934760000000 1.0
C      1  0.4823930000000  0.5684410000000  0.4661500000000 1.0
C      1  0.4441880000000  0.5116730000000  0.5189100000000 1.0
C      1  0.5188620000000  0.4999830000000  0.5216600000000 1.0
C      1  0.4625350000000  0.5401080000000  0.4997850000000 1.0
C      1  0.4290120000000  0.4628870000000  0.5177340000000 1.0
C      1  0.4993360000000  0.5205770000000  0.5208770000000 1.0
C      1  0.4932900000000  0.5216040000000  0.4405090000000 1.0
C      1  0.4624650000000  0.4900210000000  0.5317710000000 1.0
C      1  0.5563630000000  0.4916410000000  0.4648100000000 1.0
C      1  0.4209390000000  0.4935770000000  0.5114220000000 1.0
C      1  0.4742210000000  0.4631400000000  0.4401520000000 1.0
C      1  0.4599390000000  0.5522800000000  0.4719100000000 1.0
C      1  0.4929180000000  0.5110520000000  0.4710430000000 1.0
C      1  0.4360620000000  0.4414470000000  0.4553050000000 1.0
C      1  0.4686750000000  0.4948440000000  0.4799300000000 1.0
C      1  0.5514040000000  0.5190350000000  0.4666810000000 1.0
C      1  0.5008860000000  0.4828610000000  0.5611750000000 1.0
C      1  0.4478140000000  0.4663400000000  0.5418210000000 1.0
C      1  0.5773170000000  0.5146710000000  0.5074300000000 1.0
C      1  0.4211210000000  0.4824580000000  0.4850020000000 1.0
C      1  0.5438750000000  0.4682920000000  0.5421980000000 1.0
C      1  0.5681630000000  0.5190270000000  0.5551280000000 1.0
C      1  0.5647760000000  0.5322120000000  0.4882000000000 1.0
C      1  0.4345870000000  0.5136200000000  0.4531070000000 1.0
C      1  0.5298050000000  0.5829200000000  0.4639330000000 1.0
C      1  0.5403520000000  0.5288460000000  0.4409940000000 1.0
C      1  0.4927850000000  0.5331930000000  0.4952160000000 1.0
C      1  0.4472070000000  0.4659690000000  0.4470130000000 1.0
C      1  0.5092300000000  0.5612250000000  0.4993280000000 1.0
C      1  0.5347120000000  0.5027120000000  0.4258100000000 1.0
C      1  0.4776030000000  0.5011240000000  0.5570730000000 1.0
C      1  0.4943790000000  0.4589760000000  0.4778520000000 1.0
C      1  0.5466990000000  0.4796230000000  0.4411200000000 1.0
C      1  0.5140510000000  0.5426400000000  0.4407790000000 1.0
C      1  0.5666130000000  0.4484710000000  0.4756750000000 1.0
C      1  0.5103670000000  0.4344120000000  0.5545450000000 1.0
C      1  0.5081950000000  0.5670230000000  0.4552670000000 1.0
C      1  0.5051190000000  0.4983570000000  0.4251710000000 1.0
C      1  0.4932260000000  0.4100850000000  0.4864580000000 1.0
C      1  0.4922160000000  0.4547720000000  0.5628310000000 1.0
C      1  0.4524180000000  0.4545510000000  0.4992560000000 1.0
C      1  0.5353440000000  0.5732910000000  0.4895230000000 1.0
C      1  0.5281320000000  0.4416440000000  0.4993760000000 1.0
C      1  0.4425340000000  0.4893600000000  0.4658670000000 1.0
C      1  0.5075780000000  0.4214050000000  0.5072960000000 1.0
C      1  0.4678550000000  0.5073650000000  0.5843190000000 1.0
C      1  0.4517410000000  0.5351210000000  0.4494930000000 1.0
C      1  0.4982210000000  0.5380350000000  0.5724820000000 1.0
C      1  0.5706680000000  0.4607480000000  0.5010020000000 1.0
C      1  0.4813210000000  0.4313530000000  0.4726570000000 1.0
C      1  0.5260540000000  0.4591860000000  0.4491040000000 1.0
C      1  0.5181410000000  0.4909380000000  0.4728430000000 1.0
C      1  0.4363140000000  0.5291750000000  0.5404090000000 1.0
C      1  0.5394900000000  0.4409750000000  0.4712010000000 1.0
C      1  0.5414890000000  0.5150080000000  0.5618980000000 1.0
C      1  0.5269630000000  0.4910030000000  0.5482700000000 1.0
C      1  0.4875020000000  0.5783140000000  0.5252880000000 1.0
C      1  0.5004920000000  0.4719450000000  0.4369580000000 1.0
C      1  0.5324480000000  0.5633600000000  0.5505780000000 1.0
C      1  0.5112060000000  0.5618710000000  0.5317390000000 1.0
C      1  0.4681740000000  0.4465180000000  0.5481980000000 1.0
C      1  0.4851040000000  0.5289080000000  0.5469730000000 1.0
C      1  0.4692770000000  0.5326040000000  0.4281620000000 1.0
C      1  0.4952160000000  0.4231640000000  0.5330320000000 1.0
C      1  0.4879900000000  0.5233270000000  0.5945410000000 1.0
C      1  0.4757780000000  0.4737830000000  0.4990480000000 1.0
C      1  0.5826540000000  0.5233270000000  0.5330880000000 1.0
C      1  0.5795630000000  0.4873320000000  0.5022850000000 1.0
END
