TITL C-950532-2784-204 2.12793399995356e-06 125000 -637.3358168913 0 0 102 (C1) n - 1
REM
REM in /home/bkarasulu/work/CARBON/AIRSS/Generating-Clusters/EDIP-Nigel-Params/with-SteepDescent/Only-C1/SD-CG/HFTN-CG
REM
REM
REM
REM
REM
REM ./C.cell (11c1c37f851c82e70ff6c80c92926a4b)
REM
REM compiler GCC version 9.2.1 20190827 (Red Hat 9.2.1-1)
REM options -cpp -mtune=generic -march=x86-64 -g -O0 -fpre-include=/usr/include/finclude/math-vector-fortran.h
REM seed 232175533 -157847278 1337877911 388749580 2058644208 918337351 -1186483196 1009777600 -1895393100 -1125572324 -734086230 -1281285489 1896027265 -1885269882 -635925119 -1626186048 1403898236 582029546 2047339103 1449975131 -984434350 -787497491 -481362344 -489226971 -1313070912 -1768850583 -2129582992 598774928 -172535655 1604510434 1217070391 -1895263573 -907865570
REM
CELL 1.54180   50.00000   50.00000   50.00000   90.00000   90.00000   90.00000
LATT -1
SFAC C  
C      1  0.4620320000000  0.4233410000000  0.5276710000000 1.0
C      1  0.4356410000000  0.5558330000000  0.5202750000000 1.0
C      1  0.5529230000000  0.4209770000000  0.5078120000000 1.0
C      1  0.4867970000000  0.5102430000000  0.5820320000000 1.0
C      1  0.4476460000000  0.4261870000000  0.5038740000000 1.0
C      1  0.4676420000000  0.4924050000000  0.4395710000000 1.0
C      1  0.4968540000000  0.5349050000000  0.5677610000000 1.0
C      1  0.5046390000000  0.5423750000000  0.4849250000000 1.0
C      1  0.5040600000000  0.4266350000000  0.5047030000000 1.0
C      1  0.4632020000000  0.4600010000000  0.5724000000000 1.0
C      1  0.5505240000000  0.5483480000000  0.5435530000000 1.0
C      1  0.5134800000000  0.5243170000000  0.5456970000000 1.0
C      1  0.5466820000000  0.5589250000000  0.4507180000000 1.0
C      1  0.5034330000000  0.5713320000000  0.4738070000000 1.0
C      1  0.4831990000000  0.5380900000000  0.5052070000000 1.0
C      1  0.5804010000000  0.5046660000000  0.4808580000000 1.0
C      1  0.4865490000000  0.4387340000000  0.5250080000000 1.0
C      1  0.5442170000000  0.5326250000000  0.4625760000000 1.0
C      1  0.4190580000000  0.5356460000000  0.5046310000000 1.0
C      1  0.5412090000000  0.4311400000000  0.4264260000000 1.0
C      1  0.4210550000000  0.4630930000000  0.5197710000000 1.0
C      1  0.5029470000000  0.4415360000000  0.5496250000000 1.0
C      1  0.5772320000000  0.4757610000000  0.4748960000000 1.0
C      1  0.5402120000000  0.5277960000000  0.5931150000000 1.0
C      1  0.5680710000000  0.4809880000000  0.5680370000000 1.0
C      1  0.4389820000000  0.5001700000000  0.5670440000000 1.0
C      1  0.5275040000000  0.5009640000000  0.5574480000000 1.0
C      1  0.4278720000000  0.4888620000000  0.4784290000000 1.0
C      1  0.4421560000000  0.5106450000000  0.4371000000000 1.0
C      1  0.5001580000000  0.5137880000000  0.5208270000000 1.0
C      1  0.4519220000000  0.5755500000000  0.5051710000000 1.0
C      1  0.4894290000000  0.4482390000000  0.4303970000000 1.0
C      1  0.5040470000000  0.4742010000000  0.4710330000000 1.0
C      1  0.4425300000000  0.5452090000000  0.4681170000000 1.0
C      1  0.4907620000000  0.4274460000000  0.4774780000000 1.0
C      1  0.5789450000000  0.4845070000000  0.5415130000000 1.0
C      1  0.5501030000000  0.4368350000000  0.4733550000000 1.0
C      1  0.4553920000000  0.5285920000000  0.4918650000000 1.0
C      1  0.5186830000000  0.5852580000000  0.5193360000000 1.0
C      1  0.5062310000000  0.5498510000000  0.4251440000000 1.0
C      1  0.4915550000000  0.4600680000000  0.5705650000000 1.0
C      1  0.5206840000000  0.5675830000000  0.4458670000000 1.0
C      1  0.4519680000000  0.5408940000000  0.5398320000000 1.0
C      1  0.5041090000000  0.4462260000000  0.4572530000000 1.0
C      1  0.5409350000000  0.4969490000000  0.4177160000000 1.0
C      1  0.5092500000000  0.5742140000000  0.5448920000000 1.0
C      1  0.5424190000000  0.4580280000000  0.5387620000000 1.0
C      1  0.4834530000000  0.4902340000000  0.5276380000000 1.0
C      1  0.4950690000000  0.5244620000000  0.4628560000000 1.0
C      1  0.4776950000000  0.5714740000000  0.4591700000000 1.0
C      1  0.4509500000000  0.5732210000000  0.4745180000000 1.0
C      1  0.4809530000000  0.4959170000000  0.4670820000000 1.0
C      1  0.5545810000000  0.4564800000000  0.5656390000000 1.0
C      1  0.4898430000000  0.4969620000000  0.4183900000000 1.0
C      1  0.5523180000000  0.5093380000000  0.5734410000000 1.0
C      1  0.5759270000000  0.5195160000000  0.5058050000000 1.0
C      1  0.5590890000000  0.4488500000000  0.5151620000000 1.0
C      1  0.4131020000000  0.4868020000000  0.5050480000000 1.0
C      1  0.4474880000000  0.4441770000000  0.4580600000000 1.0
C      1  0.5279990000000  0.5035790000000  0.5068490000000 1.0
C      1  0.5272140000000  0.4142440000000  0.5193970000000 1.0
C      1  0.4210930000000  0.4624160000000  0.5473440000000 1.0
C      1  0.5640030000000  0.4953850000000  0.4373900000000 1.0
C      1  0.4786520000000  0.5671430000000  0.5157340000000 1.0
C      1  0.5206870000000  0.5173540000000  0.4514470000000 1.0
C      1  0.4228950000000  0.4386250000000  0.5065250000000 1.0
C      1  0.4140060000000  0.5356480000000  0.4723170000000 1.0
C      1  0.4405020000000  0.5117270000000  0.5388440000000 1.0
C      1  0.4834520000000  0.4651900000000  0.5137910000000 1.0
C      1  0.5276690000000  0.4803110000000  0.4873960000000 1.0
C      1  0.5385300000000  0.5710200000000  0.5046570000000 1.0
C      1  0.4625400000000  0.4344660000000  0.4805840000000 1.0
C      1  0.4556370000000  0.4989750000000  0.4883450000000 1.0
C      1  0.4971830000000  0.5862230000000  0.5004610000000 1.0
C      1  0.5041990000000  0.4872490000000  0.5741970000000 1.0
C      1  0.4149100000000  0.5113170000000  0.5215280000000 1.0
C      1  0.5006250000000  0.4697830000000  0.4121610000000 1.0
C      1  0.4812130000000  0.5448440000000  0.4431780000000 1.0
C      1  0.4593620000000  0.5077050000000  0.5842260000000 1.0
C      1  0.4287790000000  0.4631620000000  0.4654550000000 1.0
C      1  0.4184620000000  0.5088020000000  0.4583720000000 1.0
C      1  0.5313620000000  0.4348060000000  0.4522010000000 1.0
C      1  0.5770990000000  0.5469120000000  0.5031840000000 1.0
C      1  0.5362440000000  0.5344200000000  0.4932120000000 1.0
C      1  0.5161230000000  0.5160500000000  0.4225790000000 1.0
C      1  0.5451680000000  0.4473190000000  0.4052620000000 1.0
C      1  0.4618200000000  0.4491490000000  0.4347250000000 1.0
C      1  0.4378920000000  0.4714270000000  0.5674100000000 1.0
C      1  0.4518280000000  0.5379880000000  0.4402810000000 1.0
C      1  0.4767830000000  0.5546990000000  0.5529280000000 1.0
C      1  0.5258440000000  0.4240290000000  0.5471170000000 1.0
C      1  0.5209230000000  0.5466850000000  0.5834670000000 1.0
C      1  0.5796060000000  0.5112100000000  0.5333640000000 1.0
C      1  0.5775910000000  0.4719390000000  0.4462840000000 1.0
C      1  0.5300830000000  0.4707560000000  0.4099840000000 1.0
C      1  0.4552670000000  0.4911630000000  0.5186340000000 1.0
C      1  0.5310240000000  0.5625500000000  0.5603400000000 1.0
C      1  0.5532340000000  0.4623600000000  0.4881980000000 1.0
C      1  0.5669360000000  0.5273200000000  0.5542410000000 1.0
C      1  0.5414430000000  0.4890990000000  0.5333070000000 1.0
C      1  0.5596390000000  0.5608420000000  0.5193510000000 1.0
C      1  0.5686660000000  0.5167000000000  0.4568330000000 1.0
END
