TITL C-950529-3362-108 -3.44220919025773e-06 125000 -432.219972802201 0 0 71 (C1) n - 1
REM
REM in /home/bkarasulu/work/CARBON/AIRSS/Generating-Clusters/EDIP-Nigel-Params/with-SteepDescent/Only-C1/SD-CG/HFTN-CG
REM
REM
REM
REM
REM
REM ./C.cell (11c1c37f851c82e70ff6c80c92926a4b)
REM
REM compiler GCC version 9.2.1 20190827 (Red Hat 9.2.1-1)
REM options -cpp -mtune=generic -march=x86-64 -g -O0 -fpre-include=/usr/include/finclude/math-vector-fortran.h
REM seed -1129795883 1828844776 -1053074732 1171598349 -1619597841 -466302300 -1184548670 -324935614 -188613287 -988768545 -685288322 -169396644 -828169066 -1734381669 -1856831063 -1129452431 -1875429039 -245974256 597606704 -1376532332 182002534 -960492010 582792460 -824433919 1916363049 -875105582 -199508620 -1434836602 1225459479 -1093787844 -1375268011 -1675401208 684450884
REM
CELL 1.54180   50.00000   50.00000   50.00000   90.00000   90.00000   90.00000
LATT -1
SFAC C  
C      1  0.4288950000000  0.4546750000000  0.4829880000000 1.0
C      1  0.4712490000000  0.4245880000000  0.4599750000000 1.0
C      1  0.4530160000000  0.4454870000000  0.5222210000000 1.0
C      1  0.4309620000000  0.4628720000000  0.5126730000000 1.0
C      1  0.4759890000000  0.4997080000000  0.4924000000000 1.0
C      1  0.4693520000000  0.4727740000000  0.4798110000000 1.0
C      1  0.5534340000000  0.5292950000000  0.4515830000000 1.0
C      1  0.4850160000000  0.5462750000000  0.5242980000000 1.0
C      1  0.4773840000000  0.5393090000000  0.5520760000000 1.0
C      1  0.5122490000000  0.5312190000000  0.4871780000000 1.0
C      1  0.4968620000000  0.5779730000000  0.4923520000000 1.0
C      1  0.5043530000000  0.5588720000000  0.4473360000000 1.0
C      1  0.4552450000000  0.5194910000000  0.4901470000000 1.0
C      1  0.4910440000000  0.4557490000000  0.5606720000000 1.0
C      1  0.5076270000000  0.4923880000000  0.4214530000000 1.0
C      1  0.5153470000000  0.4474520000000  0.5468880000000 1.0
C      1  0.5480160000000  0.5505630000000  0.4691510000000 1.0
C      1  0.5761280000000  0.5267090000000  0.5366710000000 1.0
C      1  0.5481710000000  0.4861990000000  0.5512800000000 1.0
C      1  0.5179470000000  0.5574690000000  0.4741410000000 1.0
C      1  0.4959260000000  0.5743990000000  0.5222510000000 1.0
C      1  0.5156080000000  0.4347190000000  0.4365680000000 1.0
C      1  0.4852880000000  0.4765570000000  0.4337230000000 1.0
C      1  0.4989290000000  0.4358990000000  0.4605580000000 1.0
C      1  0.4916990000000  0.5419110000000  0.5755170000000 1.0
C      1  0.5599570000000  0.4957250000000  0.5026110000000 1.0
C      1  0.5331100000000  0.4841040000000  0.4345850000000 1.0
C      1  0.4923460000000  0.4834710000000  0.5689600000000 1.0
C      1  0.5532610000000  0.5112220000000  0.5641600000000 1.0
C      1  0.4993650000000  0.5204610000000  0.4259940000000 1.0
C      1  0.5065990000000  0.5012440000000  0.5242930000000 1.0
C      1  0.5022640000000  0.4216430000000  0.5080010000000 1.0
C      1  0.4674860000000  0.4442750000000  0.4957120000000 1.0
C      1  0.4471260000000  0.4798170000000  0.4605910000000 1.0
C      1  0.5467640000000  0.4592210000000  0.4695970000000 1.0
C      1  0.5159040000000  0.5432340000000  0.4263820000000 1.0
C      1  0.5624550000000  0.5487200000000  0.4948830000000 1.0
C      1  0.4930340000000  0.4659780000000  0.4614290000000 1.0
C      1  0.4710730000000  0.5656290000000  0.4816060000000 1.0
C      1  0.5153710000000  0.4820080000000  0.4753030000000 1.0
C      1  0.5215350000000  0.5752370000000  0.5357100000000 1.0
C      1  0.4758960000000  0.5533190000000  0.4544880000000 1.0
C      1  0.4253490000000  0.5300760000000  0.5474330000000 1.0
C      1  0.5351290000000  0.5491570000000  0.5300030000000 1.0
C      1  0.5583190000000  0.4861990000000  0.4750690000000 1.0
C      1  0.5701060000000  0.5226770000000  0.5086800000000 1.0
C      1  0.5569080000000  0.4764840000000  0.5249770000000 1.0
C      1  0.5127220000000  0.4997060000000  0.5534440000000 1.0
C      1  0.5102240000000  0.5301010000000  0.5160710000000 1.0
C      1  0.4295540000000  0.5390390000000  0.5204590000000 1.0
C      1  0.5347300000000  0.4554320000000  0.4423540000000 1.0
C      1  0.5538780000000  0.5379030000000  0.5516850000000 1.0
C      1  0.4808490000000  0.5189320000000  0.4489420000000 1.0
C      1  0.4609770000000  0.5461340000000  0.5035860000000 1.0
C      1  0.4310720000000  0.5134470000000  0.5051320000000 1.0
C      1  0.4671140000000  0.4943240000000  0.5740390000000 1.0
C      1  0.5518760000000  0.5678590000000  0.5130760000000 1.0
C      1  0.5475230000000  0.5020610000000  0.4534230000000 1.0
C      1  0.5121520000000  0.5276830000000  0.5636170000000 1.0
C      1  0.4474800000000  0.4298450000000  0.4764120000000 1.0
C      1  0.4354360000000  0.4906780000000  0.5228920000000 1.0
C      1  0.5041590000000  0.4492420000000  0.5194150000000 1.0
C      1  0.5402420000000  0.4404020000000  0.4912130000000 1.0
C      1  0.4620060000000  0.4945870000000  0.4398700000000 1.0
C      1  0.5432190000000  0.4503090000000  0.5199340000000 1.0
C      1  0.5156790000000  0.4258150000000  0.4841360000000 1.0
C      1  0.4682380000000  0.4516400000000  0.5448520000000 1.0
C      1  0.4977330000000  0.5095560000000  0.4743170000000 1.0
C      1  0.4415820000000  0.5042530000000  0.5718430000000 1.0
C      1  0.4251400000000  0.5011990000000  0.5484630000000 1.0
C      1  0.5113240000000  0.4773980000000  0.5064460000000 1.0
END
