TITL C-950522-5749-743 -1.18394412237274e-07 125000 -748.341659619404 0 0 121 (C1) n - 1
REM
REM in /home/bkarasulu/work/CARBON/AIRSS/Generating-Clusters/EDIP-Nigel-Params/with-SteepDescent/Only-C1/SD-CG/HFTN-CG
REM
REM
REM
REM
REM
REM ./C.cell (11c1c37f851c82e70ff6c80c92926a4b)
REM
REM compiler GCC version 9.2.1 20190827 (Red Hat 9.2.1-1)
REM options -cpp -mtune=generic -march=x86-64 -g -O0 -fpre-include=/usr/include/finclude/math-vector-fortran.h
REM seed 345325979 550363903 -1506111745 -230432857 2058002209 -227918023 -1714783845 -548066309 -208059315 60710705 -1798046515 -1664866389 772138812 20042828 553942882 1193984280 1651968431 588408586 -1573590961 1530412554 -1564747342 327964586 -227024472 185399682 1053628819 -480389626 -819978751 818796109 1477416212 -1730605395 1397511938 1967882310 -456155594
REM
CELL 1.54180   50.00000   50.00000   50.00000   90.00000   90.00000   90.00000
LATT -1
SFAC C  
C      1  0.5301080000000  0.4076810000000  0.5383400000000 1.0
C      1  0.5102660000000  0.5931180000000  0.4817900000000 1.0
C      1  0.5702130000000  0.4740120000000  0.4569510000000 1.0
C      1  0.4146920000000  0.5103170000000  0.5594010000000 1.0
C      1  0.5650450000000  0.4255770000000  0.5122530000000 1.0
C      1  0.4827460000000  0.4120010000000  0.5289710000000 1.0
C      1  0.4690470000000  0.4275930000000  0.4254040000000 1.0
C      1  0.4720230000000  0.5394540000000  0.4556160000000 1.0
C      1  0.5035460000000  0.5022170000000  0.5474510000000 1.0
C      1  0.5393260000000  0.5261820000000  0.5262690000000 1.0
C      1  0.5682530000000  0.5395500000000  0.4491190000000 1.0
C      1  0.5794590000000  0.4890930000000  0.5244710000000 1.0
C      1  0.4770750000000  0.5106270000000  0.5213650000000 1.0
C      1  0.4924530000000  0.5585710000000  0.5704120000000 1.0
C      1  0.5852320000000  0.5310740000000  0.4702930000000 1.0
C      1  0.5595590000000  0.4489220000000  0.4678750000000 1.0
C      1  0.4911790000000  0.4544010000000  0.4662400000000 1.0
C      1  0.4658010000000  0.4603700000000  0.4239330000000 1.0
C      1  0.4421920000000  0.4185360000000  0.4666120000000 1.0
C      1  0.4727030000000  0.4432010000000  0.5766610000000 1.0
C      1  0.5823400000000  0.5353810000000  0.5473700000000 1.0
C      1  0.5096470000000  0.4444380000000  0.4215880000000 1.0
C      1  0.4912010000000  0.4159910000000  0.4704200000000 1.0
C      1  0.5114100000000  0.4688170000000  0.5049250000000 1.0
C      1  0.4825310000000  0.5411600000000  0.4833480000000 1.0
C      1  0.5198690000000  0.4194590000000  0.4750110000000 1.0
C      1  0.4949400000000  0.4213500000000  0.4152160000000 1.0
C      1  0.5101340000000  0.5415710000000  0.4915780000000 1.0
C      1  0.5021830000000  0.4936710000000  0.4421510000000 1.0
C      1  0.5526530000000  0.5234050000000  0.4976330000000 1.0
C      1  0.5045250000000  0.5882810000000  0.4536990000000 1.0
C      1  0.4305510000000  0.5200210000000  0.4430430000000 1.0
C      1  0.5833170000000  0.4715630000000  0.5016290000000 1.0
C      1  0.5236640000000  0.4922120000000  0.4036820000000 1.0
C      1  0.4931250000000  0.4745660000000  0.5529580000000 1.0
C      1  0.4610830000000  0.5841500000000  0.5075200000000 1.0
C      1  0.5275820000000  0.4249450000000  0.5035980000000 1.0
C      1  0.5186760000000  0.4635520000000  0.4759280000000 1.0
C      1  0.4561540000000  0.5212560000000  0.5812590000000 1.0
C      1  0.5135910000000  0.4521950000000  0.5468140000000 1.0
C      1  0.4265570000000  0.4968250000000  0.5169170000000 1.0
C      1  0.4362700000000  0.5383450000000  0.4994810000000 1.0
C      1  0.5687950000000  0.4757280000000  0.5481720000000 1.0
C      1  0.4985500000000  0.4288050000000  0.5718880000000 1.0
C      1  0.5521220000000  0.5395370000000  0.5507850000000 1.0
C      1  0.5220260000000  0.4914390000000  0.4649070000000 1.0
C      1  0.4734950000000  0.4734550000000  0.4817660000000 1.0
C      1  0.5901360000000  0.5326020000000  0.4980130000000 1.0
C      1  0.4208660000000  0.4755210000000  0.4635480000000 1.0
C      1  0.4316350000000  0.4622250000000  0.5471250000000 1.0
C      1  0.4207120000000  0.4576340000000  0.4886030000000 1.0
C      1  0.4671090000000  0.5400090000000  0.5086550000000 1.0
C      1  0.4887890000000  0.5245850000000  0.3978860000000 1.0
C      1  0.4924700000000  0.5498350000000  0.5327770000000 1.0
C      1  0.5364240000000  0.4356790000000  0.4556740000000 1.0
C      1  0.5373660000000  0.4791270000000  0.5155990000000 1.0
C      1  0.5626200000000  0.4883590000000  0.4322460000000 1.0
C      1  0.5005300000000  0.4888890000000  0.5940960000000 1.0
C      1  0.5466260000000  0.5630400000000  0.4636400000000 1.0
C      1  0.5436650000000  0.4841060000000  0.5866480000000 1.0
C      1  0.5029330000000  0.4096170000000  0.5496330000000 1.0
C      1  0.5360140000000  0.5186520000000  0.4080880000000 1.0
C      1  0.5136450000000  0.5379330000000  0.4065860000000 1.0
C      1  0.4065290000000  0.5144500000000  0.5309620000000 1.0
C      1  0.4900480000000  0.5913130000000  0.5048840000000 1.0
C      1  0.5536330000000  0.4255940000000  0.5386860000000 1.0
C      1  0.5054630000000  0.4415260000000  0.5187210000000 1.0
C      1  0.4598430000000  0.5103530000000  0.4189940000000 1.0
C      1  0.5303310000000  0.5853630000000  0.5352350000000 1.0
C      1  0.4180050000000  0.5057790000000  0.4658520000000 1.0
C      1  0.5390990000000  0.5865820000000  0.4855790000000 1.0
C      1  0.5485580000000  0.4943000000000  0.4893990000000 1.0
C      1  0.4553320000000  0.5732910000000  0.5352270000000 1.0
C      1  0.4441170000000  0.5813440000000  0.4853190000000 1.0
C      1  0.5418820000000  0.5691030000000  0.5566710000000 1.0
C      1  0.5971780000000  0.5574870000000  0.5480740000000 1.0
C      1  0.4317910000000  0.5574950000000  0.4771420000000 1.0
C      1  0.5449020000000  0.4736540000000  0.4136580000000 1.0
C      1  0.4515070000000  0.4990490000000  0.5349500000000 1.0
C      1  0.4752970000000  0.5817530000000  0.5564830000000 1.0
C      1  0.5878900000000  0.5178830000000  0.5236930000000 1.0
C      1  0.4516480000000  0.4917680000000  0.5840400000000 1.0
C      1  0.4751710000000  0.4733140000000  0.5873870000000 1.0
C      1  0.4271320000000  0.4839220000000  0.5683820000000 1.0
C      1  0.5053320000000  0.5131250000000  0.5762710000000 1.0
C      1  0.4831580000000  0.5319470000000  0.5802580000000 1.0
C      1  0.5326750000000  0.4996870000000  0.5380690000000 1.0
C      1  0.5563500000000  0.5178590000000  0.4311010000000 1.0
C      1  0.4575890000000  0.4887150000000  0.4629320000000 1.0
C      1  0.5272420000000  0.5720830000000  0.4421410000000 1.0
C      1  0.4387880000000  0.5278480000000  0.5585600000000 1.0
C      1  0.5456800000000  0.4541520000000  0.5443430000000 1.0
C      1  0.4851770000000  0.5594940000000  0.4386910000000 1.0
C      1  0.4672090000000  0.4194090000000  0.4541150000000 1.0
C      1  0.5111630000000  0.5503380000000  0.4321240000000 1.0
C      1  0.4683330000000  0.4699390000000  0.5355240000000 1.0
C      1  0.5841580000000  0.4875240000000  0.4776330000000 1.0
C      1  0.5003300000000  0.5817830000000  0.5315260000000 1.0
C      1  0.5518000000000  0.4943530000000  0.5621770000000 1.0
C      1  0.5133830000000  0.5359140000000  0.5189290000000 1.0
C      1  0.5314080000000  0.5303250000000  0.5780600000000 1.0
C      1  0.5376980000000  0.4463860000000  0.4187270000000 1.0
C      1  0.4934200000000  0.4959690000000  0.3941700000000 1.0
C      1  0.5351980000000  0.5384280000000  0.4781840000000 1.0
C      1  0.4749760000000  0.5088040000000  0.4456650000000 1.0
C      1  0.4882410000000  0.4889940000000  0.5015280000000 1.0
C      1  0.5222120000000  0.5591460000000  0.5768310000000 1.0
C      1  0.4932480000000  0.4641640000000  0.4375220000000 1.0
C      1  0.4252550000000  0.4307890000000  0.4833670000000 1.0
C      1  0.4169560000000  0.5426010000000  0.5226180000000 1.0
C      1  0.4505050000000  0.4376510000000  0.5559180000000 1.0
C      1  0.5463020000000  0.5871820000000  0.5124050000000 1.0
C      1  0.4337270000000  0.5544000000000  0.5441310000000 1.0
C      1  0.4426920000000  0.5451210000000  0.4522890000000 1.0
C      1  0.5639820000000  0.4494860000000  0.4966780000000 1.0
C      1  0.4638350000000  0.4328920000000  0.5301530000000 1.0
C      1  0.4448870000000  0.4683930000000  0.4439390000000 1.0
C      1  0.4202920000000  0.4678500000000  0.5163410000000 1.0
C      1  0.4663790000000  0.4837100000000  0.4034650000000 1.0
C      1  0.5234280000000  0.4753510000000  0.6019830000000 1.0
C      1  0.4321850000000  0.5104420000000  0.4907640000000 1.0
END
