TITL C-951336-9012-97 -2.3038828071677e-06 125000 -1161.9863403057 0 0 186 (C1) n - 1
REM
REM in /home/bkarasulu/work/CARBON/AIRSS/Generating-Clusters/EDIP-Nigel-Params/with-SteepDescent/Only-C1/SD-CG/HFTN-CG
REM
REM
REM
REM
REM
REM ./C.cell (11c1c37f851c82e70ff6c80c92926a4b)
REM
REM compiler GCC version 9.2.1 20190827 (Red Hat 9.2.1-1)
REM options -cpp -mtune=generic -march=x86-64 -g -O0 -fpre-include=/usr/include/finclude/math-vector-fortran.h
REM seed 925696770 -130513328 1978747042 -1464558548 -740252712 -1634368254 -1519452768 -876976564 -525573905 1271952429 860925914 -1117463700 -2044988334 -1590390722 1878740878 394019500 -140894566 1278551636 538454218 -1150913621 -619947501 590650660 -689624539 -1497665968 918640720 -81454172 -987906585 1387636128 -1548485931 -107963858 -1099493082 -175180267 -956862685
REM
CELL 1.54180   50.00000   50.00000   50.00000   90.00000   90.00000   90.00000
LATT -1
SFAC C  
C      1  0.4844800000000  0.4032000000000  0.5793290000000 1.0
C      1  0.4237090000000  0.4216470000000  0.5271710000000 1.0
C      1  0.5345620000000  0.4397740000000  0.4139020000000 1.0
C      1  0.4206960000000  0.5241750000000  0.5824640000000 1.0
C      1  0.5337410000000  0.4151610000000  0.5975680000000 1.0
C      1  0.5677650000000  0.4606760000000  0.4354210000000 1.0
C      1  0.5298370000000  0.5660640000000  0.5867080000000 1.0
C      1  0.5126020000000  0.5213990000000  0.4320260000000 1.0
C      1  0.4037740000000  0.4386520000000  0.5384170000000 1.0
C      1  0.5596840000000  0.5908020000000  0.4977010000000 1.0
C      1  0.4465930000000  0.4940080000000  0.5475620000000 1.0
C      1  0.4223850000000  0.5293260000000  0.4220630000000 1.0
C      1  0.4188810000000  0.4707820000000  0.4295020000000 1.0
C      1  0.5144930000000  0.4158850000000  0.4605370000000 1.0
C      1  0.5538580000000  0.4991850000000  0.4861780000000 1.0
C      1  0.4109770000000  0.4923740000000  0.5150360000000 1.0
C      1  0.5854340000000  0.5645240000000  0.5345700000000 1.0
C      1  0.5371510000000  0.4602800000000  0.4355970000000 1.0
C      1  0.5297870000000  0.5359280000000  0.5319550000000 1.0
C      1  0.4185000000000  0.4951040000000  0.5912890000000 1.0
C      1  0.4762190000000  0.6136400000000  0.4665110000000 1.0
C      1  0.4970310000000  0.5277140000000  0.4059580000000 1.0
C      1  0.4432870000000  0.4834400000000  0.6025600000000 1.0
C      1  0.4752080000000  0.4500340000000  0.5916870000000 1.0
C      1  0.4625850000000  0.5188980000000  0.5543860000000 1.0
C      1  0.5307470000000  0.4435320000000  0.4613170000000 1.0
C      1  0.3985310000000  0.5235050000000  0.4793150000000 1.0
C      1  0.6155780000000  0.5527870000000  0.4855190000000 1.0
C      1  0.4889630000000  0.5135490000000  0.5388220000000 1.0
C      1  0.4645640000000  0.3989290000000  0.5286300000000 1.0
C      1  0.5446660000000  0.5788870000000  0.5648460000000 1.0
C      1  0.4921390000000  0.4124780000000  0.4402810000000 1.0
C      1  0.4419480000000  0.5378220000000  0.5950890000000 1.0
C      1  0.5706240000000  0.4699670000000  0.5303490000000 1.0
C      1  0.4274170000000  0.5005250000000  0.4293620000000 1.0
C      1  0.4872780000000  0.4668130000000  0.4985040000000 1.0
C      1  0.5177970000000  0.5188400000000  0.5846930000000 1.0
C      1  0.4477060000000  0.4547620000000  0.6001230000000 1.0
C      1  0.4369020000000  0.4813490000000  0.5004050000000 1.0
C      1  0.4681530000000  0.4063580000000  0.4555990000000 1.0
C      1  0.4650360000000  0.5263540000000  0.5835800000000 1.0
C      1  0.5588640000000  0.4298580000000  0.4665350000000 1.0
C      1  0.5677490000000  0.5437960000000  0.4931840000000 1.0
C      1  0.5520390000000  0.4169700000000  0.5210010000000 1.0
C      1  0.5539180000000  0.4189200000000  0.4180160000000 1.0
C      1  0.5156510000000  0.3864120000000  0.4998010000000 1.0
C      1  0.5035800000000  0.5417410000000  0.4526470000000 1.0
C      1  0.4863820000000  0.6020450000000  0.5203600000000 1.0
C      1  0.5799430000000  0.4982110000000  0.4153840000000 1.0
C      1  0.4848910000000  0.4324590000000  0.4205590000000 1.0
C      1  0.6095550000000  0.4844680000000  0.4783660000000 1.0
C      1  0.5407010000000  0.5388300000000  0.5907130000000 1.0
C      1  0.4969580000000  0.4771520000000  0.4303010000000 1.0
C      1  0.4668360000000  0.4470110000000  0.4838670000000 1.0
C      1  0.5064690000000  0.4721780000000  0.4022780000000 1.0
C      1  0.4543020000000  0.4936440000000  0.4169510000000 1.0
C      1  0.5333890000000  0.3934500000000  0.4561320000000 1.0
C      1  0.4926190000000  0.5732750000000  0.4728440000000 1.0
C      1  0.3903850000000  0.4736550000000  0.5046920000000 1.0
C      1  0.4392960000000  0.4581450000000  0.4128400000000 1.0
C      1  0.5272030000000  0.5121510000000  0.4853120000000 1.0
C      1  0.5732720000000  0.4474420000000  0.4878170000000 1.0
C      1  0.4701000000000  0.4838090000000  0.4406180000000 1.0
C      1  0.5136480000000  0.5648000000000  0.4954720000000 1.0
C      1  0.4597080000000  0.5489550000000  0.5384500000000 1.0
C      1  0.5584390000000  0.6009460000000  0.4504390000000 1.0
C      1  0.4896180000000  0.5726520000000  0.5139320000000 1.0
C      1  0.4067420000000  0.5482190000000  0.4677470000000 1.0
C      1  0.4174760000000  0.4970330000000  0.5452960000000 1.0
C      1  0.4573090000000  0.6022590000000  0.5114380000000 1.0
C      1  0.4094340000000  0.5409300000000  0.5258740000000 1.0
C      1  0.5325800000000  0.4394050000000  0.5194520000000 1.0
C      1  0.5951870000000  0.5396850000000  0.4380110000000 1.0
C      1  0.4052370000000  0.4802870000000  0.5678720000000 1.0
C      1  0.5282640000000  0.4881560000000  0.5283280000000 1.0
C      1  0.5706080000000  0.4311160000000  0.4383240000000 1.0
C      1  0.5631710000000  0.5080010000000  0.5644640000000 1.0
C      1  0.5610070000000  0.5400200000000  0.4016610000000 1.0
C      1  0.4119810000000  0.4516180000000  0.5637470000000 1.0
C      1  0.5585770000000  0.5116760000000  0.4016140000000 1.0
C      1  0.5101110000000  0.5111100000000  0.3841140000000 1.0
C      1  0.4998380000000  0.5587510000000  0.4053770000000 1.0
C      1  0.3945400000000  0.4739260000000  0.4746040000000 1.0
C      1  0.5118690000000  0.4910140000000  0.4722650000000 1.0
C      1  0.5322480000000  0.4863830000000  0.6108260000000 1.0
C      1  0.5311720000000  0.4113810000000  0.5692200000000 1.0
C      1  0.5175290000000  0.4924830000000  0.4428960000000 1.0
C      1  0.5813220000000  0.4706230000000  0.4131080000000 1.0
C      1  0.4042010000000  0.5197200000000  0.5067980000000 1.0
C      1  0.4277660000000  0.4129470000000  0.4993000000000 1.0
C      1  0.4846530000000  0.5985580000000  0.4440030000000 1.0
C      1  0.5029330000000  0.4869300000000  0.5425970000000 1.0
C      1  0.5239580000000  0.5417990000000  0.4762520000000 1.0
C      1  0.5077370000000  0.5056360000000  0.6124650000000 1.0
C      1  0.4392790000000  0.4499480000000  0.4967920000000 1.0
C      1  0.5987980000000  0.5112260000000  0.5265320000000 1.0
C      1  0.4521050000000  0.4624960000000  0.4577490000000 1.0
C      1  0.5121290000000  0.5935370000000  0.4388650000000 1.0
C      1  0.6061800000000  0.5004760000000  0.5009440000000 1.0
C      1  0.4730750000000  0.4944920000000  0.4931550000000 1.0
C      1  0.4199220000000  0.5654960000000  0.5127800000000 1.0
C      1  0.5654820000000  0.5362490000000  0.5747300000000 1.0
C      1  0.5664890000000  0.5164980000000  0.5055860000000 1.0
C      1  0.4768380000000  0.5753530000000  0.4052050000000 1.0
C      1  0.4361280000000  0.4885600000000  0.4706580000000 1.0
C      1  0.4668560000000  0.5193040000000  0.4065210000000 1.0
C      1  0.4620790000000  0.5404320000000  0.5082020000000 1.0
C      1  0.4882650000000  0.5595660000000  0.5419700000000 1.0
C      1  0.4965110000000  0.6278300000000  0.4796990000000 1.0
C      1  0.4548980000000  0.4005540000000  0.5008190000000 1.0
C      1  0.5824940000000  0.4941050000000  0.5451600000000 1.0
C      1  0.4451090000000  0.4210540000000  0.4453400000000 1.0
C      1  0.6107630000000  0.4969460000000  0.4536550000000 1.0
C      1  0.5431970000000  0.3949570000000  0.5015040000000 1.0
C      1  0.5227700000000  0.6109420000000  0.5280840000000 1.0
C      1  0.4365080000000  0.5852270000000  0.5269710000000 1.0
C      1  0.3869630000000  0.4507150000000  0.5198920000000 1.0
C      1  0.4552630000000  0.4364910000000  0.4224750000000 1.0
C      1  0.4145870000000  0.5522830000000  0.4398260000000 1.0
C      1  0.4853240000000  0.4664300000000  0.5290330000000 1.0
C      1  0.5202640000000  0.5698420000000  0.4234960000000 1.0
C      1  0.4931160000000  0.4880150000000  0.3803850000000 1.0
C      1  0.4801220000000  0.5173710000000  0.5103120000000 1.0
C      1  0.5061230000000  0.3998750000000  0.5599090000000 1.0
C      1  0.4749000000000  0.5349490000000  0.4611930000000 1.0
C      1  0.5237360000000  0.6210690000000  0.4786960000000 1.0
C      1  0.5966660000000  0.5115200000000  0.4347950000000 1.0
C      1  0.5296520000000  0.4552670000000  0.5747160000000 1.0
C      1  0.5061200000000  0.5361150000000  0.5457760000000 1.0
C      1  0.5103130000000  0.4823510000000  0.5727920000000 1.0
C      1  0.5866920000000  0.4450050000000  0.5347050000000 1.0
C      1  0.4594070000000  0.4718300000000  0.5370040000000 1.0
C      1  0.5780380000000  0.4292280000000  0.5116020000000 1.0
C      1  0.4900490000000  0.4140220000000  0.5373560000000 1.0
C      1  0.5608460000000  0.4555960000000  0.5741990000000 1.0
C      1  0.5362590000000  0.6088540000000  0.5024870000000 1.0
C      1  0.4308220000000  0.4381120000000  0.5822160000000 1.0
C      1  0.5524590000000  0.4708450000000  0.4955300000000 1.0
C      1  0.5344050000000  0.4977310000000  0.3932620000000 1.0
C      1  0.4797140000000  0.4937050000000  0.6097000000000 1.0
C      1  0.5783080000000  0.5537770000000  0.4197690000000 1.0
C      1  0.5229540000000  0.4638250000000  0.4841240000000 1.0
C      1  0.5524880000000  0.5513680000000  0.4665890000000 1.0
C      1  0.4114430000000  0.4568480000000  0.4559900000000 1.0
C      1  0.5458580000000  0.5128110000000  0.5298080000000 1.0
C      1  0.5657690000000  0.5658390000000  0.5119410000000 1.0
C      1  0.5319120000000  0.6096980000000  0.4527060000000 1.0
C      1  0.4732800000000  0.4149650000000  0.4831170000000 1.0
C      1  0.4375300000000  0.5808710000000  0.4684520000000 1.0
C      1  0.4413700000000  0.4069220000000  0.5444270000000 1.0
C      1  0.6086310000000  0.5512120000000  0.4595160000000 1.0
C      1  0.5744680000000  0.4333460000000  0.5595850000000 1.0
C      1  0.5356670000000  0.6011070000000  0.5505240000000 1.0
C      1  0.5536980000000  0.4006240000000  0.4745310000000 1.0
C      1  0.4871520000000  0.5787780000000  0.5653070000000 1.0
C      1  0.5032440000000  0.4112930000000  0.4901010000000 1.0
C      1  0.5068620000000  0.4412930000000  0.4015070000000 1.0
C      1  0.4545370000000  0.5648420000000  0.4187300000000 1.0
C      1  0.5678290000000  0.5616360000000  0.5593030000000 1.0
C      1  0.4847020000000  0.4767880000000  0.5873880000000 1.0
C      1  0.4998900000000  0.5659680000000  0.5889510000000 1.0
C      1  0.5407860000000  0.4632540000000  0.5365200000000 1.0
C      1  0.5607090000000  0.5810730000000  0.4701730000000 1.0
C      1  0.4483110000000  0.4153590000000  0.5719160000000 1.0
C      1  0.5298310000000  0.4600930000000  0.6211800000000 1.0
C      1  0.4919980000000  0.5359540000000  0.5933130000000 1.0
C      1  0.5050170000000  0.4299450000000  0.5144670000000 1.0
C      1  0.6057990000000  0.5398280000000  0.5336240000000 1.0
C      1  0.5424920000000  0.5508730000000  0.4332380000000 1.0
C      1  0.5243980000000  0.4417590000000  0.6006090000000 1.0
C      1  0.4658090000000  0.5571410000000  0.4819540000000 1.0
C      1  0.4001530000000  0.4999810000000  0.4638790000000 1.0
C      1  0.4246640000000  0.4305280000000  0.4660380000000 1.0
C      1  0.5977280000000  0.4594530000000  0.4789720000000 1.0
C      1  0.4612850000000  0.5892760000000  0.5689360000000 1.0
C      1  0.5504660000000  0.4896230000000  0.5862470000000 1.0
C      1  0.5548130000000  0.4118730000000  0.5513430000000 1.0
C      1  0.6166920000000  0.5569860000000  0.5128820000000 1.0
C      1  0.4153680000000  0.5699830000000  0.4844790000000 1.0
C      1  0.4167440000000  0.5265990000000  0.5518290000000 1.0
C      1  0.4342350000000  0.5748380000000  0.4381070000000 1.0
C      1  0.4462030000000  0.5394680000000  0.4083290000000 1.0
C      1  0.4752010000000  0.4296500000000  0.5700190000000 1.0
C      1  0.4709330000000  0.5047670000000  0.4642940000000 1.0
C      1  0.4557610000000  0.6003480000000  0.4819920000000 1.0
C      1  0.4450450000000  0.5732960000000  0.5523160000000 1.0
END
