TITL C-950532-2784-569 -1.17197132089143e-06 125000 -841.959974301621 0 0 137 (C1) n - 1
REM
REM in /home/bkarasulu/work/CARBON/AIRSS/Generating-Clusters/EDIP-Nigel-Params/with-SteepDescent/Only-C1/SD-CG/HFTN-CG
REM
REM
REM
REM
REM
REM ./C.cell (11c1c37f851c82e70ff6c80c92926a4b)
REM
REM compiler GCC version 9.2.1 20190827 (Red Hat 9.2.1-1)
REM options -cpp -mtune=generic -march=x86-64 -g -O0 -fpre-include=/usr/include/finclude/math-vector-fortran.h
REM seed -342575891 -46710516 1312976798 -338136641 -193243967 -1340399755 -752604203 1145947189 -106246418 73232036 -1132469486 -363745394 2031099172 -795904069 -2135653425 1342144406 2113101485 535773691 1431345518 1571710873 2009616991 -1370609772 -1572570174 871558635 879575410 1555415276 -1369027808 -1066208056 1620113003 737502406 -1435428220 850605004 -202927744
REM
CELL 1.54180   50.00000   50.00000   50.00000   90.00000   90.00000   90.00000
LATT -1
SFAC C  
C      1  0.4588200000000  0.5117530000000  0.4693300000000 1.0
C      1  0.4971380000000  0.4494290000000  0.4503950000000 1.0
C      1  0.4281010000000  0.4530900000000  0.5525210000000 1.0
C      1  0.5524290000000  0.5594780000000  0.5576550000000 1.0
C      1  0.4699830000000  0.4537040000000  0.4108540000000 1.0
C      1  0.4750010000000  0.3955700000000  0.4767830000000 1.0
C      1  0.5017110000000  0.4839920000000  0.5824300000000 1.0
C      1  0.4643310000000  0.5436840000000  0.4284780000000 1.0
C      1  0.4383450000000  0.4614240000000  0.5255260000000 1.0
C      1  0.5485440000000  0.5449570000000  0.4769160000000 1.0
C      1  0.4909820000000  0.5908620000000  0.5558650000000 1.0
C      1  0.5327270000000  0.4725040000000  0.4638790000000 1.0
C      1  0.4998650000000  0.5125960000000  0.5923120000000 1.0
C      1  0.4961640000000  0.4654670000000  0.5317270000000 1.0
C      1  0.4755190000000  0.5261040000000  0.5880170000000 1.0
C      1  0.4847500000000  0.4991190000000  0.4634190000000 1.0
C      1  0.5218550000000  0.5209860000000  0.4072690000000 1.0
C      1  0.4646900000000  0.4982920000000  0.5456510000000 1.0
C      1  0.5360310000000  0.4300080000000  0.4353720000000 1.0
C      1  0.5904340000000  0.4940750000000  0.5675630000000 1.0
C      1  0.5013970000000  0.3922440000000  0.4649760000000 1.0
C      1  0.3953920000000  0.4730520000000  0.5275970000000 1.0
C      1  0.5282990000000  0.4590910000000  0.5388840000000 1.0
C      1  0.5868790000000  0.5187910000000  0.4772450000000 1.0
C      1  0.4130500000000  0.5054500000000  0.5590750000000 1.0
C      1  0.4090510000000  0.5215080000000  0.4719330000000 1.0
C      1  0.5314230000000  0.5897560000000  0.4542140000000 1.0
C      1  0.4354860000000  0.5622320000000  0.5648240000000 1.0
C      1  0.4394070000000  0.4915930000000  0.5268880000000 1.0
C      1  0.5197130000000  0.4341190000000  0.5669710000000 1.0
C      1  0.4271040000000  0.4665680000000  0.4312830000000 1.0
C      1  0.4301870000000  0.5249200000000  0.5763530000000 1.0
C      1  0.4980650000000  0.4238960000000  0.4348420000000 1.0
C      1  0.5959730000000  0.4971040000000  0.5370280000000 1.0
C      1  0.5033650000000  0.4432660000000  0.4799520000000 1.0
C      1  0.4763380000000  0.5523780000000  0.5774090000000 1.0
C      1  0.4925490000000  0.4313650000000  0.5594300000000 1.0
C      1  0.4991400000000  0.5445010000000  0.4709190000000 1.0
C      1  0.4725400000000  0.5389080000000  0.4854440000000 1.0
C      1  0.5711900000000  0.5771600000000  0.4831160000000 1.0
C      1  0.4241850000000  0.5304670000000  0.4503690000000 1.0
C      1  0.4356640000000  0.5624990000000  0.5148790000000 1.0
C      1  0.4586440000000  0.5675050000000  0.4941640000000 1.0
C      1  0.5670760000000  0.5277140000000  0.4345900000000 1.0
C      1  0.4729690000000  0.4991290000000  0.5140650000000 1.0
C      1  0.4590420000000  0.4240760000000  0.5128910000000 1.0
C      1  0.4815830000000  0.5791880000000  0.4498750000000 1.0
C      1  0.5491300000000  0.4097300000000  0.4779800000000 1.0
C      1  0.4806770000000  0.5263160000000  0.5107010000000 1.0
C      1  0.4512970000000  0.5116590000000  0.5938430000000 1.0
C      1  0.4122860000000  0.4709590000000  0.4814560000000 1.0
C      1  0.4370390000000  0.4234360000000  0.4931130000000 1.0
C      1  0.5127610000000  0.4840590000000  0.5034070000000 1.0
C      1  0.4880450000000  0.4165060000000  0.5347380000000 1.0
C      1  0.4709870000000  0.5898040000000  0.5357860000000 1.0
C      1  0.5649600000000  0.4977140000000  0.4336000000000 1.0
C      1  0.4948360000000  0.4649910000000  0.4035440000000 1.0
C      1  0.5721350000000  0.5405540000000  0.5640180000000 1.0
C      1  0.5104480000000  0.4100540000000  0.5169850000000 1.0
C      1  0.5068750000000  0.4745040000000  0.4279170000000 1.0
C      1  0.5565560000000  0.5731440000000  0.5317200000000 1.0
C      1  0.5414790000000  0.4249060000000  0.5511700000000 1.0
C      1  0.4387660000000  0.5085490000000  0.4359280000000 1.0
C      1  0.5222040000000  0.5483850000000  0.4889470000000 1.0
C      1  0.5180160000000  0.5260320000000  0.4372370000000 1.0
C      1  0.5531670000000  0.4619020000000  0.5730710000000 1.0
C      1  0.4934680000000  0.4891590000000  0.5521160000000 1.0
C      1  0.4990030000000  0.5675270000000  0.5691720000000 1.0
C      1  0.5440520000000  0.4792450000000  0.4219240000000 1.0
C      1  0.5813120000000  0.4299470000000  0.5060410000000 1.0
C      1  0.5793890000000  0.4649750000000  0.5621520000000 1.0
C      1  0.5013980000000  0.5963880000000  0.4930740000000 1.0
C      1  0.4429560000000  0.5783500000000  0.5398960000000 1.0
C      1  0.4786910000000  0.4676210000000  0.5930810000000 1.0
C      1  0.4468240000000  0.5493840000000  0.4505900000000 1.0
C      1  0.4502780000000  0.4913050000000  0.4907970000000 1.0
C      1  0.5892610000000  0.5372100000000  0.5074960000000 1.0
C      1  0.5231740000000  0.5247780000000  0.5789000000000 1.0
C      1  0.5831830000000  0.5635720000000  0.4609430000000 1.0
C      1  0.4534380000000  0.4135400000000  0.4702730000000 1.0
C      1  0.5399650000000  0.5950420000000  0.5260250000000 1.0
C      1  0.5975820000000  0.4913100000000  0.4699330000000 1.0
C      1  0.4549620000000  0.5741310000000  0.4643800000000 1.0
C      1  0.5438670000000  0.5437310000000  0.4456480000000 1.0
C      1  0.4944490000000  0.5269160000000  0.3973530000000 1.0
C      1  0.4064150000000  0.4743810000000  0.5553460000000 1.0
C      1  0.5555670000000  0.5060650000000  0.5113990000000 1.0
C      1  0.4561000000000  0.4680250000000  0.4330590000000 1.0
C      1  0.5879700000000  0.5369310000000  0.4532660000000 1.0
C      1  0.5146940000000  0.5107890000000  0.5436480000000 1.0
C      1  0.4721340000000  0.4450740000000  0.5758630000000 1.0
C      1  0.5574590000000  0.4161530000000  0.5036330000000 1.0
C      1  0.3976590000000  0.4996710000000  0.5151990000000 1.0
C      1  0.5478410000000  0.5963800000000  0.4779390000000 1.0
C      1  0.5028490000000  0.5543390000000  0.4066840000000 1.0
C      1  0.5335090000000  0.5025840000000  0.4642760000000 1.0
C      1  0.5733900000000  0.5626220000000  0.5088870000000 1.0
C      1  0.4713930000000  0.4255780000000  0.4225560000000 1.0
C      1  0.4336300000000  0.5353030000000  0.5274030000000 1.0
C      1  0.4563880000000  0.4842010000000  0.5987600000000 1.0
C      1  0.5038540000000  0.5321330000000  0.5260140000000 1.0
C      1  0.5201420000000  0.5524080000000  0.5166200000000 1.0
C      1  0.5683830000000  0.5133960000000  0.5696180000000 1.0
C      1  0.5341690000000  0.4084400000000  0.4546330000000 1.0
C      1  0.5777510000000  0.5180730000000  0.5265090000000 1.0
C      1  0.5256440000000  0.5540740000000  0.5706930000000 1.0
C      1  0.4479370000000  0.5378230000000  0.5553310000000 1.0
C      1  0.4937970000000  0.5020710000000  0.4361590000000 1.0
C      1  0.4068940000000  0.4987300000000  0.4879350000000 1.0
C      1  0.4499170000000  0.4215190000000  0.4427730000000 1.0
C      1  0.4878920000000  0.5579260000000  0.4307800000000 1.0
C      1  0.5878620000000  0.4853370000000  0.4445430000000 1.0
C      1  0.4717330000000  0.5163630000000  0.4174180000000 1.0
C      1  0.4155530000000  0.4616030000000  0.4557870000000 1.0
C      1  0.6000850000000  0.4702790000000  0.4879970000000 1.0
C      1  0.5425030000000  0.5711020000000  0.4362200000000 1.0
C      1  0.5074270000000  0.5078870000000  0.4806220000000 1.0
C      1  0.5236650000000  0.4613770000000  0.4882290000000 1.0
C      1  0.4203000000000  0.4915720000000  0.4210950000000 1.0
C      1  0.5453200000000  0.5067830000000  0.5849910000000 1.0
C      1  0.4080950000000  0.5202990000000  0.5337430000000 1.0
C      1  0.5562470000000  0.5156620000000  0.4826020000000 1.0
C      1  0.4670160000000  0.4530840000000  0.4572790000000 1.0
C      1  0.4655520000000  0.4657660000000  0.4858270000000 1.0
C      1  0.4789950000000  0.5847270000000  0.5083410000000 1.0
C      1  0.4447750000000  0.4426510000000  0.5721610000000 1.0
C      1  0.4669830000000  0.4530010000000  0.5142910000000 1.0
C      1  0.5068320000000  0.4143970000000  0.4874700000000 1.0
C      1  0.5323850000000  0.4925810000000  0.5257120000000 1.0
C      1  0.5297440000000  0.6028980000000  0.5010480000000 1.0
C      1  0.5446610000000  0.4570740000000  0.4416450000000 1.0
C      1  0.5831650000000  0.4697180000000  0.5317100000000 1.0
C      1  0.5935390000000  0.4544450000000  0.5098660000000 1.0
C      1  0.5368840000000  0.4188550000000  0.5238560000000 1.0
C      1  0.4158960000000  0.4523850000000  0.5046800000000 1.0
C      1  0.5052300000000  0.5828750000000  0.4671390000000 1.0
C      1  0.5341280000000  0.4796800000000  0.5846090000000 1.0
END
