TITL C-951339-9237-228 -5.93203503596411e-07 125000 -892.989017490547 0 0 143 (C1) n - 1
REM
REM in /home/bkarasulu/work/CARBON/AIRSS/Generating-Clusters/EDIP-Nigel-Params/with-SteepDescent/Only-C1/SD-CG/HFTN-CG
REM
REM
REM
REM
REM
REM ./C.cell (11c1c37f851c82e70ff6c80c92926a4b)
REM
REM compiler GCC version 9.2.1 20190827 (Red Hat 9.2.1-1)
REM options -cpp -mtune=generic -march=x86-64 -g -O0 -fpre-include=/usr/include/finclude/math-vector-fortran.h
REM seed -859374888 1985334372 1256435833 -1756683347 -857840255 1842297528 1783848047 1469075054 -1510129344 1522902350 1731027369 -2091568941 2142959627 845320363 -548663886 1132684047 210363203 762927663 -1987215684 -719282626 1986446531 249404859 198995429 774875760 1366250474 -385862352 -494863127 -1663311800 -1247981034 1017717078 1592970339 -880903319 392651005
REM
CELL 1.54180   50.00000   50.00000   50.00000   90.00000   90.00000   90.00000
LATT -1
SFAC C  
C      1  0.4513760000000  0.4142860000000  0.5069130000000 1.0
C      1  0.4131120000000  0.4850750000000  0.5388510000000 1.0
C      1  0.5890630000000  0.5125950000000  0.5583020000000 1.0
C      1  0.4759330000000  0.5861420000000  0.4759860000000 1.0
C      1  0.4671300000000  0.4981900000000  0.5501060000000 1.0
C      1  0.4965980000000  0.5275410000000  0.5817110000000 1.0
C      1  0.4686620000000  0.4554540000000  0.4161810000000 1.0
C      1  0.5811950000000  0.5483100000000  0.5030010000000 1.0
C      1  0.4942460000000  0.4642740000000  0.6077680000000 1.0
C      1  0.5090810000000  0.5312740000000  0.5318000000000 1.0
C      1  0.4515900000000  0.5369660000000  0.4849880000000 1.0
C      1  0.4547220000000  0.4896370000000  0.5049890000000 1.0
C      1  0.5457800000000  0.5726570000000  0.5222600000000 1.0
C      1  0.5099020000000  0.4750230000000  0.5867630000000 1.0
C      1  0.5255610000000  0.5878010000000  0.4807110000000 1.0
C      1  0.4863930000000  0.4261380000000  0.5768140000000 1.0
C      1  0.5595060000000  0.4118920000000  0.4844920000000 1.0
C      1  0.5065350000000  0.4895420000000  0.4906270000000 1.0
C      1  0.5174720000000  0.4289090000000  0.5744020000000 1.0
C      1  0.4097420000000  0.5505940000000  0.5090170000000 1.0
C      1  0.5075650000000  0.5531660000000  0.3994810000000 1.0
C      1  0.4795040000000  0.5496220000000  0.4052900000000 1.0
C      1  0.5207430000000  0.5502990000000  0.4888860000000 1.0
C      1  0.4228730000000  0.5493760000000  0.4815660000000 1.0
C      1  0.5540640000000  0.5110460000000  0.5268470000000 1.0
C      1  0.5396170000000  0.4956290000000  0.5487630000000 1.0
C      1  0.4031500000000  0.4626360000000  0.4885900000000 1.0
C      1  0.5924000000000  0.4941430000000  0.5133160000000 1.0
C      1  0.5158530000000  0.5388520000000  0.5609340000000 1.0
C      1  0.5127740000000  0.4013080000000  0.5086200000000 1.0
C      1  0.4935790000000  0.5806630000000  0.4235650000000 1.0
C      1  0.4263440000000  0.4476650000000  0.4921140000000 1.0
C      1  0.5313280000000  0.5037390000000  0.4895980000000 1.0
C      1  0.5822210000000  0.4873570000000  0.4567670000000 1.0
C      1  0.5522010000000  0.4840780000000  0.4999810000000 1.0
C      1  0.5506320000000  0.5650660000000  0.4261070000000 1.0
C      1  0.4979720000000  0.5872720000000  0.5217470000000 1.0
C      1  0.5178430000000  0.4480400000000  0.4682030000000 1.0
C      1  0.4530920000000  0.4576860000000  0.5564750000000 1.0
C      1  0.4547590000000  0.4750110000000  0.4009990000000 1.0
C      1  0.4175930000000  0.5029250000000  0.4675940000000 1.0
C      1  0.5935920000000  0.4678280000000  0.4996760000000 1.0
C      1  0.5146090000000  0.4569660000000  0.5620810000000 1.0
C      1  0.3995090000000  0.5286050000000  0.5250150000000 1.0
C      1  0.5724600000000  0.4706190000000  0.4796690000000 1.0
C      1  0.4896190000000  0.5458690000000  0.4885050000000 1.0
C      1  0.4302020000000  0.4618560000000  0.5377230000000 1.0
C      1  0.5446290000000  0.4477450000000  0.4541470000000 1.0
C      1  0.5446670000000  0.5343640000000  0.5693980000000 1.0
C      1  0.5766000000000  0.5305460000000  0.4483850000000 1.0
C      1  0.4765530000000  0.4226110000000  0.4936670000000 1.0
C      1  0.5180330000000  0.5767210000000  0.5651200000000 1.0
C      1  0.5022960000000  0.4229010000000  0.4285070000000 1.0
C      1  0.5204890000000  0.4650190000000  0.4139350000000 1.0
C      1  0.4271280000000  0.4198820000000  0.4935860000000 1.0
C      1  0.4354120000000  0.4913470000000  0.4137910000000 1.0
C      1  0.4505020000000  0.5835120000000  0.4888520000000 1.0
C      1  0.4997830000000  0.5885910000000  0.4926990000000 1.0
C      1  0.5354040000000  0.4844170000000  0.5967480000000 1.0
C      1  0.5890570000000  0.4882850000000  0.5417340000000 1.0
C      1  0.4837920000000  0.5286590000000  0.5145470000000 1.0
C      1  0.4284340000000  0.4530000000000  0.4419690000000 1.0
C      1  0.4742900000000  0.4498610000000  0.5942870000000 1.0
C      1  0.5314530000000  0.5405910000000  0.4624300000000 1.0
C      1  0.5285460000000  0.4118590000000  0.5529240000000 1.0
C      1  0.4881550000000  0.4567230000000  0.5410650000000 1.0
C      1  0.4567150000000  0.4267050000000  0.5331750000000 1.0
C      1  0.5695730000000  0.5560900000000  0.5291180000000 1.0
C      1  0.5198320000000  0.5341560000000  0.4175350000000 1.0
C      1  0.4595180000000  0.4913080000000  0.4560220000000 1.0
C      1  0.4722330000000  0.5811550000000  0.5338610000000 1.0
C      1  0.4971400000000  0.4472470000000  0.4156350000000 1.0
C      1  0.4453220000000  0.5047310000000  0.5303290000000 1.0
C      1  0.5948330000000  0.5158960000000  0.4687250000000 1.0
C      1  0.5765290000000  0.4374880000000  0.5396090000000 1.0
C      1  0.4691550000000  0.5687640000000  0.5603490000000 1.0
C      1  0.4511200000000  0.4684250000000  0.5854090000000 1.0
C      1  0.5907950000000  0.4451440000000  0.5164760000000 1.0
C      1  0.4534680000000  0.4413600000000  0.4370540000000 1.0
C      1  0.4726460000000  0.5799290000000  0.4468130000000 1.0
C      1  0.5206310000000  0.4435350000000  0.4999320000000 1.0
C      1  0.4271560000000  0.5641440000000  0.5269060000000 1.0
C      1  0.4326540000000  0.4817450000000  0.4414730000000 1.0
C      1  0.4896830000000  0.4862810000000  0.5364140000000 1.0
C      1  0.4747730000000  0.4686570000000  0.4675820000000 1.0
C      1  0.4464470000000  0.5059740000000  0.4798430000000 1.0
C      1  0.5248250000000  0.5803180000000  0.4207980000000 1.0
C      1  0.4923950000000  0.5713470000000  0.5783250000000 1.0
C      1  0.4930650000000  0.3991750000000  0.4884460000000 1.0
C      1  0.4278860000000  0.5769130000000  0.4732030000000 1.0
C      1  0.5536030000000  0.4628710000000  0.6004030000000 1.0
C      1  0.5588680000000  0.5065730000000  0.4453330000000 1.0
C      1  0.5390330000000  0.5041470000000  0.3919280000000 1.0
C      1  0.5494900000000  0.5828090000000  0.4953530000000 1.0
C      1  0.5696300000000  0.5663980000000  0.4816090000000 1.0
C      1  0.4985320000000  0.4284790000000  0.4556670000000 1.0
C      1  0.4058900000000  0.5334070000000  0.5522160000000 1.0
C      1  0.5402250000000  0.4671720000000  0.5451000000000 1.0
C      1  0.4263830000000  0.5363230000000  0.5711880000000 1.0
C      1  0.4529810000000  0.5349430000000  0.5279560000000 1.0
C      1  0.4454650000000  0.4578930000000  0.5121370000000 1.0
C      1  0.4005620000000  0.4903520000000  0.4891540000000 1.0
C      1  0.5586970000000  0.5535520000000  0.4553230000000 1.0
C      1  0.5465140000000  0.4584090000000  0.4265320000000 1.0
C      1  0.5419370000000  0.4116720000000  0.5070960000000 1.0
C      1  0.5770490000000  0.5000200000000  0.5827890000000 1.0
C      1  0.5375000000000  0.4634600000000  0.5150340000000 1.0
C      1  0.4707960000000  0.4395460000000  0.4623770000000 1.0
C      1  0.4928160000000  0.5504510000000  0.5977760000000 1.0
C      1  0.4791200000000  0.4147540000000  0.5495650000000 1.0
C      1  0.4848610000000  0.4974140000000  0.5091830000000 1.0
C      1  0.5692750000000  0.4773270000000  0.4215670000000 1.0
C      1  0.4041440000000  0.5011290000000  0.5163750000000 1.0
C      1  0.4345690000000  0.5382110000000  0.4379310000000 1.0
C      1  0.5472010000000  0.5043730000000  0.5772820000000 1.0
C      1  0.5318690000000  0.5316930000000  0.5126130000000 1.0
C      1  0.4805320000000  0.5101500000000  0.4405050000000 1.0
C      1  0.4425820000000  0.5201650000000  0.4146740000000 1.0
C      1  0.5646450000000  0.5003710000000  0.4028330000000 1.0
C      1  0.5501300000000  0.5347040000000  0.4131690000000 1.0
C      1  0.5669370000000  0.5318860000000  0.5470120000000 1.0
C      1  0.4539680000000  0.5412930000000  0.5593860000000 1.0
C      1  0.5087270000000  0.4961910000000  0.4423060000000 1.0
C      1  0.5328660000000  0.5107740000000  0.4599320000000 1.0
C      1  0.5882710000000  0.5197480000000  0.4969450000000 1.0
C      1  0.5106710000000  0.5456200000000  0.4433190000000 1.0
C      1  0.5711920000000  0.4641550000000  0.5536630000000 1.0
C      1  0.4932820000000  0.4411160000000  0.5127550000000 1.0
C      1  0.5173380000000  0.4919330000000  0.4053000000000 1.0
C      1  0.5515310000000  0.4205310000000  0.5346790000000 1.0
C      1  0.4127760000000  0.5313330000000  0.4583360000000 1.0
C      1  0.5633750000000  0.4300810000000  0.4650330000000 1.0
C      1  0.5047110000000  0.4056050000000  0.5367030000000 1.0
C      1  0.4717460000000  0.5223090000000  0.4126950000000 1.0
C      1  0.5222920000000  0.5831980000000  0.5373250000000 1.0
C      1  0.5751790000000  0.4695090000000  0.5835900000000 1.0
C      1  0.4497010000000  0.5775150000000  0.5166600000000 1.0
C      1  0.4522780000000  0.5004070000000  0.5917370000000 1.0
C      1  0.4283510000000  0.5157020000000  0.5903060000000 1.0
C      1  0.4697120000000  0.5173920000000  0.5720330000000 1.0
C      1  0.5027550000000  0.4750150000000  0.4660120000000 1.0
C      1  0.4589420000000  0.5518500000000  0.4527860000000 1.0
C      1  0.4851820000000  0.5353250000000  0.4562090000000 1.0
END
