TITL C-950531-5884-282 -1.57075409083211e-06 125000 -1162.94959623654 0 0 186 (C1) n - 1
REM
REM in /home/bkarasulu/work/CARBON/AIRSS/Generating-Clusters/EDIP-Nigel-Params/with-SteepDescent/Only-C1/SD-CG/HFTN-CG
REM
REM
REM
REM
REM
REM ./C.cell (11c1c37f851c82e70ff6c80c92926a4b)
REM
REM compiler GCC version 9.2.1 20190827 (Red Hat 9.2.1-1)
REM options -cpp -mtune=generic -march=x86-64 -g -O0 -fpre-include=/usr/include/finclude/math-vector-fortran.h
REM seed 1152302820 849777173 2055125484 913556217 1440000066 -31420770 -1185257131 -1570957193 -1743030352 -295808397 71749451 -687333851 -879099418 -531099456 -302989148 1227139633 -1195477057 -1650438991 -115482330 -1069858831 -1364939261 1208300386 -159517143 1801045573 -422991366 -1055369148 -1057286137 829851219 -707596440 -252778492 -1814823646 -1131733586 -35053966
REM
CELL 1.54180   50.00000   50.00000   50.00000   90.00000   90.00000   90.00000
LATT -1
SFAC C  
C      1  0.5909400000000  0.4881970000000  0.4318400000000 1.0
C      1  0.5449860000000  0.5922730000000  0.4554340000000 1.0
C      1  0.5150720000000  0.3935190000000  0.5519000000000 1.0
C      1  0.4572260000000  0.5469850000000  0.5198220000000 1.0
C      1  0.4261420000000  0.5391100000000  0.4316760000000 1.0
C      1  0.5511620000000  0.5615320000000  0.5629860000000 1.0
C      1  0.5659350000000  0.5410570000000  0.4800960000000 1.0
C      1  0.4872580000000  0.5565720000000  0.4887530000000 1.0
C      1  0.5061570000000  0.4370600000000  0.5407150000000 1.0
C      1  0.5148220000000  0.5522660000000  0.5391670000000 1.0
C      1  0.4509450000000  0.5908960000000  0.5221010000000 1.0
C      1  0.5299590000000  0.5584260000000  0.4172220000000 1.0
C      1  0.5502460000000  0.4360210000000  0.5700490000000 1.0
C      1  0.5587460000000  0.5441930000000  0.5106170000000 1.0
C      1  0.4678780000000  0.5294450000000  0.5593620000000 1.0
C      1  0.5335960000000  0.3936980000000  0.5074400000000 1.0
C      1  0.5387800000000  0.4740990000000  0.5413940000000 1.0
C      1  0.4810650000000  0.4457950000000  0.5913430000000 1.0
C      1  0.5056900000000  0.4579880000000  0.3894300000000 1.0
C      1  0.4030450000000  0.4518870000000  0.4837560000000 1.0
C      1  0.4523930000000  0.5737570000000  0.5711420000000 1.0
C      1  0.4324870000000  0.5464990000000  0.5002800000000 1.0
C      1  0.5694610000000  0.4238990000000  0.4471360000000 1.0
C      1  0.5637990000000  0.4234220000000  0.4194540000000 1.0
C      1  0.5743440000000  0.4495530000000  0.5752620000000 1.0
C      1  0.4939990000000  0.5080000000000  0.4433890000000 1.0
C      1  0.5619520000000  0.5010860000000  0.5992770000000 1.0
C      1  0.4304660000000  0.5760560000000  0.5395620000000 1.0
C      1  0.4636870000000  0.5441410000000  0.3997300000000 1.0
C      1  0.4948200000000  0.5878890000000  0.4436130000000 1.0
C      1  0.5058330000000  0.5189840000000  0.6119160000000 1.0
C      1  0.4619490000000  0.5034370000000  0.5733040000000 1.0
C      1  0.4466150000000  0.4895270000000  0.4833990000000 1.0
C      1  0.4951540000000  0.4604750000000  0.5688730000000 1.0
C      1  0.5380340000000  0.5301850000000  0.4002160000000 1.0
C      1  0.4574680000000  0.5316480000000  0.6059700000000 1.0
C      1  0.5181410000000  0.5470850000000  0.4421480000000 1.0
C      1  0.5024770000000  0.4743480000000  0.5105120000000 1.0
C      1  0.4447740000000  0.4572340000000  0.5610700000000 1.0
C      1  0.4841170000000  0.3884210000000  0.4854870000000 1.0
C      1  0.4309970000000  0.4757710000000  0.5990390000000 1.0
C      1  0.4145700000000  0.5704790000000  0.4604460000000 1.0
C      1  0.5786770000000  0.4484420000000  0.4604120000000 1.0
C      1  0.5042220000000  0.4430370000000  0.4787530000000 1.0
C      1  0.5629090000000  0.4891020000000  0.4200920000000 1.0
C      1  0.4799790000000  0.4665890000000  0.4028580000000 1.0
C      1  0.5039030000000  0.4099090000000  0.4422550000000 1.0
C      1  0.3967450000000  0.4385410000000  0.5099300000000 1.0
C      1  0.5719440000000  0.5406740000000  0.5683980000000 1.0
C      1  0.4617080000000  0.3925890000000  0.5057500000000 1.0
C      1  0.5313090000000  0.5244920000000  0.5970330000000 1.0
C      1  0.4241420000000  0.5780640000000  0.4339770000000 1.0
C      1  0.5426940000000  0.4420670000000  0.4130670000000 1.0
C      1  0.5517390000000  0.5169950000000  0.5212950000000 1.0
C      1  0.3898680000000  0.5123720000000  0.5214140000000 1.0
C      1  0.4693290000000  0.6084070000000  0.4832470000000 1.0
C      1  0.5253120000000  0.5120090000000  0.4811590000000 1.0
C      1  0.5064550000000  0.6067000000000  0.4947720000000 1.0
C      1  0.5796630000000  0.5816680000000  0.4954290000000 1.0
C      1  0.4387100000000  0.4290130000000  0.5486210000000 1.0
C      1  0.5627220000000  0.4895000000000  0.5295240000000 1.0
C      1  0.4977520000000  0.5768290000000  0.4161750000000 1.0
C      1  0.4931330000000  0.5349500000000  0.4317200000000 1.0
C      1  0.4832110000000  0.4184650000000  0.5776660000000 1.0
C      1  0.5790250000000  0.4266340000000  0.5304370000000 1.0
C      1  0.4625610000000  0.4107060000000  0.5557020000000 1.0
C      1  0.5779810000000  0.5612000000000  0.4339430000000 1.0
C      1  0.5343770000000  0.6035770000000  0.5033300000000 1.0
C      1  0.5945700000000  0.4525980000000  0.5337530000000 1.0
C      1  0.4150070000000  0.4934600000000  0.5576200000000 1.0
C      1  0.5663930000000  0.5118690000000  0.5730470000000 1.0
C      1  0.5183440000000  0.5999880000000  0.4526990000000 1.0
C      1  0.5232320000000  0.4265520000000  0.4565650000000 1.0
C      1  0.5511370000000  0.4255380000000  0.5416730000000 1.0
C      1  0.5890040000000  0.5615070000000  0.4769290000000 1.0
C      1  0.5963980000000  0.5717340000000  0.4520200000000 1.0
C      1  0.4525020000000  0.5808350000000  0.4326170000000 1.0
C      1  0.4755680000000  0.5710460000000  0.4627330000000 1.0
C      1  0.4624680000000  0.4814470000000  0.4580230000000 1.0
C      1  0.4835980000000  0.4070680000000  0.4621690000000 1.0
C      1  0.5179440000000  0.5944810000000  0.5526750000000 1.0
C      1  0.5152580000000  0.4332760000000  0.4013630000000 1.0
C      1  0.4786090000000  0.5259680000000  0.4867840000000 1.0
C      1  0.4945790000000  0.5761420000000  0.5425710000000 1.0
C      1  0.5431450000000  0.4857530000000  0.4436470000000 1.0
C      1  0.6097680000000  0.4821720000000  0.4720330000000 1.0
C      1  0.3997860000000  0.5336430000000  0.5389840000000 1.0
C      1  0.4739130000000  0.5719050000000  0.5179480000000 1.0
C      1  0.5242120000000  0.5128860000000  0.5130930000000 1.0
C      1  0.4916150000000  0.5382160000000  0.3954550000000 1.0
C      1  0.5925530000000  0.5142730000000  0.4470180000000 1.0
C      1  0.4449360000000  0.4884190000000  0.5539190000000 1.0
C      1  0.5753780000000  0.4222830000000  0.5016500000000 1.0
C      1  0.5623990000000  0.5792500000000  0.5429000000000 1.0
C      1  0.4647340000000  0.4463500000000  0.4322480000000 1.0
C      1  0.4861420000000  0.5360200000000  0.5991420000000 1.0
C      1  0.4311760000000  0.4639180000000  0.5153840000000 1.0
C      1  0.5984160000000  0.4676160000000  0.4509140000000 1.0
C      1  0.4614610000000  0.4205270000000  0.4500040000000 1.0
C      1  0.5853250000000  0.4688660000000  0.5099100000000 1.0
C      1  0.5148340000000  0.4915240000000  0.4319300000000 1.0
C      1  0.4857390000000  0.6245460000000  0.4990650000000 1.0
C      1  0.5023610000000  0.5318780000000  0.5224640000000 1.0
C      1  0.5914350000000  0.5431270000000  0.5454760000000 1.0
C      1  0.4753410000000  0.3957910000000  0.5327850000000 1.0
C      1  0.4451320000000  0.5956190000000  0.4936410000000 1.0
C      1  0.4253100000000  0.4900590000000  0.4402160000000 1.0
C      1  0.5533810000000  0.5913570000000  0.4844550000000 1.0
C      1  0.5817730000000  0.4958600000000  0.5522210000000 1.0
C      1  0.4442860000000  0.5476010000000  0.5620870000000 1.0
C      1  0.4787380000000  0.4595160000000  0.5141060000000 1.0
C      1  0.5041190000000  0.4648190000000  0.4334640000000 1.0
C      1  0.5498480000000  0.4970460000000  0.4709480000000 1.0
C      1  0.5791210000000  0.5633010000000  0.5244470000000 1.0
C      1  0.4060970000000  0.5226020000000  0.4737610000000 1.0
C      1  0.4056700000000  0.5428290000000  0.4534620000000 1.0
C      1  0.4403420000000  0.5061540000000  0.6052430000000 1.0
C      1  0.5313480000000  0.5409460000000  0.4702850000000 1.0
C      1  0.5277940000000  0.4630690000000  0.6042790000000 1.0
C      1  0.5058760000000  0.5063090000000  0.5583210000000 1.0
C      1  0.5397690000000  0.5957550000000  0.5323620000000 1.0
C      1  0.5153870000000  0.4905830000000  0.5324580000000 1.0
C      1  0.5387500000000  0.4891060000000  0.6107260000000 1.0
C      1  0.5098460000000  0.4182970000000  0.5647670000000 1.0
C      1  0.3892870000000  0.5225860000000  0.4955880000000 1.0
C      1  0.4558590000000  0.4775880000000  0.5095150000000 1.0
C      1  0.4526430000000  0.5204720000000  0.4526250000000 1.0
C      1  0.4675420000000  0.5464160000000  0.4436130000000 1.0
C      1  0.4818790000000  0.4331370000000  0.5007730000000 1.0
C      1  0.4995460000000  0.5614440000000  0.5868410000000 1.0
C      1  0.5097580000000  0.3822830000000  0.4968160000000 1.0
C      1  0.5521770000000  0.5741570000000  0.4322850000000 1.0
C      1  0.5216480000000  0.5060710000000  0.3909230000000 1.0
C      1  0.5775980000000  0.5118410000000  0.4750640000000 1.0
C      1  0.4070180000000  0.4487930000000  0.5602610000000 1.0
C      1  0.5990390000000  0.5161690000000  0.5360540000000 1.0
C      1  0.4520820000000  0.4557350000000  0.5897160000000 1.0
C      1  0.5371460000000  0.3990400000000  0.5355730000000 1.0
C      1  0.4079430000000  0.4964030000000  0.4632100000000 1.0
C      1  0.5312130000000  0.4506640000000  0.4391660000000 1.0
C      1  0.4941540000000  0.5118140000000  0.3847490000000 1.0
C      1  0.4083700000000  0.5216180000000  0.5648240000000 1.0
C      1  0.5520060000000  0.4087550000000  0.4912540000000 1.0
C      1  0.5271800000000  0.5748810000000  0.5751960000000 1.0
C      1  0.5533150000000  0.4677280000000  0.3999600000000 1.0
C      1  0.4961840000000  0.5042780000000  0.4727770000000 1.0
C      1  0.5479080000000  0.4106220000000  0.4626870000000 1.0
C      1  0.5334020000000  0.5615230000000  0.5147750000000 1.0
C      1  0.4908730000000  0.4672450000000  0.4609200000000 1.0
C      1  0.3923930000000  0.4559700000000  0.5341420000000 1.0
C      1  0.5186590000000  0.5325210000000  0.5689870000000 1.0
C      1  0.4079960000000  0.4735450000000  0.5789870000000 1.0
C      1  0.4088720000000  0.4800740000000  0.4873850000000 1.0
C      1  0.4974600000000  0.4139560000000  0.5214220000000 1.0
C      1  0.5001270000000  0.4567680000000  0.6138450000000 1.0
C      1  0.5905170000000  0.4665470000000  0.5595470000000 1.0
C      1  0.4720980000000  0.4947920000000  0.3951700000000 1.0
C      1  0.4808190000000  0.5766190000000  0.5693070000000 1.0
C      1  0.4023050000000  0.4854220000000  0.5307740000000 1.0
C      1  0.5619130000000  0.5179300000000  0.4106420000000 1.0
C      1  0.4230830000000  0.4430790000000  0.4630510000000 1.0
C      1  0.4269220000000  0.5355380000000  0.5831590000000 1.0
C      1  0.5281620000000  0.4568470000000  0.5750450000000 1.0
C      1  0.4939390000000  0.4247300000000  0.4197650000000 1.0
C      1  0.4560020000000  0.4983570000000  0.5286890000000 1.0
C      1  0.4142390000000  0.5555670000000  0.5242480000000 1.0
C      1  0.4722690000000  0.5241100000000  0.5307580000000 1.0
C      1  0.5230680000000  0.4562150000000  0.4988530000000 1.0
C      1  0.5768320000000  0.5325030000000  0.4304560000000 1.0
C      1  0.4525110000000  0.4202680000000  0.4979610000000 1.0
C      1  0.4409720000000  0.4216370000000  0.4700040000000 1.0
C      1  0.5172880000000  0.5581700000000  0.4896200000000 1.0
C      1  0.4891350000000  0.4903770000000  0.5765280000000 1.0
C      1  0.4333290000000  0.4332300000000  0.5188200000000 1.0
C      1  0.4353410000000  0.4596460000000  0.4401270000000 1.0
C      1  0.4545150000000  0.5158650000000  0.4064620000000 1.0
C      1  0.4497160000000  0.5200980000000  0.4831220000000 1.0
C      1  0.4356600000000  0.5701740000000  0.4813390000000 1.0
C      1  0.5813660000000  0.4470460000000  0.4891350000000 1.0
C      1  0.4280860000000  0.5115920000000  0.4187160000000 1.0
C      1  0.6050590000000  0.4871390000000  0.4987400000000 1.0
C      1  0.4952600000000  0.4925990000000  0.6058080000000 1.0
C      1  0.4684840000000  0.5731740000000  0.4089130000000 1.0
C      1  0.5287330000000  0.4775620000000  0.3865690000000 1.0
C      1  0.5991660000000  0.5132440000000  0.5068450000000 1.0
C      1  0.5328100000000  0.4470780000000  0.5281480000000 1.0
END
