TITL C-951333-8791-505 -6.39438394178408e-07 125000 -670.973658752896 0 0 107 (C1) n - 1
REM
REM in /home/bkarasulu/work/CARBON/AIRSS/Generating-Clusters/EDIP-Nigel-Params/with-SteepDescent/Only-C1/SD-CG/HFTN-CG
REM
REM
REM
REM
REM
REM ./C.cell (11c1c37f851c82e70ff6c80c92926a4b)
REM
REM compiler GCC version 9.2.1 20190827 (Red Hat 9.2.1-1)
REM options -cpp -mtune=generic -march=x86-64 -g -O0 -fpre-include=/usr/include/finclude/math-vector-fortran.h
REM seed 578565963 -1414442994 2091799157 934347691 -191029274 727802752 -2018604964 -844577389 1272277219 -420438085 -144237439 -1465510193 1950171117 1022876783 2047159781 154902373 1141529709 1476109802 -1846773127 -201851365 503657132 102087291 -179314292 1780828346 -432291066 -1545483695 1562047020 1638638545 2129984561 358670833 150327310 -1495390542 -1362242255
REM
CELL 1.54180   50.00000   50.00000   50.00000   90.00000   90.00000   90.00000
LATT -1
SFAC C  
C      1  0.4843300000000  0.4624250000000  0.5192360000000 1.0
C      1  0.4288210000000  0.5402680000000  0.4606730000000 1.0
C      1  0.5811500000000  0.4634420000000  0.4710000000000 1.0
C      1  0.5400850000000  0.4394470000000  0.5239600000000 1.0
C      1  0.5007100000000  0.5950200000000  0.5123850000000 1.0
C      1  0.4464030000000  0.4749000000000  0.5488390000000 1.0
C      1  0.4802930000000  0.5401940000000  0.5258980000000 1.0
C      1  0.4413170000000  0.4337000000000  0.5262110000000 1.0
C      1  0.4721960000000  0.5445210000000  0.4369570000000 1.0
C      1  0.5709010000000  0.4405850000000  0.4865680000000 1.0
C      1  0.4676450000000  0.5020840000000  0.4641980000000 1.0
C      1  0.4110910000000  0.4694910000000  0.5153850000000 1.0
C      1  0.5795510000000  0.5540060000000  0.5040980000000 1.0
C      1  0.4752490000000  0.4534230000000  0.4724550000000 1.0
C      1  0.5561360000000  0.4778170000000  0.4609280000000 1.0
C      1  0.5830890000000  0.5175140000000  0.4975080000000 1.0
C      1  0.4319050000000  0.5188270000000  0.5514640000000 1.0
C      1  0.4665130000000  0.4252810000000  0.4665180000000 1.0
C      1  0.4294280000000  0.5183950000000  0.5223330000000 1.0
C      1  0.4257570000000  0.4803430000000  0.4752790000000 1.0
C      1  0.5679770000000  0.4466190000000  0.5158700000000 1.0
C      1  0.5352020000000  0.4723020000000  0.4152340000000 1.0
C      1  0.4860530000000  0.5168070000000  0.5704330000000 1.0
C      1  0.4472320000000  0.5395550000000  0.5653970000000 1.0
C      1  0.4794780000000  0.5127770000000  0.5394090000000 1.0
C      1  0.4857460000000  0.4138710000000  0.5399980000000 1.0
C      1  0.4319770000000  0.5441480000000  0.5097730000000 1.0
C      1  0.4183470000000  0.5468740000000  0.4855010000000 1.0
C      1  0.5948340000000  0.4899590000000  0.5038180000000 1.0
C      1  0.5305190000000  0.5003750000000  0.5721810000000 1.0
C      1  0.5482650000000  0.5402770000000  0.4199220000000 1.0
C      1  0.5234350000000  0.4973630000000  0.4143510000000 1.0
C      1  0.4919810000000  0.4454750000000  0.4267900000000 1.0
C      1  0.4496380000000  0.5897150000000  0.5107890000000 1.0
C      1  0.5062910000000  0.4100350000000  0.4941710000000 1.0
C      1  0.5048030000000  0.4736100000000  0.5383440000000 1.0
C      1  0.5257740000000  0.5621710000000  0.4861920000000 1.0
C      1  0.4680070000000  0.5197220000000  0.4197700000000 1.0
C      1  0.4551700000000  0.5525260000000  0.4602960000000 1.0
C      1  0.4550740000000  0.4746870000000  0.4617450000000 1.0
C      1  0.4334850000000  0.4944290000000  0.5669560000000 1.0
C      1  0.5467430000000  0.5603280000000  0.4647320000000 1.0
C      1  0.5150190000000  0.4421040000000  0.5681140000000 1.0
C      1  0.5138930000000  0.5212760000000  0.4537580000000 1.0
C      1  0.5795970000000  0.5225910000000  0.4665610000000 1.0
C      1  0.4259640000000  0.4563740000000  0.5372760000000 1.0
C      1  0.4934160000000  0.4132930000000  0.4665730000000 1.0
C      1  0.5379220000000  0.5166730000000  0.4337250000000 1.0
C      1  0.5231760000000  0.4343920000000  0.4978850000000 1.0
C      1  0.5046090000000  0.5408410000000  0.5717120000000 1.0
C      1  0.5322070000000  0.5293670000000  0.5641380000000 1.0
C      1  0.5062080000000  0.4331210000000  0.4478800000000 1.0
C      1  0.4939990000000  0.5002800000000  0.4497510000000 1.0
C      1  0.5549800000000  0.5178610000000  0.5107600000000 1.0
C      1  0.5604340000000  0.5587240000000  0.5265260000000 1.0
C      1  0.5052370000000  0.4175650000000  0.5593200000000 1.0
C      1  0.5338120000000  0.4811170000000  0.4844980000000 1.0
C      1  0.4664160000000  0.4553220000000  0.5620900000000 1.0
C      1  0.4456210000000  0.5001340000000  0.5918530000000 1.0
C      1  0.5053010000000  0.5020730000000  0.5283040000000 1.0
C      1  0.5452990000000  0.5834040000000  0.5252200000000 1.0
C      1  0.4456860000000  0.4130760000000  0.4814790000000 1.0
C      1  0.4416950000000  0.5668960000000  0.5260840000000 1.0
C      1  0.4982060000000  0.5013320000000  0.4994290000000 1.0
C      1  0.5476440000000  0.4894350000000  0.5101030000000 1.0
C      1  0.5474860000000  0.4785830000000  0.5608570000000 1.0
C      1  0.4157220000000  0.4535060000000  0.4901540000000 1.0
C      1  0.5740550000000  0.5527590000000  0.4732680000000 1.0
C      1  0.5120010000000  0.5702980000000  0.5395420000000 1.0
C      1  0.4757800000000  0.5866310000000  0.4995640000000 1.0
C      1  0.5749850000000  0.5157420000000  0.5495630000000 1.0
C      1  0.5576590000000  0.5382950000000  0.5497680000000 1.0
C      1  0.5726750000000  0.4765830000000  0.5197550000000 1.0
C      1  0.4928190000000  0.4958190000000  0.4208780000000 1.0
C      1  0.4993520000000  0.5481220000000  0.4483110000000 1.0
C      1  0.5025180000000  0.4925790000000  0.5782630000000 1.0
C      1  0.5298980000000  0.4573420000000  0.5471030000000 1.0
C      1  0.5441410000000  0.4322440000000  0.4770930000000 1.0
C      1  0.4599250000000  0.5787790000000  0.4751000000000 1.0
C      1  0.5272400000000  0.5876680000000  0.5026390000000 1.0
C      1  0.5202300000000  0.5128090000000  0.4836680000000 1.0
C      1  0.4932610000000  0.4631940000000  0.5740070000000 1.0
C      1  0.6038590000000  0.4759830000000  0.4816700000000 1.0
C      1  0.4975280000000  0.5562800000000  0.4762010000000 1.0
C      1  0.4313230000000  0.5118360000000  0.4530240000000 1.0
C      1  0.5724630000000  0.4873520000000  0.5479790000000 1.0
C      1  0.4365460000000  0.4342080000000  0.4977960000000 1.0
C      1  0.4913590000000  0.5661420000000  0.5606680000000 1.0
C      1  0.4236610000000  0.4946340000000  0.5053080000000 1.0
C      1  0.4696750000000  0.4384160000000  0.5362130000000 1.0
C      1  0.4523170000000  0.4741400000000  0.4306710000000 1.0
C      1  0.5114710000000  0.5420590000000  0.5280840000000 1.0
C      1  0.5298780000000  0.5366070000000  0.5030960000000 1.0
C      1  0.4437930000000  0.5034660000000  0.4269510000000 1.0
C      1  0.4611390000000  0.5231410000000  0.5859960000000 1.0
C      1  0.5607060000000  0.5053530000000  0.4506330000000 1.0
C      1  0.4733490000000  0.5426730000000  0.4939070000000 1.0
C      1  0.5136400000000  0.5680420000000  0.4326710000000 1.0
C      1  0.5347100000000  0.4370650000000  0.4499070000000 1.0
C      1  0.4919010000000  0.4010750000000  0.5162880000000 1.0
C      1  0.5401370000000  0.5611190000000  0.4363640000000 1.0
C      1  0.4788760000000  0.4688040000000  0.4175540000000 1.0
C      1  0.4714830000000  0.5108960000000  0.4927770000000 1.0
C      1  0.4632780000000  0.5577470000000  0.5467390000000 1.0
C      1  0.4628030000000  0.4891880000000  0.5237110000000 1.0
C      1  0.5036100000000  0.4591090000000  0.4911500000000 1.0
C      1  0.5458080000000  0.4611520000000  0.4385060000000 1.0
END
