TITL C-950521-2237-319 -2.8615322461764e-06 125000 -464.959247524785 0 0 75 (C1) n - 1
REM
REM in /home/bkarasulu/work/CARBON/AIRSS/Generating-Clusters/EDIP-Nigel-Params/with-SteepDescent/Only-C1/SD-CG/HFTN-CG
REM
REM
REM
REM
REM
REM ./C.cell (11c1c37f851c82e70ff6c80c92926a4b)
REM
REM compiler GCC version 9.2.1 20190827 (Red Hat 9.2.1-1)
REM options -cpp -mtune=generic -march=x86-64 -g -O0 -fpre-include=/usr/include/finclude/math-vector-fortran.h
REM seed 520653663 -707258489 -740160009 472923118 -1834635905 1513602879 1639872216 -1015421427 1795893159 -492758628 -1416423161 -983432508 -368490718 -921985939 -933572585 -1185145829 -219165694 -489571505 -7840282 -195016161 403668842 673320914 -1573294736 -1763905937 -234400127 234697528 1962027692 -743564649 2073308469 858612280 -367276628 976050922 -1829665510
REM
CELL 1.54180   50.00000   50.00000   50.00000   90.00000   90.00000   90.00000
LATT -1
SFAC C  
C      1  0.5135060000000  0.5767580000000  0.5381050000000 1.0
C      1  0.4872960000000  0.5514780000000  0.5498400000000 1.0
C      1  0.4353610000000  0.4726550000000  0.5428270000000 1.0
C      1  0.5229520000000  0.5438460000000  0.4245500000000 1.0
C      1  0.5681540000000  0.4735400000000  0.4844090000000 1.0
C      1  0.5125190000000  0.5167850000000  0.4183620000000 1.0
C      1  0.4846520000000  0.4107060000000  0.5043690000000 1.0
C      1  0.4724090000000  0.4555250000000  0.4498060000000 1.0
C      1  0.4274070000000  0.5263760000000  0.4934530000000 1.0
C      1  0.5316340000000  0.5403640000000  0.5662110000000 1.0
C      1  0.5699440000000  0.5178380000000  0.4723350000000 1.0
C      1  0.5477550000000  0.5434930000000  0.4373040000000 1.0
C      1  0.4614610000000  0.5032290000000  0.4602160000000 1.0
C      1  0.5139080000000  0.4543310000000  0.4828020000000 1.0
C      1  0.5275730000000  0.4385070000000  0.5043280000000 1.0
C      1  0.5310030000000  0.4564090000000  0.5289500000000 1.0
C      1  0.5152920000000  0.4994910000000  0.5452890000000 1.0
C      1  0.5188710000000  0.5193050000000  0.5180690000000 1.0
C      1  0.4479710000000  0.4472850000000  0.5321030000000 1.0
C      1  0.5445380000000  0.5321290000000  0.4638080000000 1.0
C      1  0.4409180000000  0.5532630000000  0.5305360000000 1.0
C      1  0.5495040000000  0.4301060000000  0.4616560000000 1.0
C      1  0.4184840000000  0.4890160000000  0.5266650000000 1.0
C      1  0.5480470000000  0.5176000000000  0.5667280000000 1.0
C      1  0.4208760000000  0.4824250000000  0.4792990000000 1.0
C      1  0.5210870000000  0.4610850000000  0.4327730000000 1.0
C      1  0.4471840000000  0.4433800000000  0.5024500000000 1.0
C      1  0.5602710000000  0.4883410000000  0.4358080000000 1.0
C      1  0.5580350000000  0.5559440000000  0.5295870000000 1.0
C      1  0.5053110000000  0.4701710000000  0.5387490000000 1.0
C      1  0.4688600000000  0.4761820000000  0.4706920000000 1.0
C      1  0.4444210000000  0.4679510000000  0.4863800000000 1.0
C      1  0.5133680000000  0.5035190000000  0.4913030000000 1.0
C      1  0.5507780000000  0.4915870000000  0.5581240000000 1.0
C      1  0.4672060000000  0.5100700000000  0.5516700000000 1.0
C      1  0.5029280000000  0.5368670000000  0.5705790000000 1.0
C      1  0.4701560000000  0.4362770000000  0.5462560000000 1.0
C      1  0.4493980000000  0.5447460000000  0.5029380000000 1.0
C      1  0.4569010000000  0.5407930000000  0.5537350000000 1.0
C      1  0.4515450000000  0.4868700000000  0.5638360000000 1.0
C      1  0.5306830000000  0.4518550000000  0.4589640000000 1.0
C      1  0.5363770000000  0.5608080000000  0.5463220000000 1.0
C      1  0.4932990000000  0.4611150000000  0.4325670000000 1.0
C      1  0.4877950000000  0.4544620000000  0.5589220000000 1.0
C      1  0.5099750000000  0.4168130000000  0.5110300000000 1.0
C      1  0.5690890000000  0.5168960000000  0.5020840000000 1.0
C      1  0.5677290000000  0.4881930000000  0.5092810000000 1.0
C      1  0.5750340000000  0.4458850000000  0.4861360000000 1.0
C      1  0.4662600000000  0.4251690000000  0.4892840000000 1.0
C      1  0.4982190000000  0.5707140000000  0.4631170000000 1.0
C      1  0.5396320000000  0.5519140000000  0.4857120000000 1.0
C      1  0.5473260000000  0.5364700000000  0.5107530000000 1.0
C      1  0.5515910000000  0.4780950000000  0.5322100000000 1.0
C      1  0.4741620000000  0.5280540000000  0.5060380000000 1.0
C      1  0.5532220000000  0.4268440000000  0.4909990000000 1.0
C      1  0.4706030000000  0.5032860000000  0.5224550000000 1.0
C      1  0.4208090000000  0.5349960000000  0.5394370000000 1.0
C      1  0.5065600000000  0.5011570000000  0.4433510000000 1.0
C      1  0.4717120000000  0.5766980000000  0.4680290000000 1.0
C      1  0.4536180000000  0.5667280000000  0.4850460000000 1.0
C      1  0.5137400000000  0.5648870000000  0.4867800000000 1.0
C      1  0.4143970000000  0.5158890000000  0.5187380000000 1.0
C      1  0.5204790000000  0.5139130000000  0.4659700000000 1.0
C      1  0.4706630000000  0.4302990000000  0.4619180000000 1.0
C      1  0.4967440000000  0.5414970000000  0.5199160000000 1.0
C      1  0.5060330000000  0.5781640000000  0.5106440000000 1.0
C      1  0.4963330000000  0.4782930000000  0.4891240000000 1.0
C      1  0.4795310000000  0.5122930000000  0.4391690000000 1.0
C      1  0.4870920000000  0.4787870000000  0.5168630000000 1.0
C      1  0.4325260000000  0.5074210000000  0.4705730000000 1.0
C      1  0.5351770000000  0.4853880000000  0.4223580000000 1.0
C      1  0.5731070000000  0.4908710000000  0.4609670000000 1.0
C      1  0.5049710000000  0.5598520000000  0.4385310000000 1.0
C      1  0.4948510000000  0.5099860000000  0.5643380000000 1.0
C      1  0.4711770000000  0.4700640000000  0.5754730000000 1.0
END
