TITL C-950529-3362-280 9.66518785371117e-07 125000 -428.388713439098 0 0 71 (C1) n - 1
REM
REM in /home/bkarasulu/work/CARBON/AIRSS/Generating-Clusters/EDIP-Nigel-Params/with-SteepDescent/Only-C1/SD-CG/HFTN-CG
REM
REM
REM
REM
REM
REM ./C.cell (11c1c37f851c82e70ff6c80c92926a4b)
REM
REM compiler GCC version 9.2.1 20190827 (Red Hat 9.2.1-1)
REM options -cpp -mtune=generic -march=x86-64 -g -O0 -fpre-include=/usr/include/finclude/math-vector-fortran.h
REM seed 1031304895 1355619575 -1131019767 1896344742 -70499997 2003423322 1237097048 -1956469876 513508660 -682007919 -590147443 -447970570 31426335 -2030745234 -1991127008 -897548163 -1041963209 768544206 -1640599188 278829077 -1341967026 -1572416400 1719601627 -221964038 1797903331 1819092854 172803138 -650091872 -1955252426 2224637 844213024 -952640206 1712593150
REM
CELL 1.54180   50.00000   50.00000   50.00000   90.00000   90.00000   90.00000
LATT -1
SFAC C  
C      1  0.4299840000000  0.5529030000000  0.5065090000000 1.0
C      1  0.4176670000000  0.4826550000000  0.5421050000000 1.0
C      1  0.4615450000000  0.4440140000000  0.4660840000000 1.0
C      1  0.5104760000000  0.5327330000000  0.4986370000000 1.0
C      1  0.5015410000000  0.5484830000000  0.4727040000000 1.0
C      1  0.5735590000000  0.4898710000000  0.5157960000000 1.0
C      1  0.4527560000000  0.5353330000000  0.4694840000000 1.0
C      1  0.4283000000000  0.5326360000000  0.4872040000000 1.0
C      1  0.4937010000000  0.4552100000000  0.5595340000000 1.0
C      1  0.5000020000000  0.5700100000000  0.5180390000000 1.0
C      1  0.5322060000000  0.4566600000000  0.4705320000000 1.0
C      1  0.4839200000000  0.5017640000000  0.4811500000000 1.0
C      1  0.5944200000000  0.5078570000000  0.5114230000000 1.0
C      1  0.5455360000000  0.4991900000000  0.5133890000000 1.0
C      1  0.4201610000000  0.5099830000000  0.5327420000000 1.0
C      1  0.4799950000000  0.5168570000000  0.5084240000000 1.0
C      1  0.5531350000000  0.4864630000000  0.4354250000000 1.0
C      1  0.4665950000000  0.4654160000000  0.4484160000000 1.0
C      1  0.4729800000000  0.5672920000000  0.5049040000000 1.0
C      1  0.5770380000000  0.4681710000000  0.5334170000000 1.0
C      1  0.5505700000000  0.4590650000000  0.5378890000000 1.0
C      1  0.5352640000000  0.5157950000000  0.4910390000000 1.0
C      1  0.4964630000000  0.5295350000000  0.5558300000000 1.0
C      1  0.5286450000000  0.4367630000000  0.4929800000000 1.0
C      1  0.5496810000000  0.5139460000000  0.4332350000000 1.0
C      1  0.5007360000000  0.4277980000000  0.4961890000000 1.0
C      1  0.4284400000000  0.4782910000000  0.4714980000000 1.0
C      1  0.4830210000000  0.4283090000000  0.4746080000000 1.0
C      1  0.4591440000000  0.4971650000000  0.5577110000000 1.0
C      1  0.5805210000000  0.5224750000000  0.4721040000000 1.0
C      1  0.5564180000000  0.4709360000000  0.4600310000000 1.0
C      1  0.5598570000000  0.5429180000000  0.4783160000000 1.0
C      1  0.5233070000000  0.4770720000000  0.5081790000000 1.0
C      1  0.5069930000000  0.5312190000000  0.4492230000000 1.0
C      1  0.4565980000000  0.5464420000000  0.5177660000000 1.0
C      1  0.5207460000000  0.5715270000000  0.4701480000000 1.0
C      1  0.5081970000000  0.5493300000000  0.5393200000000 1.0
C      1  0.5690320000000  0.4958550000000  0.4697120000000 1.0
C      1  0.4886240000000  0.4276310000000  0.5221790000000 1.0
C      1  0.4959330000000  0.4932510000000  0.4223570000000 1.0
C      1  0.4932270000000  0.4661930000000  0.5172180000000 1.0
C      1  0.5473510000000  0.5035290000000  0.5576570000000 1.0
C      1  0.5333670000000  0.5363130000000  0.4382040000000 1.0
C      1  0.4718680000000  0.4888380000000  0.5222030000000 1.0
C      1  0.4656910000000  0.5103290000000  0.4579480000000 1.0
C      1  0.4864470000000  0.5153390000000  0.4368190000000 1.0
C      1  0.5412510000000  0.4405750000000  0.5182850000000 1.0
C      1  0.6019750000000  0.5230920000000  0.4903090000000 1.0
C      1  0.4927290000000  0.4694740000000  0.4840390000000 1.0
C      1  0.5057130000000  0.4795910000000  0.5574320000000 1.0
C      1  0.4404560000000  0.4725530000000  0.5572710000000 1.0
C      1  0.5497700000000  0.5298530000000  0.5532460000000 1.0
C      1  0.5446430000000  0.5569290000000  0.4568060000000 1.0
C      1  0.4377440000000  0.4529280000000  0.4798360000000 1.0
C      1  0.4730210000000  0.5573460000000  0.4762700000000 1.0
C      1  0.4229490000000  0.5088040000000  0.5030820000000 1.0
C      1  0.4929230000000  0.4714220000000  0.4397010000000 1.0
C      1  0.4430430000000  0.4779490000000  0.5132200000000 1.0
C      1  0.5166820000000  0.4969900000000  0.4751690000000 1.0
C      1  0.5241600000000  0.5758930000000  0.4998240000000 1.0
C      1  0.4475340000000  0.4867430000000  0.4523910000000 1.0
C      1  0.4886310000000  0.5029050000000  0.5604990000000 1.0
C      1  0.4538140000000  0.5464530000000  0.5464450000000 1.0
C      1  0.4770130000000  0.4378160000000  0.5464540000000 1.0
C      1  0.4421830000000  0.5206750000000  0.5506200000000 1.0
C      1  0.4486990000000  0.4467090000000  0.5445000000000 1.0
C      1  0.5339030000000  0.4799570000000  0.5513590000000 1.0
C      1  0.5129110000000  0.4545880000000  0.4500320000000 1.0
C      1  0.5413980000000  0.5543930000000  0.5103960000000 1.0
C      1  0.4382410000000  0.4471110000000  0.5173710000000 1.0
C      1  0.5369560000000  0.5498810000000  0.5391600000000 1.0
END
