TITL C-950534-5965-522 -3.83995233026582e-06 125000 -631.112023412951 0 0 102 (C1) n - 1
REM
REM in /home/bkarasulu/work/CARBON/AIRSS/Generating-Clusters/EDIP-Nigel-Params/with-SteepDescent/Only-C1/SD-CG/HFTN-CG
REM
REM
REM
REM
REM
REM ./C.cell (11c1c37f851c82e70ff6c80c92926a4b)
REM
REM compiler GCC version 9.2.1 20190827 (Red Hat 9.2.1-1)
REM options -cpp -mtune=generic -march=x86-64 -g -O0 -fpre-include=/usr/include/finclude/math-vector-fortran.h
REM seed -1362659860 -1554068413 1060900029 -1743024596 -1873238279 -1597100603 1082779472 1219611479 962560689 -1980863998 -368214501 -414503594 -647026028 1636922787 -866007023 -1156273355 433269788 2118444202 -134278632 -1932019782 -285410746 -119658863 -697465205 -2110520698 203680759 290565519 -716890994 -2035821246 -276995941 -499727392 1000036260 117204022 -1566246790
REM
CELL 1.54180   50.00000   50.00000   50.00000   90.00000   90.00000   90.00000
LATT -1
SFAC C  
C      1  0.4837160000000  0.5043380000000  0.5238690000000 1.0
C      1  0.5260110000000  0.5014560000000  0.5537300000000 1.0
C      1  0.4797090000000  0.5173420000000  0.4071440000000 1.0
C      1  0.5105130000000  0.4944610000000  0.5995870000000 1.0
C      1  0.5819960000000  0.5343010000000  0.4798040000000 1.0
C      1  0.5261490000000  0.4150430000000  0.5264850000000 1.0
C      1  0.4460310000000  0.4968350000000  0.4380760000000 1.0
C      1  0.5113060000000  0.5585220000000  0.5146280000000 1.0
C      1  0.5681430000000  0.4684860000000  0.5452370000000 1.0
C      1  0.4982160000000  0.4464950000000  0.5132390000000 1.0
C      1  0.4371960000000  0.4380720000000  0.4815530000000 1.0
C      1  0.4635910000000  0.4685190000000  0.5412140000000 1.0
C      1  0.4304530000000  0.5073320000000  0.4610410000000 1.0
C      1  0.5368740000000  0.5591630000000  0.4621600000000 1.0
C      1  0.4938730000000  0.5747280000000  0.4718760000000 1.0
C      1  0.5290780000000  0.5245890000000  0.4095350000000 1.0
C      1  0.4924100000000  0.5014980000000  0.4962500000000 1.0
C      1  0.5007610000000  0.4975670000000  0.4449680000000 1.0
C      1  0.5452820000000  0.4275540000000  0.5457400000000 1.0
C      1  0.5446360000000  0.5182760000000  0.4340820000000 1.0
C      1  0.4150300000000  0.5328020000000  0.5153050000000 1.0
C      1  0.5608880000000  0.4646900000000  0.4787180000000 1.0
C      1  0.5643790000000  0.5607560000000  0.4780390000000 1.0
C      1  0.5016280000000  0.4299460000000  0.5801690000000 1.0
C      1  0.4473690000000  0.4685990000000  0.4331810000000 1.0
C      1  0.4650690000000  0.5330400000000  0.4546380000000 1.0
C      1  0.4921490000000  0.5691220000000  0.4421390000000 1.0
C      1  0.5708510000000  0.4556940000000  0.4525750000000 1.0
C      1  0.5056150000000  0.5188310000000  0.5391540000000 1.0
C      1  0.4883000000000  0.5238220000000  0.4356380000000 1.0
C      1  0.5330760000000  0.4769910000000  0.4738110000000 1.0
C      1  0.4763840000000  0.4790940000000  0.4877720000000 1.0
C      1  0.4470960000000  0.5628400000000  0.5000190000000 1.0
C      1  0.4492670000000  0.5807530000000  0.4566580000000 1.0
C      1  0.4875740000000  0.4709630000000  0.4609660000000 1.0
C      1  0.5650410000000  0.4437330000000  0.5298380000000 1.0
C      1  0.4794430000000  0.5289370000000  0.4835460000000 1.0
C      1  0.4455380000000  0.4406120000000  0.5092970000000 1.0
C      1  0.4712820000000  0.4594300000000  0.5107860000000 1.0
C      1  0.5075540000000  0.4836670000000  0.4190620000000 1.0
C      1  0.4698840000000  0.5158600000000  0.5891250000000 1.0
C      1  0.4271900000000  0.4901630000000  0.4840030000000 1.0
C      1  0.4683720000000  0.5358790000000  0.5700140000000 1.0
C      1  0.5272280000000  0.5077800000000  0.4571010000000 1.0
C      1  0.5257890000000  0.5344790000000  0.5241640000000 1.0
C      1  0.4617350000000  0.5377210000000  0.5038710000000 1.0
C      1  0.4305750000000  0.5001410000000  0.5134540000000 1.0
C      1  0.4842140000000  0.4919540000000  0.5862400000000 1.0
C      1  0.5174620000000  0.4678800000000  0.5209280000000 1.0
C      1  0.5652950000000  0.4951930000000  0.5354040000000 1.0
C      1  0.5011870000000  0.5480490000000  0.4863710000000 1.0
C      1  0.4255030000000  0.4631530000000  0.4766250000000 1.0
C      1  0.4431740000000  0.5724310000000  0.5280500000000 1.0
C      1  0.5818480000000  0.5079190000000  0.4671280000000 1.0
C      1  0.5456930000000  0.5415500000000  0.5458570000000 1.0
C      1  0.5571430000000  0.5018430000000  0.5078750000000 1.0
C      1  0.4833480000000  0.4185440000000  0.4826820000000 1.0
C      1  0.4574180000000  0.4988410000000  0.4110820000000 1.0
C      1  0.4281180000000  0.5354020000000  0.4652810000000 1.0
C      1  0.4683830000000  0.4533590000000  0.4460330000000 1.0
C      1  0.5649620000000  0.5590720000000  0.5305220000000 1.0
C      1  0.5751910000000  0.4885980000000  0.4879890000000 1.0
C      1  0.5219930000000  0.4436100000000  0.4369780000000 1.0
C      1  0.5675480000000  0.5007340000000  0.4328970000000 1.0
C      1  0.4958280000000  0.4129330000000  0.5333310000000 1.0
C      1  0.4843830000000  0.4244950000000  0.5587970000000 1.0
C      1  0.4637810000000  0.5612800000000  0.4420470000000 1.0
C      1  0.5167230000000  0.4732200000000  0.5500150000000 1.0
C      1  0.5079700000000  0.5065090000000  0.3995320000000 1.0
C      1  0.5247540000000  0.5336500000000  0.4741010000000 1.0
C      1  0.4568520000000  0.5170170000000  0.5235010000000 1.0
C      1  0.4612890000000  0.4308760000000  0.4654620000000 1.0
C      1  0.5337140000000  0.4241320000000  0.4991050000000 1.0
C      1  0.5275580000000  0.5128150000000  0.5819750000000 1.0
C      1  0.4340010000000  0.4762600000000  0.5332730000000 1.0
C      1  0.5240150000000  0.4897200000000  0.5008930000000 1.0
C      1  0.5231740000000  0.5851770000000  0.4758440000000 1.0
C      1  0.5204490000000  0.5415350000000  0.5759300000000 1.0
C      1  0.4779440000000  0.4105470000000  0.5097590000000 1.0
C      1  0.4958330000000  0.5415180000000  0.5577030000000 1.0
C      1  0.4876470000000  0.4790340000000  0.5593530000000 1.0
C      1  0.5238770000000  0.4449310000000  0.5880020000000 1.0
C      1  0.5373960000000  0.4531850000000  0.5629930000000 1.0
C      1  0.4632230000000  0.4425530000000  0.5546030000000 1.0
C      1  0.4274840000000  0.5482510000000  0.5391470000000 1.0
C      1  0.5611480000000  0.5169070000000  0.5534310000000 1.0
C      1  0.4474070000000  0.5281820000000  0.5503200000000 1.0
C      1  0.5646750000000  0.5316670000000  0.5042940000000 1.0
C      1  0.4633160000000  0.5814620000000  0.4811450000000 1.0
C      1  0.4939630000000  0.5654670000000  0.5394880000000 1.0
C      1  0.5316180000000  0.4656590000000  0.4230810000000 1.0
C      1  0.4236920000000  0.4516560000000  0.5242700000000 1.0
C      1  0.5202400000000  0.4681060000000  0.6031040000000 1.0
C      1  0.5295040000000  0.5817670000000  0.5049980000000 1.0
C      1  0.5566300000000  0.4428790000000  0.5007130000000 1.0
C      1  0.5109730000000  0.5469010000000  0.4351910000000 1.0
C      1  0.4685980000000  0.5770250000000  0.5390090000000 1.0
C      1  0.4211720000000  0.5493980000000  0.4902670000000 1.0
C      1  0.5572880000000  0.4739560000000  0.4354340000000 1.0
C      1  0.5583100000000  0.5749970000000  0.5061500000000 1.0
C      1  0.5110060000000  0.4303940000000  0.4799200000000 1.0
C      1  0.5138340000000  0.4548840000000  0.4626120000000 1.0
END
