TITL C-951338-5626-356 -5.44952740937465e-07 125000 -216.121246800995 0 0 37 (C1) n - 1
REM
REM in /home/bkarasulu/work/CARBON/AIRSS/Generating-Clusters/EDIP-Nigel-Params/with-SteepDescent/Only-C1/SD-CG/HFTN-CG
REM
REM
REM
REM
REM
REM ./C.cell (11c1c37f851c82e70ff6c80c92926a4b)
REM
REM compiler GCC version 9.2.1 20190827 (Red Hat 9.2.1-1)
REM options -cpp -mtune=generic -march=x86-64 -g -O0 -fpre-include=/usr/include/finclude/math-vector-fortran.h
REM seed -514641930 -1258748116 101151942 -588509036 554943034 2095476684 1033775699 17670309 -1478888596 -817602843 -443020254 1552937211 1700642039 235721262 -1705772763 -1543465876 2049611914 -1537169172 -681323992 -1966364685 1684832977 -164918119 363168456 -291087463 -1644741537 -1327290346 -18127609 1681037381 922601925 -808634069 -232113827 -631036834 1399254753
REM
CELL 1.54180   50.00000   50.00000   50.00000   90.00000   90.00000   90.00000
LATT -1
SFAC C  
C      1  0.5561430000000  0.4905790000000  0.5322320000000 1.0
C      1  0.4514290000000  0.4641190000000  0.5219020000000 1.0
C      1  0.4600260000000  0.4946640000000  0.4739270000000 1.0
C      1  0.5055670000000  0.5479170000000  0.5069930000000 1.0
C      1  0.5042210000000  0.5029610000000  0.4506400000000 1.0
C      1  0.5027010000000  0.4450370000000  0.4676800000000 1.0
C      1  0.4749370000000  0.4435660000000  0.4793260000000 1.0
C      1  0.4804970000000  0.5371460000000  0.4667800000000 1.0
C      1  0.5072720000000  0.5487430000000  0.5527090000000 1.0
C      1  0.4856730000000  0.5284000000000  0.5183490000000 1.0
C      1  0.5171010000000  0.4628380000000  0.5410650000000 1.0
C      1  0.4853150000000  0.5333680000000  0.5471700000000 1.0
C      1  0.5432710000000  0.4643890000000  0.5278980000000 1.0
C      1  0.5135090000000  0.5272270000000  0.4381770000000 1.0
C      1  0.5407450000000  0.5157950000000  0.5311860000000 1.0
C      1  0.5497150000000  0.5512440000000  0.4937760000000 1.0
C      1  0.5189520000000  0.4659530000000  0.4808020000000 1.0
C      1  0.4951960000000  0.4826970000000  0.5371070000000 1.0
C      1  0.4859800000000  0.5085410000000  0.4745140000000 1.0
C      1  0.4723740000000  0.4350760000000  0.5072710000000 1.0
C      1  0.5266620000000  0.4999860000000  0.5082490000000 1.0
C      1  0.5011470000000  0.4494790000000  0.4413090000000 1.0
C      1  0.5257100000000  0.4895270000000  0.4643990000000 1.0
C      1  0.5242730000000  0.5401070000000  0.4837960000000 1.0
C      1  0.5209040000000  0.5585580000000  0.5299240000000 1.0
C      1  0.5469700000000  0.5450640000000  0.5225730000000 1.0
C      1  0.4599410000000  0.4666720000000  0.4727660000000 1.0
C      1  0.5076820000000  0.5464250000000  0.4582370000000 1.0
C      1  0.4728800000000  0.4632470000000  0.5410700000000 1.0
C      1  0.4586330000000  0.5330570000000  0.5051160000000 1.0
C      1  0.4882510000000  0.4394610000000  0.5317530000000 1.0
C      1  0.5340430000000  0.5110920000000  0.4827510000000 1.0
C      1  0.4452360000000  0.5072350000000  0.4962910000000 1.0
C      1  0.4396400000000  0.4883580000000  0.5162070000000 1.0
C      1  0.4634030000000  0.5516670000000  0.4841020000000 1.0
C      1  0.4960790000000  0.5002930000000  0.5113760000000 1.0
C      1  0.5379210000000  0.4595110000000  0.5005800000000 1.0
END
