TITL C-950530-3293-478 4.7493969533077e-07 125000 -1012.88136988344 0 0 163 (C1) n - 1
REM
REM in /home/bkarasulu/work/CARBON/AIRSS/Generating-Clusters/EDIP-Nigel-Params/with-SteepDescent/Only-C1/SD-CG/HFTN-CG
REM
REM
REM
REM
REM
REM ./C.cell (11c1c37f851c82e70ff6c80c92926a4b)
REM
REM compiler GCC version 9.2.1 20190827 (Red Hat 9.2.1-1)
REM options -cpp -mtune=generic -march=x86-64 -g -O0 -fpre-include=/usr/include/finclude/math-vector-fortran.h
REM seed 2009860379 339704680 -2043216979 1746734665 988096299 93402442 771348550 -569216505 -373989193 710091302 1844501099 -2023069737 482481367 -1314154642 -1881093503 -1554407700 1738151485 2108497885 202648072 1274508994 -635326770 -709290992 1736672418 -314938800 -991614430 -1584138213 -1590559718 -1163021188 -349689126 -1405993958 1718210768 -174456796 1614218655
REM
CELL 1.54180   50.00000   50.00000   50.00000   90.00000   90.00000   90.00000
LATT -1
SFAC C  
C      1  0.5042730000000  0.5499900000000  0.4716740000000 1.0
C      1  0.4760250000000  0.5141190000000  0.5806060000000 1.0
C      1  0.4892450000000  0.6069440000000  0.5063100000000 1.0
C      1  0.5091340000000  0.4821660000000  0.6088390000000 1.0
C      1  0.4353880000000  0.4750140000000  0.4504990000000 1.0
C      1  0.5967960000000  0.5037990000000  0.4440060000000 1.0
C      1  0.5533760000000  0.5129680000000  0.4966520000000 1.0
C      1  0.3944950000000  0.5012400000000  0.4671960000000 1.0
C      1  0.4657270000000  0.5782310000000  0.5734820000000 1.0
C      1  0.4345450000000  0.4858710000000  0.5854180000000 1.0
C      1  0.5128240000000  0.3986780000000  0.5352570000000 1.0
C      1  0.4830720000000  0.5027900000000  0.4425920000000 1.0
C      1  0.4012260000000  0.4515410000000  0.4676110000000 1.0
C      1  0.4550260000000  0.5969330000000  0.4949600000000 1.0
C      1  0.4549870000000  0.5284570000000  0.5665890000000 1.0
C      1  0.5237800000000  0.5014750000000  0.5663450000000 1.0
C      1  0.4877340000000  0.5923960000000  0.4316520000000 1.0
C      1  0.4347180000000  0.4364060000000  0.5045330000000 1.0
C      1  0.5218690000000  0.5805600000000  0.4451480000000 1.0
C      1  0.5509730000000  0.4603320000000  0.5096200000000 1.0
C      1  0.4380220000000  0.5752300000000  0.5683100000000 1.0
C      1  0.5548220000000  0.5391290000000  0.4774960000000 1.0
C      1  0.4691800000000  0.5034920000000  0.4010100000000 1.0
C      1  0.5188780000000  0.5918390000000  0.4732610000000 1.0
C      1  0.5227500000000  0.4585470000000  0.6160240000000 1.0
C      1  0.5162650000000  0.5348740000000  0.5207180000000 1.0
C      1  0.4789200000000  0.4003810000000  0.4874910000000 1.0
C      1  0.4823090000000  0.5830190000000  0.5508230000000 1.0
C      1  0.5302780000000  0.5691660000000  0.5565790000000 1.0
C      1  0.4949050000000  0.5295520000000  0.5405770000000 1.0
C      1  0.4272180000000  0.5147620000000  0.5002730000000 1.0
C      1  0.5666770000000  0.5523080000000  0.4444070000000 1.0
C      1  0.4945400000000  0.5670810000000  0.5177020000000 1.0
C      1  0.5972000000000  0.5191770000000  0.4965940000000 1.0
C      1  0.5787850000000  0.4497300000000  0.5121020000000 1.0
C      1  0.5015180000000  0.4491390000000  0.5715170000000 1.0
C      1  0.5082460000000  0.5127910000000  0.5017980000000 1.0
C      1  0.4985500000000  0.4392330000000  0.5233880000000 1.0
C      1  0.4371080000000  0.4884190000000  0.5037460000000 1.0
C      1  0.5143320000000  0.4191760000000  0.4552520000000 1.0
C      1  0.4891980000000  0.4827460000000  0.5379470000000 1.0
C      1  0.5860180000000  0.4650820000000  0.4681660000000 1.0
C      1  0.4443720000000  0.5566410000000  0.4390230000000 1.0
C      1  0.5873850000000  0.5457780000000  0.5070390000000 1.0
C      1  0.4152820000000  0.4867220000000  0.5514650000000 1.0
C      1  0.5621650000000  0.5826930000000  0.4767550000000 1.0
C      1  0.5925450000000  0.4840160000000  0.5410410000000 1.0
C      1  0.5058370000000  0.3875900000000  0.4853610000000 1.0
C      1  0.4557290000000  0.4467300000000  0.5581000000000 1.0
C      1  0.4850630000000  0.4334800000000  0.4133560000000 1.0
C      1  0.5656500000000  0.4428990000000  0.4650110000000 1.0
C      1  0.4981710000000  0.5551120000000  0.4285220000000 1.0
C      1  0.4016230000000  0.5211310000000  0.5154230000000 1.0
C      1  0.4289530000000  0.5274620000000  0.4750590000000 1.0
C      1  0.3944100000000  0.4741160000000  0.4829690000000 1.0
C      1  0.5029880000000  0.4690060000000  0.3863210000000 1.0
C      1  0.5737370000000  0.5180090000000  0.5844840000000 1.0
C      1  0.4624050000000  0.4912450000000  0.5940820000000 1.0
C      1  0.5177060000000  0.5330630000000  0.5972550000000 1.0
C      1  0.5526430000000  0.5774380000000  0.4482150000000 1.0
C      1  0.4777270000000  0.6030330000000  0.4569180000000 1.0
C      1  0.5261230000000  0.4454860000000  0.5910400000000 1.0
C      1  0.4407580000000  0.4905940000000  0.5352770000000 1.0
C      1  0.5121720000000  0.6064080000000  0.5266740000000 1.0
C      1  0.5273800000000  0.5035380000000  0.5954340000000 1.0
C      1  0.4717680000000  0.5260920000000  0.5225980000000 1.0
C      1  0.5161130000000  0.5684310000000  0.4914810000000 1.0
C      1  0.4298720000000  0.4366470000000  0.5482740000000 1.0
C      1  0.4687490000000  0.5522180000000  0.5087010000000 1.0
C      1  0.4249440000000  0.5425410000000  0.5342720000000 1.0
C      1  0.5578740000000  0.4459930000000  0.5522960000000 1.0
C      1  0.5246820000000  0.4752700000000  0.4738130000000 1.0
C      1  0.4295140000000  0.5333420000000  0.5812030000000 1.0
C      1  0.4629680000000  0.4542210000000  0.4075320000000 1.0
C      1  0.4159320000000  0.5077370000000  0.5827040000000 1.0
C      1  0.4847400000000  0.4729850000000  0.5955010000000 1.0
C      1  0.5385720000000  0.6132500000000  0.5204060000000 1.0
C      1  0.5302160000000  0.4036640000000  0.5566890000000 1.0
C      1  0.5884220000000  0.5668800000000  0.4832070000000 1.0
C      1  0.4520250000000  0.4793020000000  0.4784100000000 1.0
C      1  0.4623870000000  0.4725130000000  0.5443750000000 1.0
C      1  0.4798990000000  0.5282180000000  0.3915090000000 1.0
C      1  0.4827040000000  0.4591820000000  0.4507680000000 1.0
C      1  0.5225330000000  0.4903230000000  0.3863060000000 1.0
C      1  0.4931910000000  0.4414790000000  0.4948020000000 1.0
C      1  0.5823390000000  0.5117140000000  0.4216670000000 1.0
C      1  0.5722860000000  0.4959950000000  0.5608870000000 1.0
C      1  0.5482640000000  0.4840860000000  0.3997220000000 1.0
C      1  0.5561710000000  0.5918800000000  0.5194850000000 1.0
C      1  0.5347800000000  0.5530750000000  0.5817420000000 1.0
C      1  0.5947370000000  0.4927820000000  0.5115000000000 1.0
C      1  0.5085090000000  0.4597300000000  0.5421530000000 1.0
C      1  0.4193840000000  0.5545340000000  0.5624990000000 1.0
C      1  0.4570090000000  0.4474790000000  0.4859740000000 1.0
C      1  0.4866180000000  0.4289070000000  0.4434670000000 1.0
C      1  0.4598970000000  0.4733950000000  0.4321920000000 1.0
C      1  0.5156440000000  0.3906210000000  0.4582620000000 1.0
C      1  0.5679150000000  0.4736770000000  0.5915260000000 1.0
C      1  0.4628360000000  0.5816130000000  0.4707990000000 1.0
C      1  0.4963630000000  0.5058530000000  0.5572170000000 1.0
C      1  0.5097420000000  0.5904220000000  0.5514220000000 1.0
C      1  0.4739700000000  0.5523250000000  0.4781230000000 1.0
C      1  0.5095150000000  0.4511120000000  0.4085280000000 1.0
C      1  0.5542310000000  0.5705920000000  0.5388930000000 1.0
C      1  0.5605900000000  0.5423970000000  0.5819610000000 1.0
C      1  0.3859280000000  0.5262800000000  0.4891500000000 1.0
C      1  0.4350640000000  0.5757950000000  0.4616440000000 1.0
C      1  0.4884210000000  0.4151590000000  0.5358140000000 1.0
C      1  0.4706160000000  0.5034000000000  0.4692010000000 1.0
C      1  0.5768620000000  0.4211800000000  0.5027310000000 1.0
C      1  0.5043290000000  0.5397230000000  0.4030730000000 1.0
C      1  0.3976190000000  0.4708990000000  0.5133360000000 1.0
C      1  0.5459970000000  0.5639860000000  0.4962140000000 1.0
C      1  0.5462650000000  0.5219340000000  0.5249830000000 1.0
C      1  0.5567060000000  0.4372620000000  0.4363400000000 1.0
C      1  0.5572040000000  0.5104620000000  0.4095550000000 1.0
C      1  0.4292610000000  0.5821620000000  0.4994290000000 1.0
C      1  0.4685720000000  0.4035200000000  0.5157140000000 1.0
C      1  0.4029980000000  0.5392180000000  0.4695830000000 1.0
C      1  0.4778210000000  0.5616680000000  0.5926300000000 1.0
C      1  0.5453710000000  0.4966410000000  0.5464620000000 1.0
C      1  0.5922490000000  0.5499860000000  0.4585860000000 1.0
C      1  0.5372920000000  0.4160700000000  0.4378150000000 1.0
C      1  0.4883330000000  0.4921800000000  0.5076200000000 1.0
C      1  0.4795310000000  0.4281720000000  0.5633640000000 1.0
C      1  0.5193820000000  0.4293280000000  0.4841900000000 1.0
C      1  0.4312270000000  0.5230630000000  0.4307810000000 1.0
C      1  0.5108480000000  0.5143040000000  0.4389040000000 1.0
C      1  0.5976290000000  0.5222170000000  0.4667120000000 1.0
C      1  0.5038150000000  0.4713250000000  0.4315730000000 1.0
C      1  0.5766870000000  0.4180000000000  0.4750820000000 1.0
C      1  0.4406930000000  0.5621480000000  0.5172640000000 1.0
C      1  0.5531500000000  0.4512450000000  0.5808890000000 1.0
C      1  0.5444770000000  0.4612120000000  0.4216410000000 1.0
C      1  0.5262040000000  0.3991690000000  0.5077170000000 1.0
C      1  0.5954450000000  0.4678770000000  0.4954150000000 1.0
C      1  0.4473230000000  0.4308820000000  0.4626930000000 1.0
C      1  0.6006360000000  0.4767080000000  0.4478680000000 1.0
C      1  0.5391830000000  0.4663490000000  0.5367070000000 1.0
C      1  0.5230700000000  0.5175700000000  0.4114280000000 1.0
C      1  0.5406430000000  0.4515500000000  0.4836170000000 1.0
C      1  0.4631060000000  0.4057510000000  0.4628520000000 1.0
C      1  0.5233770000000  0.5277040000000  0.4626620000000 1.0
C      1  0.4951770000000  0.4699210000000  0.4839230000000 1.0
C      1  0.3939620000000  0.4952500000000  0.5306700000000 1.0
C      1  0.5290800000000  0.4746400000000  0.4446720000000 1.0
C      1  0.4699000000000  0.5671850000000  0.4248290000000 1.0
C      1  0.5556690000000  0.4070250000000  0.5175900000000 1.0
C      1  0.4448970000000  0.5178460000000  0.4055330000000 1.0
C      1  0.4235610000000  0.4470530000000  0.4512030000000 1.0
C      1  0.4204550000000  0.4526290000000  0.5238620000000 1.0
C      1  0.5280470000000  0.5046970000000  0.4835430000000 1.0
C      1  0.5859280000000  0.4544060000000  0.5414150000000 1.0
C      1  0.4884060000000  0.5359660000000  0.5973340000000 1.0
C      1  0.4420690000000  0.4136420000000  0.5199550000000 1.0
C      1  0.4478810000000  0.5209310000000  0.5393120000000 1.0
C      1  0.5521640000000  0.4166430000000  0.5452300000000 1.0
C      1  0.4169570000000  0.4989260000000  0.4437420000000 1.0
C      1  0.4570850000000  0.5301620000000  0.4645880000000 1.0
C      1  0.4975590000000  0.6111170000000  0.4776890000000 1.0
C      1  0.5665510000000  0.5448650000000  0.5299750000000 1.0
C      1  0.4741880000000  0.4762560000000  0.3903090000000 1.0
C      1  0.5574700000000  0.4992910000000  0.6015250000000 1.0
END
