TITL C-951340-9809-23 1.82260051016919e-05 125000 -207.754348711194 0 0 36 (C1) n - 1
REM
REM in /home/bkarasulu/work/CARBON/AIRSS/Generating-Clusters/EDIP-Nigel-Params/with-SteepDescent/Only-C1/SD-CG/HFTN-CG
REM
REM
REM
REM
REM
REM ./C.cell (11c1c37f851c82e70ff6c80c92926a4b)
REM
REM compiler GCC version 9.2.1 20190827 (Red Hat 9.2.1-1)
REM options -cpp -mtune=generic -march=x86-64 -g -O0 -fpre-include=/usr/include/finclude/math-vector-fortran.h
REM seed 1047241709 -566043555 -1775247456 -1735711016 1273239362 162868364 -98529913 -1726279212 1949868643 -869954730 -91021938 -2099189498 1773476494 -1296672943 66279285 -1963521333 187816980 -22904294 -90335104 2058592594 -727917828 628428966 1609748184 -11100974 1370271563 -1957967489 -1913790740 2108427496 66196937 -1513027515 1478093675 -1222221468 481190362
REM
CELL 1.54180   50.00000   50.00000   50.00000   90.00000   90.00000   90.00000
LATT -1
SFAC C  
C      1  0.4435320000000  0.5089600000000  0.4796480000000 1.0
C      1  0.5033870000000  0.4509550000000  0.4926090000000 1.0
C      1  0.5936020000000  0.5179170000000  0.4963250000000 1.0
C      1  0.4587470000000  0.4810660000000  0.5384830000000 1.0
C      1  0.4987480000000  0.4963260000000  0.4341630000000 1.0
C      1  0.4994070000000  0.5012070000000  0.5639820000000 1.0
C      1  0.4893300000000  0.5469810000000  0.4566730000000 1.0
C      1  0.5309920000000  0.4836750000000  0.5379000000000 1.0
C      1  0.4649070000000  0.4721520000000  0.4668860000000 1.0
C      1  0.5273900000000  0.4963420000000  0.5629550000000 1.0
C      1  0.5163900000000  0.4407160000000  0.5154300000000 1.0
C      1  0.4855450000000  0.4774290000000  0.5505320000000 1.0
C      1  0.4396810000000  0.4850190000000  0.4658540000000 1.0
C      1  0.4825060000000  0.4773300000000  0.4460610000000 1.0
C      1  0.5323210000000  0.4876900000000  0.4694000000000 1.0
C      1  0.5294530000000  0.5273710000000  0.4391260000000 1.0
C      1  0.4751660000000  0.4602120000000  0.4918070000000 1.0
C      1  0.5560300000000  0.5296950000000  0.5212660000000 1.0
C      1  0.5360660000000  0.5405860000000  0.5357380000000 1.0
C      1  0.5088990000000  0.5413680000000  0.5294400000000 1.0
C      1  0.4381490000000  0.5257450000000  0.5202250000000 1.0
C      1  0.4885300000000  0.5222440000000  0.5447630000000 1.0
C      1  0.5676570000000  0.5153990000000  0.5005460000000 1.0
C      1  0.4921260000000  0.5475570000000  0.4831970000000 1.0
C      1  0.5262980000000  0.4991880000000  0.4437160000000 1.0
C      1  0.4585800000000  0.5120980000000  0.5369420000000 1.0
C      1  0.5050460000000  0.5320450000000  0.5021000000000 1.0
C      1  0.4248450000000  0.5217560000000  0.4961870000000 1.0
C      1  0.5531340000000  0.4981770000000  0.4844340000000 1.0
C      1  0.5015020000000  0.5340930000000  0.4355630000000 1.0
C      1  0.4583830000000  0.4637620000000  0.5150250000000 1.0
C      1  0.5327750000000  0.4548230000000  0.5332160000000 1.0
C      1  0.5032940000000  0.4799050000000  0.5256770000000 1.0
C      1  0.4926290000000  0.5057070000000  0.5097920000000 1.0
C      1  0.5209700000000  0.4628360000000  0.4746110000000 1.0
C      1  0.4639830000000  0.5016670000000  0.4997290000000 1.0
END
