TITL C-950522-5749-374 -1.00335278706548e-06 125000 -611.161777216432 0 0 99 (C1) n - 1
REM
REM in /home/bkarasulu/work/CARBON/AIRSS/Generating-Clusters/EDIP-Nigel-Params/with-SteepDescent/Only-C1/SD-CG/HFTN-CG
REM
REM
REM
REM
REM
REM ./C.cell (11c1c37f851c82e70ff6c80c92926a4b)
REM
REM compiler GCC version 9.2.1 20190827 (Red Hat 9.2.1-1)
REM options -cpp -mtune=generic -march=x86-64 -g -O0 -fpre-include=/usr/include/finclude/math-vector-fortran.h
REM seed -1705587690 1549589676 455946341 663800865 628627201 1420878983 -1014170457 1786740232 1333540950 1776681879 1490371637 145834137 -1831094901 346603873 1417717680 1516769774 -176585168 -1959853135 -752870073 835802322 1005330549 -1840209246 -2064084875 1363994526 -1362216331 802634405 -1971013175 879278657 -1767445051 -2121281825 -436462485 784437799 463566508
REM
CELL 1.54180   50.00000   50.00000   50.00000   90.00000   90.00000   90.00000
LATT -1
SFAC C  
C      1  0.4814460000000  0.4482940000000  0.4730250000000 1.0
C      1  0.4940440000000  0.5018260000000  0.4157240000000 1.0
C      1  0.5057250000000  0.4472220000000  0.5234340000000 1.0
C      1  0.5733730000000  0.5223670000000  0.4833020000000 1.0
C      1  0.5040050000000  0.5825910000000  0.4977760000000 1.0
C      1  0.4928960000000  0.4529980000000  0.4294710000000 1.0
C      1  0.4944940000000  0.5256480000000  0.5113360000000 1.0
C      1  0.4961140000000  0.5479050000000  0.4292770000000 1.0
C      1  0.5445920000000  0.5152830000000  0.4882660000000 1.0
C      1  0.4612590000000  0.5683080000000  0.4725810000000 1.0
C      1  0.4890150000000  0.4166750000000  0.5554460000000 1.0
C      1  0.5482890000000  0.4499080000000  0.4285070000000 1.0
C      1  0.4209600000000  0.4695020000000  0.4871150000000 1.0
C      1  0.4292120000000  0.5312240000000  0.4520640000000 1.0
C      1  0.4793990000000  0.4756920000000  0.5705990000000 1.0
C      1  0.5076350000000  0.4767130000000  0.4229590000000 1.0
C      1  0.5522330000000  0.4406510000000  0.5422080000000 1.0
C      1  0.4881170000000  0.5001980000000  0.4729420000000 1.0
C      1  0.5339060000000  0.5797580000000  0.5000240000000 1.0
C      1  0.5374670000000  0.5705730000000  0.5273200000000 1.0
C      1  0.4903040000000  0.5756300000000  0.4712120000000 1.0
C      1  0.4222760000000  0.5529660000000  0.5168710000000 1.0
C      1  0.4438440000000  0.5372430000000  0.5597160000000 1.0
C      1  0.5369240000000  0.4848950000000  0.4888470000000 1.0
C      1  0.5365830000000  0.4749220000000  0.4244080000000 1.0
C      1  0.5634610000000  0.5632380000000  0.5357950000000 1.0
C      1  0.4965450000000  0.4748050000000  0.5143350000000 1.0
C      1  0.5744540000000  0.4919070000000  0.4535470000000 1.0
C      1  0.5763330000000  0.5306690000000  0.4553320000000 1.0
C      1  0.5495310000000  0.4467110000000  0.4562400000000 1.0
C      1  0.5051460000000  0.5107280000000  0.5818180000000 1.0
C      1  0.4230990000000  0.5317800000000  0.5380220000000 1.0
C      1  0.5005630000000  0.4381350000000  0.4536680000000 1.0
C      1  0.5860420000000  0.4793870000000  0.5099090000000 1.0
C      1  0.4223720000000  0.4987330000000  0.4972620000000 1.0
C      1  0.5395880000000  0.4733190000000  0.5720450000000 1.0
C      1  0.4546210000000  0.4604800000000  0.5047910000000 1.0
C      1  0.4635700000000  0.5086960000000  0.4300240000000 1.0
C      1  0.5675350000000  0.5152730000000  0.5445500000000 1.0
C      1  0.4251170000000  0.5252040000000  0.4821790000000 1.0
C      1  0.5052600000000  0.3961490000000  0.5014050000000 1.0
C      1  0.5261180000000  0.4355420000000  0.5002010000000 1.0
C      1  0.4791800000000  0.5666440000000  0.5762570000000 1.0
C      1  0.5453770000000  0.5634150000000  0.4793930000000 1.0
C      1  0.5301800000000  0.4073370000000  0.5038320000000 1.0
C      1  0.4262330000000  0.5031210000000  0.5270690000000 1.0
C      1  0.5152100000000  0.4876030000000  0.5621870000000 1.0
C      1  0.5229600000000  0.4463720000000  0.5500470000000 1.0
C      1  0.5547880000000  0.5444850000000  0.4386900000000 1.0
C      1  0.4071110000000  0.5446480000000  0.4944430000000 1.0
C      1  0.4565240000000  0.4693370000000  0.5540180000000 1.0
C      1  0.4913620000000  0.5829720000000  0.5256770000000 1.0
C      1  0.4701640000000  0.5372250000000  0.4356080000000 1.0
C      1  0.4662860000000  0.4246320000000  0.4823050000000 1.0
C      1  0.5435960000000  0.5239870000000  0.5598690000000 1.0
C      1  0.5118040000000  0.5255970000000  0.4189550000000 1.0
C      1  0.5900480000000  0.4992740000000  0.4885380000000 1.0
C      1  0.5235710000000  0.5026890000000  0.5338330000000 1.0
C      1  0.4304420000000  0.4370120000000  0.5266560000000 1.0
C      1  0.5249950000000  0.4419710000000  0.4698430000000 1.0
C      1  0.4665190000000  0.4922060000000  0.4552360000000 1.0
C      1  0.4338410000000  0.5111830000000  0.4318650000000 1.0
C      1  0.5662370000000  0.5373030000000  0.5243510000000 1.0
C      1  0.5748870000000  0.4554260000000  0.4963840000000 1.0
C      1  0.4505190000000  0.5585360000000  0.5086270000000 1.0
C      1  0.5378020000000  0.5279420000000  0.5149160000000 1.0
C      1  0.4712970000000  0.5612580000000  0.5317800000000 1.0
C      1  0.5141780000000  0.5781570000000  0.5439760000000 1.0
C      1  0.4743470000000  0.5121100000000  0.4960790000000 1.0
C      1  0.4146480000000  0.4517090000000  0.5091860000000 1.0
C      1  0.4569170000000  0.4468760000000  0.5335020000000 1.0
C      1  0.4394600000000  0.4259670000000  0.4738470000000 1.0
C      1  0.4773380000000  0.5037930000000  0.5777380000000 1.0
C      1  0.4685370000000  0.4867200000000  0.5129160000000 1.0
C      1  0.5658590000000  0.4865040000000  0.5320650000000 1.0
C      1  0.5346450000000  0.5223500000000  0.4385450000000 1.0
C      1  0.5095150000000  0.5441660000000  0.4940620000000 1.0
C      1  0.4869640000000  0.5350800000000  0.5379620000000 1.0
C      1  0.4573520000000  0.5640840000000  0.5585080000000 1.0
C      1  0.5120210000000  0.4254280000000  0.5664260000000 1.0
C      1  0.5507170000000  0.4974640000000  0.4351600000000 1.0
C      1  0.5552730000000  0.4361210000000  0.5123140000000 1.0
C      1  0.5084200000000  0.5648850000000  0.4498780000000 1.0
C      1  0.4821240000000  0.4298750000000  0.5318630000000 1.0
C      1  0.4660220000000  0.5176220000000  0.5534240000000 1.0
C      1  0.5151560000000  0.5329190000000  0.5648370000000 1.0
C      1  0.4531960000000  0.5341800000000  0.4893330000000 1.0
C      1  0.5390850000000  0.5675830000000  0.4516720000000 1.0
C      1  0.5268240000000  0.5304230000000  0.4705480000000 1.0
C      1  0.4534890000000  0.4943700000000  0.5376900000000 1.0
C      1  0.5058410000000  0.5618750000000  0.5675590000000 1.0
C      1  0.5397000000000  0.4831470000000  0.5187670000000 1.0
C      1  0.5044440000000  0.4774980000000  0.4852180000000 1.0
C      1  0.4503020000000  0.5523250000000  0.4494360000000 1.0
C      1  0.4367810000000  0.4530630000000  0.4653180000000 1.0
C      1  0.5623510000000  0.4659790000000  0.5541820000000 1.0
C      1  0.4802310000000  0.4043680000000  0.4956880000000 1.0
C      1  0.5603930000000  0.4687750000000  0.4732340000000 1.0
C      1  0.4634660000000  0.4626610000000  0.4531310000000 1.0
END
