TITL C-950531-5884-90 -1.10703282316275e-07 125000 -647.513978672164 0 0 104 (C1) n - 1
REM
REM in /home/bkarasulu/work/CARBON/AIRSS/Generating-Clusters/EDIP-Nigel-Params/with-SteepDescent/Only-C1/SD-CG/HFTN-CG
REM
REM
REM
REM
REM
REM ./C.cell (11c1c37f851c82e70ff6c80c92926a4b)
REM
REM compiler GCC version 9.2.1 20190827 (Red Hat 9.2.1-1)
REM options -cpp -mtune=generic -march=x86-64 -g -O0 -fpre-include=/usr/include/finclude/math-vector-fortran.h
REM seed 575457515 1203655738 132376389 -1539145486 -1186082977 -1205469792 1975407241 1195493578 674215196 -1518515301 -188101235 -1648821016 535245392 -383879169 1055314784 1894019746 291668265 -947797839 -347746009 433442824 1504423486 -213987672 -347439256 -345279603 542108164 -1247601947 -1806334670 -1956816738 857271823 -1142230965 870407895 2125019316 -1936436532
REM
CELL 1.54180   50.00000   50.00000   50.00000   90.00000   90.00000   90.00000
LATT -1
SFAC C  
C      1  0.4214900000000  0.5269730000000  0.4966260000000 1.0
C      1  0.5000720000000  0.5107110000000  0.5443680000000 1.0
C      1  0.5219040000000  0.4390450000000  0.5407800000000 1.0
C      1  0.4978970000000  0.5405700000000  0.4526350000000 1.0
C      1  0.5274680000000  0.4582960000000  0.4622000000000 1.0
C      1  0.5803700000000  0.5203050000000  0.4943950000000 1.0
C      1  0.4825320000000  0.4598970000000  0.4672490000000 1.0
C      1  0.5462910000000  0.4831510000000  0.4717640000000 1.0
C      1  0.5722950000000  0.5258860000000  0.5644090000000 1.0
C      1  0.4958870000000  0.4058530000000  0.4623610000000 1.0
C      1  0.5058640000000  0.4575770000000  0.4830550000000 1.0
C      1  0.5863320000000  0.4557170000000  0.5215740000000 1.0
C      1  0.4956250000000  0.5013480000000  0.4296560000000 1.0
C      1  0.4432860000000  0.5521440000000  0.4597540000000 1.0
C      1  0.4917940000000  0.3969960000000  0.4883260000000 1.0
C      1  0.4325140000000  0.4318840000000  0.5130280000000 1.0
C      1  0.4888720000000  0.5514710000000  0.4790910000000 1.0
C      1  0.4497680000000  0.4749680000000  0.4931600000000 1.0
C      1  0.5128220000000  0.4606300000000  0.4352090000000 1.0
C      1  0.4881810000000  0.5280210000000  0.4981530000000 1.0
C      1  0.4850750000000  0.4837200000000  0.5279780000000 1.0
C      1  0.4675740000000  0.5026680000000  0.5726360000000 1.0
C      1  0.5555080000000  0.4271800000000  0.4883760000000 1.0
C      1  0.5226260000000  0.4110890000000  0.4565680000000 1.0
C      1  0.5374530000000  0.4813100000000  0.5029810000000 1.0
C      1  0.5124410000000  0.4471100000000  0.5680830000000 1.0
C      1  0.5702470000000  0.4539090000000  0.5462730000000 1.0
C      1  0.4534870000000  0.4425930000000  0.4965020000000 1.0
C      1  0.5739780000000  0.4738760000000  0.4785800000000 1.0
C      1  0.4610230000000  0.5735710000000  0.4526500000000 1.0
C      1  0.5145490000000  0.4920740000000  0.5879200000000 1.0
C      1  0.4141110000000  0.5158370000000  0.4502610000000 1.0
C      1  0.4831560000000  0.5886200000000  0.5251030000000 1.0
C      1  0.5254000000000  0.4893450000000  0.5450700000000 1.0
C      1  0.5270100000000  0.5339270000000  0.4165130000000 1.0
C      1  0.4751720000000  0.4248410000000  0.4512680000000 1.0
C      1  0.4148260000000  0.4677570000000  0.5371700000000 1.0
C      1  0.4556350000000  0.4479120000000  0.5525780000000 1.0
C      1  0.5754620000000  0.5026330000000  0.5342060000000 1.0
C      1  0.5437250000000  0.4571010000000  0.5325950000000 1.0
C      1  0.4387150000000  0.4569640000000  0.4525750000000 1.0
C      1  0.5124670000000  0.5664340000000  0.5160160000000 1.0
C      1  0.4806210000000  0.5683340000000  0.4310810000000 1.0
C      1  0.5694850000000  0.4516210000000  0.4975070000000 1.0
C      1  0.4577830000000  0.4669500000000  0.4314890000000 1.0
C      1  0.5417320000000  0.4109000000000  0.5067790000000 1.0
C      1  0.5382200000000  0.5116360000000  0.4562400000000 1.0
C      1  0.4755020000000  0.5414970000000  0.4153110000000 1.0
C      1  0.5058860000000  0.5907870000000  0.4675700000000 1.0
C      1  0.4495770000000  0.4326900000000  0.4669730000000 1.0
C      1  0.4692630000000  0.4866280000000  0.4718890000000 1.0
C      1  0.4341070000000  0.4884750000000  0.5394400000000 1.0
C      1  0.5074970000000  0.5335430000000  0.5207890000000 1.0
C      1  0.4654700000000  0.4960880000000  0.4339930000000 1.0
C      1  0.4619220000000  0.5498140000000  0.5498300000000 1.0
C      1  0.5068070000000  0.5121490000000  0.4565910000000 1.0
C      1  0.5356770000000  0.5621420000000  0.5557670000000 1.0
C      1  0.4425510000000  0.4938320000000  0.5655140000000 1.0
C      1  0.4299420000000  0.5521980000000  0.4852410000000 1.0
C      1  0.5815030000000  0.5000980000000  0.5724370000000 1.0
C      1  0.4203260000000  0.5280830000000  0.5254340000000 1.0
C      1  0.5561690000000  0.5690210000000  0.4781670000000 1.0
C      1  0.5954300000000  0.4843270000000  0.5199140000000 1.0
C      1  0.5618750000000  0.5667210000000  0.5083670000000 1.0
C      1  0.4859760000000  0.4838940000000  0.5856680000000 1.0
C      1  0.4429860000000  0.5653790000000  0.5072970000000 1.0
C      1  0.4752290000000  0.5879220000000  0.4743900000000 1.0
C      1  0.4303860000000  0.4443170000000  0.5380440000000 1.0
C      1  0.4991000000000  0.5241390000000  0.4104620000000 1.0
C      1  0.5352090000000  0.5244140000000  0.5132320000000 1.0
C      1  0.5455910000000  0.5005620000000  0.5246480000000 1.0
C      1  0.5183560000000  0.4845970000000  0.4190190000000 1.0
C      1  0.5062570000000  0.5636180000000  0.5635340000000 1.0
C      1  0.4833580000000  0.4484710000000  0.4309960000000 1.0
C      1  0.4322330000000  0.5344140000000  0.4397170000000 1.0
C      1  0.4822520000000  0.5705580000000  0.5474740000000 1.0
C      1  0.5129050000000  0.5676630000000  0.4857550000000 1.0
C      1  0.5236830000000  0.5529170000000  0.4406570000000 1.0
C      1  0.5289510000000  0.4719960000000  0.5712940000000 1.0
C      1  0.4720300000000  0.5311130000000  0.5704000000000 1.0
C      1  0.4933580000000  0.4115250000000  0.5121060000000 1.0
C      1  0.5400720000000  0.5070020000000  0.4259210000000 1.0
C      1  0.5408540000000  0.4313050000000  0.4632530000000 1.0
C      1  0.4794930000000  0.4373170000000  0.5121810000000 1.0
C      1  0.4930560000000  0.5028820000000  0.4826340000000 1.0
C      1  0.4528190000000  0.5223470000000  0.4226170000000 1.0
C      1  0.4814330000000  0.4539480000000  0.5378630000000 1.0
C      1  0.5907170000000  0.4943390000000  0.4926180000000 1.0
C      1  0.5392850000000  0.5746530000000  0.5275900000000 1.0
C      1  0.5204650000000  0.5200300000000  0.5762800000000 1.0
C      1  0.4139530000000  0.5062020000000  0.4765600000000 1.0
C      1  0.4394220000000  0.5489010000000  0.5308820000000 1.0
C      1  0.4237470000000  0.4786300000000  0.4787690000000 1.0
C      1  0.5771880000000  0.4734510000000  0.5654210000000 1.0
C      1  0.5465410000000  0.5476570000000  0.4598900000000 1.0
C      1  0.4847860000000  0.4553870000000  0.5765640000000 1.0
C      1  0.5579860000000  0.5371180000000  0.5001320000000 1.0
C      1  0.4665620000000  0.5816710000000  0.5026010000000 1.0
C      1  0.4986490000000  0.5394640000000  0.5780530000000 1.0
C      1  0.5062680000000  0.4813500000000  0.5006450000000 1.0
C      1  0.5093570000000  0.5808340000000  0.4389360000000 1.0
C      1  0.4560390000000  0.4892560000000  0.5189620000000 1.0
C      1  0.5200250000000  0.4139690000000  0.5247010000000 1.0
C      1  0.5451730000000  0.5353420000000  0.5662150000000 1.0
END
