TITL C-951334-9093-649 -7.32352661068259e-07 125000 -362.641510630711 0 0 59 (C1) n - 1
REM
REM in /home/bkarasulu/work/CARBON/AIRSS/Generating-Clusters/EDIP-Nigel-Params/with-SteepDescent/Only-C1/SD-CG/HFTN-CG
REM
REM
REM
REM
REM
REM ./C.cell (11c1c37f851c82e70ff6c80c92926a4b)
REM
REM compiler GCC version 9.2.1 20190827 (Red Hat 9.2.1-1)
REM options -cpp -mtune=generic -march=x86-64 -g -O0 -fpre-include=/usr/include/finclude/math-vector-fortran.h
REM seed 1447686856 1857141521 -1631862252 -208513726 2003361387 -1991381622 445904636 50951517 -83518078 1505876720 1768447542 -100427055 -1705794752 -6720010 1141779128 751964432 1938566148 -676532267 -728355232 1933116215 1763717480 1397187231 1716363475 766096181 798193874 1583041331 1061345930 1075836290 -1808264448 -702652923 -1291792801 -1634813176 1920820928
REM
CELL 1.54180   50.00000   50.00000   50.00000   90.00000   90.00000   90.00000
LATT -1
SFAC C  
C      1  0.5535120000000  0.4843740000000  0.4342130000000 1.0
C      1  0.5165650000000  0.4417800000000  0.4824120000000 1.0
C      1  0.5105760000000  0.5606480000000  0.4663650000000 1.0
C      1  0.4351930000000  0.4585570000000  0.5086080000000 1.0
C      1  0.5149780000000  0.4765540000000  0.5552740000000 1.0
C      1  0.5044320000000  0.5288170000000  0.5688320000000 1.0
C      1  0.5677380000000  0.5303660000000  0.5105200000000 1.0
C      1  0.4770700000000  0.5246870000000  0.5708980000000 1.0
C      1  0.4847980000000  0.5592190000000  0.4793060000000 1.0
C      1  0.4932270000000  0.4311810000000  0.4675400000000 1.0
C      1  0.4847590000000  0.4757240000000  0.5002390000000 1.0
C      1  0.4567100000000  0.5242590000000  0.5518250000000 1.0
C      1  0.4601110000000  0.5178900000000  0.4576760000000 1.0
C      1  0.5575430000000  0.4877950000000  0.5343620000000 1.0
C      1  0.5201510000000  0.5066340000000  0.5550640000000 1.0
C      1  0.5114360000000  0.4636740000000  0.4287780000000 1.0
C      1  0.4855390000000  0.4405250000000  0.5191190000000 1.0
C      1  0.5522310000000  0.5376410000000  0.4853230000000 1.0
C      1  0.5592680000000  0.4900630000000  0.4860460000000 1.0
C      1  0.4795370000000  0.5191960000000  0.4378540000000 1.0
C      1  0.4457230000000  0.5343660000000  0.5042030000000 1.0
C      1  0.4650150000000  0.4409520000000  0.4692860000000 1.0
C      1  0.5509460000000  0.5115850000000  0.5525770000000 1.0
C      1  0.5296500000000  0.4658930000000  0.5313400000000 1.0
C      1  0.5269700000000  0.5229230000000  0.4296030000000 1.0
C      1  0.5305800000000  0.5551510000000  0.5341130000000 1.0
C      1  0.4247780000000  0.4841510000000  0.4977660000000 1.0
C      1  0.5023010000000  0.4832950000000  0.4771400000000 1.0
C      1  0.4887140000000  0.4667570000000  0.5613860000000 1.0
C      1  0.4640720000000  0.4662120000000  0.4506730000000 1.0
C      1  0.5231210000000  0.5711380000000  0.5095880000000 1.0
C      1  0.5053940000000  0.5211190000000  0.4475680000000 1.0
C      1  0.4927510000000  0.5703130000000  0.5058120000000 1.0
C      1  0.4630500000000  0.4521480000000  0.4975150000000 1.0
C      1  0.5558000000000  0.5383930000000  0.5370070000000 1.0
C      1  0.5088090000000  0.5534150000000  0.5541430000000 1.0
C      1  0.4587420000000  0.5447340000000  0.5298120000000 1.0
C      1  0.5117120000000  0.5114710000000  0.4762070000000 1.0
C      1  0.4523130000000  0.4734100000000  0.5498650000000 1.0
C      1  0.5482370000000  0.5105650000000  0.4427440000000 1.0
C      1  0.4990790000000  0.5204590000000  0.5098050000000 1.0
C      1  0.4780960000000  0.4452600000000  0.5469620000000 1.0
C      1  0.4497760000000  0.4901960000000  0.4617800000000 1.0
C      1  0.4652640000000  0.5356900000000  0.4810490000000 1.0
C      1  0.4348020000000  0.5070120000000  0.5142860000000 1.0
C      1  0.5706490000000  0.4999080000000  0.5106480000000 1.0
C      1  0.4229970000000  0.4869860000000  0.4696900000000 1.0
C      1  0.5333330000000  0.5611010000000  0.4838520000000 1.0
C      1  0.5435570000000  0.5119890000000  0.4722390000000 1.0
C      1  0.4953090000000  0.4667750000000  0.4528710000000 1.0
C      1  0.5219370000000  0.5125660000000  0.5259620000000 1.0
C      1  0.5609870000000  0.4626460000000  0.4807680000000 1.0
C      1  0.5372980000000  0.4620160000000  0.4393690000000 1.0
C      1  0.4808580000000  0.4982210000000  0.5178350000000 1.0
C      1  0.4331780000000  0.4570640000000  0.5365240000000 1.0
C      1  0.5400770000000  0.4510070000000  0.4666370000000 1.0
C      1  0.4881480000000  0.5472990000000  0.5240150000000 1.0
C      1  0.4559200000000  0.4998360000000  0.5344860000000 1.0
C      1  0.5146860000000  0.4463970000000  0.5126190000000 1.0
END
