TITL C-951342-2639-556 -2.10975463940347e-06 125000 -476.543437533884 0 0 77 (C1) n - 1
REM
REM in /home/bkarasulu/work/CARBON/AIRSS/Generating-Clusters/EDIP-Nigel-Params/with-SteepDescent/Only-C1/SD-CG/HFTN-CG
REM
REM
REM
REM
REM
REM ./C.cell (11c1c37f851c82e70ff6c80c92926a4b)
REM
REM compiler GCC version 9.2.1 20190827 (Red Hat 9.2.1-1)
REM options -cpp -mtune=generic -march=x86-64 -g -O0 -fpre-include=/usr/include/finclude/math-vector-fortran.h
REM seed 323600094 -1078661765 -235026398 -981316175 -1613321968 -1214699533 310474215 -280397502 -1312572037 256664580 1277251483 -1316358863 -273209732 -422983888 2051682638 -919645637 275172581 -2057577922 47124336 -391430667 -1314687455 797693635 -84169291 -1182077876 1307766796 925868910 -1510941075 840828987 -1846151911 -884297967 -1374387961 2104538165 -1248458247
REM
CELL 1.54180   50.00000   50.00000   50.00000   90.00000   90.00000   90.00000
LATT -1
SFAC C  
C      1  0.5090610000000  0.5767600000000  0.4664660000000 1.0
C      1  0.5235560000000  0.4349110000000  0.4616160000000 1.0
C      1  0.5867960000000  0.4933800000000  0.5077770000000 1.0
C      1  0.5385930000000  0.5646820000000  0.5427230000000 1.0
C      1  0.4921120000000  0.4995560000000  0.4742020000000 1.0
C      1  0.4207080000000  0.4686270000000  0.4889140000000 1.0
C      1  0.5187520000000  0.4478550000000  0.5550950000000 1.0
C      1  0.5308500000000  0.5369530000000  0.5168810000000 1.0
C      1  0.4356670000000  0.4585300000000  0.5103800000000 1.0
C      1  0.4746050000000  0.4325290000000  0.5223340000000 1.0
C      1  0.4590530000000  0.4975740000000  0.4361990000000 1.0
C      1  0.5333690000000  0.4750170000000  0.5545390000000 1.0
C      1  0.5212570000000  0.4311050000000  0.5323060000000 1.0
C      1  0.4255440000000  0.5285990000000  0.5258400000000 1.0
C      1  0.4904120000000  0.5812920000000  0.4887320000000 1.0
C      1  0.5807030000000  0.4818490000000  0.4831750000000 1.0
C      1  0.5466100000000  0.5326500000000  0.4469890000000 1.0
C      1  0.4540180000000  0.4773090000000  0.5243240000000 1.0
C      1  0.4817370000000  0.4204730000000  0.4681390000000 1.0
C      1  0.4989910000000  0.4703600000000  0.5071350000000 1.0
C      1  0.4282490000000  0.4725590000000  0.4621420000000 1.0
C      1  0.5598850000000  0.5279410000000  0.5269740000000 1.0
C      1  0.4959810000000  0.5437810000000  0.4923380000000 1.0
C      1  0.5563190000000  0.4594360000000  0.4377820000000 1.0
C      1  0.5367630000000  0.5745160000000  0.4704850000000 1.0
C      1  0.5265860000000  0.5348460000000  0.4862560000000 1.0
C      1  0.4751360000000  0.4602860000000  0.5767390000000 1.0
C      1  0.4817740000000  0.5128170000000  0.4464270000000 1.0
C      1  0.5527670000000  0.4555870000000  0.5124430000000 1.0
C      1  0.4927470000000  0.5025290000000  0.5791770000000 1.0
C      1  0.4208260000000  0.5187440000000  0.4996330000000 1.0
C      1  0.4751280000000  0.5409800000000  0.4532880000000 1.0
C      1  0.4486260000000  0.5389340000000  0.5396710000000 1.0
C      1  0.4531220000000  0.4362440000000  0.5013550000000 1.0
C      1  0.4496540000000  0.4536830000000  0.4521870000000 1.0
C      1  0.5440960000000  0.4802690000000  0.5258050000000 1.0
C      1  0.4452570000000  0.5023760000000  0.5754790000000 1.0
C      1  0.5122550000000  0.5480830000000  0.5768310000000 1.0
C      1  0.5221720000000  0.5048210000000  0.4821540000000 1.0
C      1  0.4537070000000  0.5283350000000  0.5675080000000 1.0
C      1  0.5046320000000  0.5127630000000  0.4274910000000 1.0
C      1  0.4373330000000  0.4999140000000  0.4559510000000 1.0
C      1  0.5537120000000  0.5528800000000  0.4663540000000 1.0
C      1  0.5058310000000  0.4234300000000  0.4825050000000 1.0
C      1  0.5019160000000  0.4227600000000  0.5129390000000 1.0
C      1  0.4375100000000  0.5216500000000  0.4766090000000 1.0
C      1  0.5201190000000  0.5367830000000  0.4352310000000 1.0
C      1  0.4683920000000  0.4870810000000  0.5824840000000 1.0
C      1  0.5009120000000  0.5542370000000  0.4500000000000 1.0
C      1  0.5809210000000  0.4981380000000  0.4603040000000 1.0
C      1  0.5330140000000  0.5268680000000  0.5701360000000 1.0
C      1  0.4863170000000  0.4698430000000  0.4810260000000 1.0
C      1  0.5539790000000  0.5415610000000  0.5537800000000 1.0
C      1  0.4674950000000  0.4449990000000  0.4755690000000 1.0
C      1  0.4562750000000  0.5443980000000  0.4752840000000 1.0
C      1  0.4979550000000  0.4638790000000  0.4307540000000 1.0
C      1  0.5190410000000  0.5002290000000  0.5648930000000 1.0
C      1  0.4942610000000  0.4655950000000  0.5550270000000 1.0
C      1  0.5097380000000  0.4388060000000  0.4370950000000 1.0
C      1  0.5137880000000  0.5708840000000  0.5563800000000 1.0
C      1  0.4830880000000  0.5299090000000  0.5762560000000 1.0
C      1  0.5604230000000  0.4613840000000  0.4860620000000 1.0
C      1  0.5672740000000  0.4995610000000  0.5269230000000 1.0
C      1  0.5494300000000  0.4482480000000  0.4626630000000 1.0
C      1  0.4543510000000  0.5056670000000  0.5135220000000 1.0
C      1  0.5458840000000  0.4846620000000  0.4308310000000 1.0
C      1  0.4645540000000  0.5669270000000  0.4961030000000 1.0
C      1  0.4891010000000  0.5728780000000  0.5393310000000 1.0
C      1  0.5193710000000  0.4920070000000  0.5103730000000 1.0
C      1  0.4675580000000  0.4690480000000  0.4327600000000 1.0
C      1  0.4812230000000  0.5161170000000  0.4986020000000 1.0
C      1  0.4642630000000  0.5618140000000  0.5267430000000 1.0
C      1  0.5080790000000  0.5178490000000  0.5259190000000 1.0
C      1  0.4802800000000  0.4620730000000  0.5282160000000 1.0
C      1  0.5602550000000  0.5067640000000  0.4433310000000 1.0
C      1  0.4914980000000  0.5350950000000  0.5462330000000 1.0
C      1  0.5167830000000  0.4865210000000  0.4278830000000 1.0
END
