TITL C-951348-1603-27 3.7497145449661e-07 125000 -94.4468378117685 0 0 17 (C1) n - 1
REM
REM in /home/bkarasulu/work/CARBON/AIRSS/Generating-Clusters/EDIP-Nigel-Params/with-SteepDescent/Only-C1/SD-CG/HFTN-CG
REM
REM
REM
REM
REM
REM ./C.cell (11c1c37f851c82e70ff6c80c92926a4b)
REM
REM compiler GCC version 9.2.1 20190827 (Red Hat 9.2.1-1)
REM options -cpp -mtune=generic -march=x86-64 -g -O0 -fpre-include=/usr/include/finclude/math-vector-fortran.h
REM seed -115497080 -1667699669 -1441312522 1663757113 2121548168 165956472 -1888307695 -346550110 -275776594 -12153258 -1551245364 -1225677770 -842227238 -346293138 -75752081 906951204 -221626824 -1817993860 -2040216375 -2069787913 1165370972 -668851788 -1625495805 2040075034 333060564 -987457678 -69514807 -1202960899 -645189057 1421020707 612789300 -1860870050 -700825030
REM
CELL 1.54180   50.00000   50.00000   50.00000   90.00000   90.00000   90.00000
LATT -1
SFAC C  
C      1  0.5283750000000  0.5281270000000  0.5034180000000 1.0
C      1  0.5216530000000  0.5054230000000  0.5179270000000 1.0
C      1  0.5069850000000  0.4587650000000  0.4864770000000 1.0
C      1  0.4628860000000  0.5509600000000  0.4810340000000 1.0
C      1  0.4762500000000  0.4659630000000  0.5241950000000 1.0
C      1  0.5243090000000  0.4592040000000  0.5276760000000 1.0
C      1  0.5052040000000  0.5345740000000  0.4888970000000 1.0
C      1  0.4635720000000  0.5150030000000  0.5142210000000 1.0
C      1  0.5339010000000  0.4676820000000  0.4907520000000 1.0
C      1  0.4994620000000  0.4517220000000  0.5139600000000 1.0
C      1  0.4749310000000  0.4940860000000  0.5307050000000 1.0
C      1  0.4959550000000  0.4951750000000  0.5074450000000 1.0
C      1  0.5068330000000  0.5537050000000  0.4683700000000 1.0
C      1  0.5390360000000  0.4818110000000  0.5160130000000 1.0
C      1  0.4775590000000  0.5338970000000  0.4978670000000 1.0
C      1  0.5019090000000  0.4414880000000  0.4669230000000 1.0
C      1  0.4811810000000  0.5624140000000  0.4641200000000 1.0
END
