TITL C-950522-5749-149 1.41285748347151e-06 125000 -302.301632632153 0 0 50 (C1) n - 1
REM
REM in /home/bkarasulu/work/CARBON/AIRSS/Generating-Clusters/EDIP-Nigel-Params/with-SteepDescent/Only-C1/SD-CG/HFTN-CG
REM
REM
REM
REM
REM
REM ./C.cell (11c1c37f851c82e70ff6c80c92926a4b)
REM
REM compiler GCC version 9.2.1 20190827 (Red Hat 9.2.1-1)
REM options -cpp -mtune=generic -march=x86-64 -g -O0 -fpre-include=/usr/include/finclude/math-vector-fortran.h
REM seed -908498847 199965213 -202594352 1907794864 -565584888 1216532473 -587541638 828788372 -1644329989 668079602 905569860 1625212771 383038370 -515838226 -426822257 -353912625 1492583705 -427845044 -2062542652 471742497 -878676998 1661212744 1104270245 1680143731 -520202406 -1477440516 1880264275 -1681993621 -243240060 518104658 -2001478947 847632695 1720154178
REM
CELL 1.54180   50.00000   50.00000   50.00000   90.00000   90.00000   90.00000
LATT -1
SFAC C  
C      1  0.4429430000000  0.4641870000000  0.4721900000000 1.0
C      1  0.4749380000000  0.4707490000000  0.4358970000000 1.0
C      1  0.5028120000000  0.4977840000000  0.5417090000000 1.0
C      1  0.5285840000000  0.4319270000000  0.4852790000000 1.0
C      1  0.5209800000000  0.5834070000000  0.4741980000000 1.0
C      1  0.5212610000000  0.5579230000000  0.4623310000000 1.0
C      1  0.5400390000000  0.4649550000000  0.5448410000000 1.0
C      1  0.5092890000000  0.5576160000000  0.5136620000000 1.0
C      1  0.4561530000000  0.4806850000000  0.4540020000000 1.0
C      1  0.4601750000000  0.4434740000000  0.5127480000000 1.0
C      1  0.5168960000000  0.4387990000000  0.5274060000000 1.0
C      1  0.4759050000000  0.5024040000000  0.5542130000000 1.0
C      1  0.4988100000000  0.5398990000000  0.4724290000000 1.0
C      1  0.4709970000000  0.5012240000000  0.4982480000000 1.0
C      1  0.4970530000000  0.4499920000000  0.5466270000000 1.0
C      1  0.4465780000000  0.4902420000000  0.5153570000000 1.0
C      1  0.5071490000000  0.4224150000000  0.5039640000000 1.0
C      1  0.5463200000000  0.4516150000000  0.4972600000000 1.0
C      1  0.5507060000000  0.4871180000000  0.5299850000000 1.0
C      1  0.4674630000000  0.5462630000000  0.5312840000000 1.0
C      1  0.5030760000000  0.4704450000000  0.4388600000000 1.0
C      1  0.5091300000000  0.4478260000000  0.4562880000000 1.0
C      1  0.4409560000000  0.4632420000000  0.5002760000000 1.0
C      1  0.4498500000000  0.5289930000000  0.5139460000000 1.0
C      1  0.5138930000000  0.4724420000000  0.5554940000000 1.0
C      1  0.4805210000000  0.5634180000000  0.5112810000000 1.0
C      1  0.4446420000000  0.5250430000000  0.4644010000000 1.0
C      1  0.4740150000000  0.4599350000000  0.5325680000000 1.0
C      1  0.5520230000000  0.4795240000000  0.5009540000000 1.0
C      1  0.4798610000000  0.4319460000000  0.4924870000000 1.0
C      1  0.4918210000000  0.5157910000000  0.4558920000000 1.0
C      1  0.5573750000000  0.4935360000000  0.4770660000000 1.0
C      1  0.5104900000000  0.4667240000000  0.5010270000000 1.0
C      1  0.4737670000000  0.5559070000000  0.4835860000000 1.0
C      1  0.5126200000000  0.4955890000000  0.4512020000000 1.0
C      1  0.4923080000000  0.4559980000000  0.4792600000000 1.0
C      1  0.5236800000000  0.5796680000000  0.5011060000000 1.0
C      1  0.5401090000000  0.4990700000000  0.4566770000000 1.0
C      1  0.5422890000000  0.5321430000000  0.4918320000000 1.0
C      1  0.4585240000000  0.4826520000000  0.5421430000000 1.0
C      1  0.4658440000000  0.5054300000000  0.4671070000000 1.0
C      1  0.5462180000000  0.5453870000000  0.4669460000000 1.0
C      1  0.5547480000000  0.5423900000000  0.5149430000000 1.0
C      1  0.5391150000000  0.5094040000000  0.5452420000000 1.0
C      1  0.5149110000000  0.5512590000000  0.5421450000000 1.0
C      1  0.5413570000000  0.5371760000000  0.5394660000000 1.0
C      1  0.5008080000000  0.4973290000000  0.5097270000000 1.0
C      1  0.5132950000000  0.5297900000000  0.4977810000000 1.0
C      1  0.4485370000000  0.5413960000000  0.4866860000000 1.0
C      1  0.4891670000000  0.5378690000000  0.5499790000000 1.0
END
