TITL C-951335-1172-18 -8.73539900922748e-07 125000 -1239.68761075173 0 0 196 (C1) n - 1
REM
REM in /home/bkarasulu/work/CARBON/AIRSS/Generating-Clusters/EDIP-Nigel-Params/with-SteepDescent/Only-C1/SD-CG/HFTN-CG
REM
REM
REM
REM
REM
REM ./C.cell (11c1c37f851c82e70ff6c80c92926a4b)
REM
REM compiler GCC version 9.2.1 20190827 (Red Hat 9.2.1-1)
REM options -cpp -mtune=generic -march=x86-64 -g -O0 -fpre-include=/usr/include/finclude/math-vector-fortran.h
REM seed 140623831 1961695619 1063335192 -194775726 2121596250 1048711600 -1779965719 -94998627 1768601591 -392449571 -1690536609 1931644649 1839344332 -965184626 -1688421249 -1825827318 531441122 1661502732 1700510214 882653749 1128521972 -2082344618 -510693012 -1723564216 1209110314 1824283905 -776048408 -1411872589 -1398212861 -875020569 -1293310340 -1778745444 751845783
REM
CELL 1.54180   50.00000   50.00000   50.00000   90.00000   90.00000   90.00000
LATT -1
SFAC C  
C      1  0.5283320000000  0.3833250000000  0.4953430000000 1.0
C      1  0.5167860000000  0.4840680000000  0.6113060000000 1.0
C      1  0.4894560000000  0.5279530000000  0.3883010000000 1.0
C      1  0.4491560000000  0.4318750000000  0.4186850000000 1.0
C      1  0.5547340000000  0.5317370000000  0.5787480000000 1.0
C      1  0.5124440000000  0.4747500000000  0.3882990000000 1.0
C      1  0.5276170000000  0.4335960000000  0.4902550000000 1.0
C      1  0.4740340000000  0.4454010000000  0.4175860000000 1.0
C      1  0.4650690000000  0.3992930000000  0.5328330000000 1.0
C      1  0.4831970000000  0.5264440000000  0.4308710000000 1.0
C      1  0.5911430000000  0.5625310000000  0.4979000000000 1.0
C      1  0.5041270000000  0.5824660000000  0.5486940000000 1.0
C      1  0.4560610000000  0.4249950000000  0.4799220000000 1.0
C      1  0.3830580000000  0.5294210000000  0.4819320000000 1.0
C      1  0.5301810000000  0.4978590000000  0.3858190000000 1.0
C      1  0.4877860000000  0.5550080000000  0.4045580000000 1.0
C      1  0.5773930000000  0.4625270000000  0.4287370000000 1.0
C      1  0.5366910000000  0.4229150000000  0.4168110000000 1.0
C      1  0.5731170000000  0.4996940000000  0.4754520000000 1.0
C      1  0.4880820000000  0.4479610000000  0.4447730000000 1.0
C      1  0.5823410000000  0.4777700000000  0.5710830000000 1.0
C      1  0.4186360000000  0.5202710000000  0.5832380000000 1.0
C      1  0.5152480000000  0.5662940000000  0.4031960000000 1.0
C      1  0.5518150000000  0.5112750000000  0.4581400000000 1.0
C      1  0.4225390000000  0.5177840000000  0.4190210000000 1.0
C      1  0.6089250000000  0.4738300000000  0.4785090000000 1.0
C      1  0.5927480000000  0.4583120000000  0.5485380000000 1.0
C      1  0.5681520000000  0.4491860000000  0.4960270000000 1.0
C      1  0.4349540000000  0.5950570000000  0.5399110000000 1.0
C      1  0.5051990000000  0.5339850000000  0.4482390000000 1.0
C      1  0.5078670000000  0.4276210000000  0.5799830000000 1.0
C      1  0.5143080000000  0.5600540000000  0.5670690000000 1.0
C      1  0.5504280000000  0.5414960000000  0.4611950000000 1.0
C      1  0.5185020000000  0.4577450000000  0.4387620000000 1.0
C      1  0.4772840000000  0.5743090000000  0.5371740000000 1.0
C      1  0.5558390000000  0.4960090000000  0.3991750000000 1.0
C      1  0.4824780000000  0.4243340000000  0.4640430000000 1.0
C      1  0.4304710000000  0.4266250000000  0.4368580000000 1.0
C      1  0.5566930000000  0.5794710000000  0.5604690000000 1.0
C      1  0.4728830000000  0.5882430000000  0.5103820000000 1.0
C      1  0.5614680000000  0.4934100000000  0.5355000000000 1.0
C      1  0.3949720000000  0.5595840000000  0.5675090000000 1.0
C      1  0.4524150000000  0.4463250000000  0.5059470000000 1.0
C      1  0.5236070000000  0.5561540000000  0.4515110000000 1.0
C      1  0.4788430000000  0.5712920000000  0.4830630000000 1.0
C      1  0.5143480000000  0.5378210000000  0.5485540000000 1.0
C      1  0.3973100000000  0.5135510000000  0.4372290000000 1.0
C      1  0.3980100000000  0.5035370000000  0.4866980000000 1.0
C      1  0.5011770000000  0.3929730000000  0.4307580000000 1.0
C      1  0.4750690000000  0.4723060000000  0.4559570000000 1.0
C      1  0.5402150000000  0.4462910000000  0.4582070000000 1.0
C      1  0.4166170000000  0.5639200000000  0.4990940000000 1.0
C      1  0.4912940000000  0.3931870000000  0.5239000000000 1.0
C      1  0.5311080000000  0.4534760000000  0.4099720000000 1.0
C      1  0.4775680000000  0.4227050000000  0.5802940000000 1.0
C      1  0.4607690000000  0.5350890000000  0.4476330000000 1.0
C      1  0.4287440000000  0.5314880000000  0.5359670000000 1.0
C      1  0.5072630000000  0.5209450000000  0.4747840000000 1.0
C      1  0.4702340000000  0.4679050000000  0.6017240000000 1.0
C      1  0.4459700000000  0.6011080000000  0.5126470000000 1.0
C      1  0.5918310000000  0.4529240000000  0.4655490000000 1.0
C      1  0.5220470000000  0.5133990000000  0.6135720000000 1.0
C      1  0.5584060000000  0.4682020000000  0.4084140000000 1.0
C      1  0.4879000000000  0.5240230000000  0.5160490000000 1.0
C      1  0.5173320000000  0.5971830000000  0.5258240000000 1.0
C      1  0.5107830000000  0.5696760000000  0.4795330000000 1.0
C      1  0.4466360000000  0.4673100000000  0.4632590000000 1.0
C      1  0.4074240000000  0.5176170000000  0.5535430000000 1.0
C      1  0.5837010000000  0.5301040000000  0.5677130000000 1.0
C      1  0.4964000000000  0.4773690000000  0.5893450000000 1.0
C      1  0.4298610000000  0.5916280000000  0.4904180000000 1.0
C      1  0.4692840000000  0.4767590000000  0.4117880000000 1.0
C      1  0.5013220000000  0.4211420000000  0.4855640000000 1.0
C      1  0.4832080000000  0.4820460000000  0.3865190000000 1.0
C      1  0.5412990000000  0.5065700000000  0.5651250000000 1.0
C      1  0.5173940000000  0.5991290000000  0.4383720000000 1.0
C      1  0.4052230000000  0.4590830000000  0.5054960000000 1.0
C      1  0.4218720000000  0.4430950000000  0.5448740000000 1.0
C      1  0.4089700000000  0.4657870000000  0.5572290000000 1.0
C      1  0.5177340000000  0.5236450000000  0.3853890000000 1.0
C      1  0.5700880000000  0.4073670000000  0.4582960000000 1.0
C      1  0.4456300000000  0.5943840000000  0.4653940000000 1.0
C      1  0.4453000000000  0.4720790000000  0.4923970000000 1.0
C      1  0.3841190000000  0.5366550000000  0.5517960000000 1.0
C      1  0.5142010000000  0.4866100000000  0.4406500000000 1.0
C      1  0.4624710000000  0.5072380000000  0.5658330000000 1.0
C      1  0.4153940000000  0.4635070000000  0.5848510000000 1.0
C      1  0.4987950000000  0.3926150000000  0.4943330000000 1.0
C      1  0.4794860000000  0.5189630000000  0.4878750000000 1.0
C      1  0.4545420000000  0.5340080000000  0.5520920000000 1.0
C      1  0.5603580000000  0.5695520000000  0.4241990000000 1.0
C      1  0.5902420000000  0.4300510000000  0.5035050000000 1.0
C      1  0.5947680000000  0.5032720000000  0.5631980000000 1.0
C      1  0.5451190000000  0.4075280000000  0.4878060000000 1.0
C      1  0.4460370000000  0.3913580000000  0.5141520000000 1.0
C      1  0.4748540000000  0.5070410000000  0.3769930000000 1.0
C      1  0.4509090000000  0.3954030000000  0.4867210000000 1.0
C      1  0.5967370000000  0.5401980000000  0.4435510000000 1.0
C      1  0.4329650000000  0.5180520000000  0.5090270000000 1.0
C      1  0.5255880000000  0.4980760000000  0.4655510000000 1.0
C      1  0.5634690000000  0.5820870000000  0.5337090000000 1.0
C      1  0.4323340000000  0.5903690000000  0.4410850000000 1.0
C      1  0.4689160000000  0.4862350000000  0.5329190000000 1.0
C      1  0.4025290000000  0.4898650000000  0.5411490000000 1.0
C      1  0.4483230000000  0.5574510000000  0.5718350000000 1.0
C      1  0.5340890000000  0.4389400000000  0.6038230000000 1.0
C      1  0.5774300000000  0.5205670000000  0.4972080000000 1.0
C      1  0.4598060000000  0.4118240000000  0.5588480000000 1.0
C      1  0.4194900000000  0.5502770000000  0.5824660000000 1.0
C      1  0.4487540000000  0.4855590000000  0.6056940000000 1.0
C      1  0.5773510000000  0.4065120000000  0.4881580000000 1.0
C      1  0.5516690000000  0.4625310000000  0.5330120000000 1.0
C      1  0.5203100000000  0.5432480000000  0.4939520000000 1.0
C      1  0.4038370000000  0.4934850000000  0.4585860000000 1.0
C      1  0.5528360000000  0.5420150000000  0.4934920000000 1.0
C      1  0.4625760000000  0.5304980000000  0.6087910000000 1.0
C      1  0.5577720000000  0.4782220000000  0.4940820000000 1.0
C      1  0.5105680000000  0.4552680000000  0.5653660000000 1.0
C      1  0.4750470000000  0.6043120000000  0.4623440000000 1.0
C      1  0.5210620000000  0.4050130000000  0.5646850000000 1.0
C      1  0.4554730000000  0.5823790000000  0.5560960000000 1.0
C      1  0.4318500000000  0.4396550000000  0.5880470000000 1.0
C      1  0.4959020000000  0.5239750000000  0.6008950000000 1.0
C      1  0.5173370000000  0.4030160000000  0.5346430000000 1.0
C      1  0.5734930000000  0.5587950000000  0.4497520000000 1.0
C      1  0.4360740000000  0.5428040000000  0.4344050000000 1.0
C      1  0.4737760000000  0.4569360000000  0.5285510000000 1.0
C      1  0.5848310000000  0.5650260000000  0.5264750000000 1.0
C      1  0.5488010000000  0.5905640000000  0.4854110000000 1.0
C      1  0.6152690000000  0.4714050000000  0.5337420000000 1.0
C      1  0.5927050000000  0.5487810000000  0.5482840000000 1.0
C      1  0.4736770000000  0.5443850000000  0.5326610000000 1.0
C      1  0.4544640000000  0.4965690000000  0.5069310000000 1.0
C      1  0.4909180000000  0.5050650000000  0.5776860000000 1.0
C      1  0.4970420000000  0.4993200000000  0.5303370000000 1.0
C      1  0.4993640000000  0.6123350000000  0.4805220000000 1.0
C      1  0.5279470000000  0.4776250000000  0.4871470000000 1.0
C      1  0.3779700000000  0.5458550000000  0.5260290000000 1.0
C      1  0.6076230000000  0.5263050000000  0.4660640000000 1.0
C      1  0.5427540000000  0.5601030000000  0.5745910000000 1.0
C      1  0.4427570000000  0.5710600000000  0.4236900000000 1.0
C      1  0.4718910000000  0.5760070000000  0.4196490000000 1.0
C      1  0.5587020000000  0.5471870000000  0.4036160000000 1.0
C      1  0.5297620000000  0.5746660000000  0.4277610000000 1.0
C      1  0.5476840000000  0.5232570000000  0.6057550000000 1.0
C      1  0.6159470000000  0.4989690000000  0.5440700000000 1.0
C      1  0.4294840000000  0.4847630000000  0.4477830000000 1.0
C      1  0.5418950000000  0.5091080000000  0.5209400000000 1.0
C      1  0.5741730000000  0.5759360000000  0.4765820000000 1.0
C      1  0.5223900000000  0.4327650000000  0.5226230000000 1.0
C      1  0.5523320000000  0.4799300000000  0.5789890000000 1.0
C      1  0.3974530000000  0.4853740000000  0.5114590000000 1.0
C      1  0.5325960000000  0.5472460000000  0.3912400000000 1.0
C      1  0.5459660000000  0.4194810000000  0.4457020000000 1.0
C      1  0.4376360000000  0.4911380000000  0.4202650000000 1.0
C      1  0.5859770000000  0.5010340000000  0.5199210000000 1.0
C      1  0.6092490000000  0.5410620000000  0.4908440000000 1.0
C      1  0.4952410000000  0.6074230000000  0.5088320000000 1.0
C      1  0.5526910000000  0.4349890000000  0.5808390000000 1.0
C      1  0.4667860000000  0.5567370000000  0.5951970000000 1.0
C      1  0.5358060000000  0.5372490000000  0.5285260000000 1.0
C      1  0.4757720000000  0.3816220000000  0.4753730000000 1.0
C      1  0.5412940000000  0.4573970000000  0.5627210000000 1.0
C      1  0.4204660000000  0.5610090000000  0.5285710000000 1.0
C      1  0.5408310000000  0.4685210000000  0.6070850000000 1.0
C      1  0.3913010000000  0.5375500000000  0.4543330000000 1.0
C      1  0.5842350000000  0.4329400000000  0.5337110000000 1.0
C      1  0.4810950000000  0.3975370000000  0.4497980000000 1.0
C      1  0.4869490000000  0.5969010000000  0.4360530000000 1.0
C      1  0.6095060000000  0.4976660000000  0.4623070000000 1.0
C      1  0.5105790000000  0.4107520000000  0.4110020000000 1.0
C      1  0.4967330000000  0.5530260000000  0.5910860000000 1.0
C      1  0.5566880000000  0.4236630000000  0.5382640000000 1.0
C      1  0.5497860000000  0.4115510000000  0.5645890000000 1.0
C      1  0.5664300000000  0.4620160000000  0.4540860000000 1.0
C      1  0.4376770000000  0.4383030000000  0.4609330000000 1.0
C      1  0.4241720000000  0.4413090000000  0.5163570000000 1.0
C      1  0.5709530000000  0.5207440000000  0.4066620000000 1.0
C      1  0.5022220000000  0.4518630000000  0.5362270000000 1.0
C      1  0.5940920000000  0.5226790000000  0.4218090000000 1.0
C      1  0.4923540000000  0.4300520000000  0.4012690000000 1.0
C      1  0.4327730000000  0.4230240000000  0.5633770000000 1.0
C      1  0.5254780000000  0.6039620000000  0.4677160000000 1.0
C      1  0.4850210000000  0.4931740000000  0.4348750000000 1.0
C      1  0.5978530000000  0.4735140000000  0.5072440000000 1.0
C      1  0.4607040000000  0.4419150000000  0.5942180000000 1.0
C      1  0.5104450000000  0.5098890000000  0.5563700000000 1.0
C      1  0.5360560000000  0.3834230000000  0.5227020000000 1.0
C      1  0.5225770000000  0.4852060000000  0.5164780000000 1.0
C      1  0.4634860000000  0.5427740000000  0.4768880000000 1.0
C      1  0.4190180000000  0.5460580000000  0.4584480000000 1.0
C      1  0.4465630000000  0.5105670000000  0.5918890000000 1.0
C      1  0.4331970000000  0.5405260000000  0.4865360000000 1.0
C      1  0.4017830000000  0.5772880000000  0.5458630000000 1.0
C      1  0.5439090000000  0.5911030000000  0.5144810000000 1.0
C      1  0.3871470000000  0.5527210000000  0.5003430000000 1.0
END
