TITL C-950524-1808-764 -3.30154225324489e-06 125000 -564.068414650509 0 0 91 (C1) n - 1
REM
REM in /home/bkarasulu/work/CARBON/AIRSS/Generating-Clusters/EDIP-Nigel-Params/with-SteepDescent/Only-C1/SD-CG/HFTN-CG
REM
REM
REM
REM
REM
REM ./C.cell (11c1c37f851c82e70ff6c80c92926a4b)
REM
REM compiler GCC version 9.2.1 20190827 (Red Hat 9.2.1-1)
REM options -cpp -mtune=generic -march=x86-64 -g -O0 -fpre-include=/usr/include/finclude/math-vector-fortran.h
REM seed 509059701 1629131546 856523602 -412252652 -1436754018 -987528925 -531947964 755041596 2058734936 437321352 -886584987 -669022358 637255158 550998607 -904781298 2063115060 -1344909851 615123333 738244363 -329097246 1343564668 432990090 2139521869 1064166435 132574968 152291355 -955260877 -1101576959 -278932766 788842988 246237232 1187474363 -1956077677
REM
CELL 1.54180   50.00000   50.00000   50.00000   90.00000   90.00000   90.00000
LATT -1
SFAC C  
C      1  0.4966840000000  0.5013890000000  0.4813730000000 1.0
C      1  0.5404740000000  0.5455730000000  0.5133070000000 1.0
C      1  0.4613380000000  0.5765410000000  0.4802910000000 1.0
C      1  0.4337650000000  0.4801530000000  0.5174680000000 1.0
C      1  0.4445060000000  0.5287150000000  0.4462760000000 1.0
C      1  0.4437640000000  0.5493780000000  0.5191190000000 1.0
C      1  0.4623460000000  0.5169390000000  0.5692460000000 1.0
C      1  0.5698570000000  0.5486030000000  0.5199480000000 1.0
C      1  0.5112040000000  0.5030730000000  0.5363930000000 1.0
C      1  0.5037820000000  0.5726000000000  0.4529670000000 1.0
C      1  0.5248760000000  0.4152600000000  0.5194300000000 1.0
C      1  0.5757800000000  0.4879120000000  0.4966500000000 1.0
C      1  0.5516950000000  0.4717210000000  0.4464440000000 1.0
C      1  0.5390410000000  0.5564000000000  0.4829260000000 1.0
C      1  0.5412360000000  0.5152800000000  0.5215850000000 1.0
C      1  0.5143920000000  0.5954630000000  0.4657370000000 1.0
C      1  0.4270830000000  0.4873440000000  0.4634610000000 1.0
C      1  0.5298110000000  0.4048500000000  0.4933490000000 1.0
C      1  0.4280210000000  0.5247890000000  0.5305990000000 1.0
C      1  0.5666680000000  0.4418830000000  0.5126510000000 1.0
C      1  0.4905570000000  0.4625520000000  0.4615210000000 1.0
C      1  0.5091810000000  0.4172590000000  0.4782470000000 1.0
C      1  0.4978210000000  0.4844780000000  0.5613790000000 1.0
C      1  0.5717700000000  0.5355520000000  0.5463260000000 1.0
C      1  0.4899260000000  0.5010540000000  0.4227390000000 1.0
C      1  0.4766090000000  0.4621880000000  0.5186950000000 1.0
C      1  0.5830330000000  0.5076000000000  0.4746950000000 1.0
C      1  0.4941870000000  0.5521230000000  0.5451120000000 1.0
C      1  0.4974550000000  0.5299910000000  0.4784810000000 1.0
C      1  0.5409360000000  0.4391880000000  0.5243570000000 1.0
C      1  0.5070390000000  0.5275150000000  0.5801480000000 1.0
C      1  0.5528540000000  0.4478410000000  0.5487620000000 1.0
C      1  0.4332200000000  0.4795290000000  0.5481720000000 1.0
C      1  0.4391500000000  0.5084370000000  0.5536120000000 1.0
C      1  0.4444810000000  0.4991680000000  0.4431840000000 1.0
C      1  0.4740540000000  0.5696750000000  0.4526600000000 1.0
C      1  0.5691810000000  0.4594590000000  0.4897680000000 1.0
C      1  0.5389230000000  0.5077420000000  0.4690020000000 1.0
C      1  0.4872490000000  0.5227490000000  0.5402160000000 1.0
C      1  0.5462370000000  0.4969820000000  0.4965780000000 1.0
C      1  0.4839010000000  0.4227020000000  0.5476640000000 1.0
C      1  0.4306680000000  0.5354840000000  0.4713000000000 1.0
C      1  0.4953210000000  0.4188650000000  0.5204310000000 1.0
C      1  0.5344550000000  0.5185700000000  0.4164880000000 1.0
C      1  0.5695330000000  0.5064270000000  0.5451640000000 1.0
C      1  0.4661530000000  0.4836350000000  0.4290920000000 1.0
C      1  0.5201930000000  0.5621220000000  0.5300800000000 1.0
C      1  0.5507510000000  0.5439210000000  0.5638510000000 1.0
C      1  0.4680630000000  0.5662570000000  0.5321840000000 1.0
C      1  0.4838690000000  0.5403980000000  0.4998230000000 1.0
C      1  0.4686140000000  0.4857140000000  0.4771530000000 1.0
C      1  0.5286480000000  0.4707320000000  0.4288970000000 1.0
C      1  0.4691220000000  0.5206810000000  0.5169040000000 1.0
C      1  0.5163380000000  0.5394750000000  0.4265960000000 1.0
C      1  0.4968140000000  0.5536420000000  0.5743790000000 1.0
C      1  0.4623870000000  0.4214470000000  0.4746770000000 1.0
C      1  0.5657480000000  0.5547530000000  0.4717500000000 1.0
C      1  0.4885960000000  0.5302890000000  0.4234540000000 1.0
C      1  0.4834030000000  0.4127340000000  0.4919030000000 1.0
C      1  0.5098070000000  0.4890600000000  0.5068700000000 1.0
C      1  0.5615090000000  0.5005610000000  0.4521260000000 1.0
C      1  0.5458830000000  0.4572800000000  0.4713990000000 1.0
C      1  0.5015070000000  0.4366620000000  0.5659040000000 1.0
C      1  0.4503250000000  0.4596050000000  0.5615100000000 1.0
C      1  0.5284630000000  0.5845560000000  0.4875930000000 1.0
C      1  0.5339750000000  0.5219000000000  0.5696480000000 1.0
C      1  0.5176360000000  0.4935050000000  0.4145400000000 1.0
C      1  0.5055220000000  0.4597140000000  0.5071730000000 1.0
C      1  0.5124230000000  0.4476680000000  0.4795790000000 1.0
C      1  0.4517240000000  0.4412860000000  0.4573560000000 1.0
C      1  0.4817090000000  0.5700720000000  0.5043020000000 1.0
C      1  0.4386150000000  0.5579360000000  0.4895490000000 1.0
C      1  0.5395790000000  0.4689570000000  0.5627730000000 1.0
C      1  0.4867870000000  0.5053790000000  0.5803170000000 1.0
C      1  0.4317530000000  0.4534330000000  0.5031050000000 1.0
C      1  0.4380780000000  0.4615540000000  0.4746860000000 1.0
C      1  0.5800480000000  0.5353700000000  0.4861230000000 1.0
C      1  0.5146070000000  0.4924220000000  0.4578430000000 1.0
C      1  0.4689790000000  0.5427090000000  0.4412050000000 1.0
C      1  0.5172430000000  0.5456780000000  0.4623530000000 1.0
C      1  0.4200390000000  0.5100560000000  0.4816520000000 1.0
C      1  0.5473990000000  0.4973270000000  0.5613210000000 1.0
C      1  0.4177100000000  0.5045620000000  0.5104530000000 1.0
C      1  0.4558140000000  0.4389350000000  0.5142190000000 1.0
C      1  0.5134300000000  0.4619800000000  0.5729420000000 1.0
C      1  0.4718830000000  0.4543920000000  0.4387030000000 1.0
C      1  0.4768720000000  0.4660500000000  0.5486790000000 1.0
C      1  0.4628320000000  0.4882140000000  0.5080790000000 1.0
C      1  0.4547180000000  0.4321020000000  0.5448020000000 1.0
C      1  0.5100310000000  0.5818260000000  0.5105520000000 1.0
C      1  0.5603350000000  0.5164510000000  0.4279790000000 1.0
END
