TITL C-951341-1326-481 -1.81285591405095e-06 125000 -520.725143009866 0 0 83 (C1) n - 1
REM
REM in /home/bkarasulu/work/CARBON/AIRSS/Generating-Clusters/EDIP-Nigel-Params/with-SteepDescent/Only-C1/SD-CG/HFTN-CG
REM
REM
REM
REM
REM
REM ./C.cell (11c1c37f851c82e70ff6c80c92926a4b)
REM
REM compiler GCC version 9.2.1 20190827 (Red Hat 9.2.1-1)
REM options -cpp -mtune=generic -march=x86-64 -g -O0 -fpre-include=/usr/include/finclude/math-vector-fortran.h
REM seed -1043003478 676267344 279474651 -813128656 -173304608 685232394 -2093717896 -1406572239 -867280644 1267679445 -1477311062 295755335 201258198 -199194700 -1802537215 895041841 -305380602 -184662345 1069058868 -795823937 -1729106834 1800447431 582790529 1771119798 624232106 81933035 551607470 2084885173 2075425644 1332394112 -1773980220 452076565 1601031102
REM
CELL 1.54180   50.00000   50.00000   50.00000   90.00000   90.00000   90.00000
LATT -1
SFAC C  
C      1  0.5328220000000  0.4702210000000  0.5611980000000 1.0
C      1  0.4816390000000  0.5622620000000  0.4890610000000 1.0
C      1  0.5425920000000  0.4544440000000  0.4851700000000 1.0
C      1  0.5602100000000  0.4887740000000  0.4449400000000 1.0
C      1  0.5182180000000  0.5527810000000  0.5703960000000 1.0
C      1  0.4568480000000  0.4349890000000  0.5254980000000 1.0
C      1  0.4809130000000  0.5209240000000  0.5609750000000 1.0
C      1  0.4727850000000  0.5165550000000  0.5070550000000 1.0
C      1  0.4832320000000  0.4815370000000  0.5333850000000 1.0
C      1  0.5486690000000  0.5159810000000  0.5729680000000 1.0
C      1  0.5440570000000  0.4671480000000  0.4573090000000 1.0
C      1  0.5150710000000  0.4482760000000  0.5700610000000 1.0
C      1  0.4887340000000  0.4748250000000  0.5638060000000 1.0
C      1  0.5287180000000  0.5653780000000  0.4996330000000 1.0
C      1  0.5212800000000  0.5105330000000  0.5326160000000 1.0
C      1  0.5215410000000  0.4312250000000  0.4855160000000 1.0
C      1  0.4878950000000  0.5470850000000  0.4640350000000 1.0
C      1  0.5833980000000  0.4690240000000  0.4990940000000 1.0
C      1  0.4688290000000  0.5399820000000  0.4193660000000 1.0
C      1  0.5715690000000  0.4832640000000  0.5411800000000 1.0
C      1  0.4913090000000  0.5495220000000  0.5627820000000 1.0
C      1  0.4537060000000  0.4569270000000  0.4706320000000 1.0
C      1  0.4555850000000  0.5567170000000  0.5004200000000 1.0
C      1  0.5672070000000  0.5155660000000  0.5058380000000 1.0
C      1  0.4897620000000  0.5120120000000  0.5325240000000 1.0
C      1  0.5306520000000  0.4553360000000  0.4343000000000 1.0
C      1  0.4331320000000  0.5146140000000  0.4554920000000 1.0
C      1  0.5122640000000  0.4148220000000  0.5350510000000 1.0
C      1  0.4136390000000  0.5278100000000  0.5249040000000 1.0
C      1  0.5715490000000  0.5111690000000  0.4576880000000 1.0
C      1  0.4729280000000  0.4366280000000  0.4774150000000 1.0
C      1  0.5334710000000  0.4703440000000  0.4103160000000 1.0
C      1  0.4766350000000  0.4281550000000  0.5044660000000 1.0
C      1  0.5347720000000  0.5328620000000  0.4499180000000 1.0
C      1  0.5396130000000  0.5351750000000  0.5336640000000 1.0
C      1  0.5011040000000  0.5613340000000  0.5102520000000 1.0
C      1  0.5430150000000  0.5428450000000  0.5619230000000 1.0
C      1  0.4556670000000  0.5565840000000  0.5295250000000 1.0
C      1  0.5318020000000  0.4754810000000  0.5072140000000 1.0
C      1  0.4687260000000  0.4375390000000  0.5530650000000 1.0
C      1  0.4378140000000  0.5436290000000  0.4559230000000 1.0
C      1  0.5829530000000  0.4914110000000  0.5158520000000 1.0
C      1  0.4721720000000  0.5125230000000  0.4237790000000 1.0
C      1  0.4975340000000  0.5134920000000  0.4671000000000 1.0
C      1  0.5003300000000  0.4767140000000  0.5072270000000 1.0
C      1  0.5574510000000  0.5613130000000  0.4613720000000 1.0
C      1  0.4996700000000  0.4389710000000  0.4673730000000 1.0
C      1  0.5711210000000  0.5031120000000  0.5616550000000 1.0
C      1  0.5452350000000  0.4945930000000  0.4196850000000 1.0
C      1  0.5694310000000  0.4467650000000  0.4926790000000 1.0
C      1  0.5138620000000  0.5570400000000  0.4520330000000 1.0
C      1  0.4852710000000  0.4970670000000  0.4891790000000 1.0
C      1  0.4844030000000  0.5611320000000  0.5363030000000 1.0
C      1  0.4311290000000  0.5521950000000  0.4843050000000 1.0
C      1  0.4585140000000  0.4705720000000  0.4446880000000 1.0
C      1  0.5732000000000  0.5524490000000  0.4838500000000 1.0
C      1  0.4507640000000  0.4983760000000  0.4387020000000 1.0
C      1  0.4125620000000  0.5305740000000  0.4956590000000 1.0
C      1  0.5466560000000  0.4674920000000  0.5355180000000 1.0
C      1  0.4431450000000  0.4862320000000  0.5589470000000 1.0
C      1  0.4842830000000  0.4672990000000  0.4313640000000 1.0
C      1  0.5808320000000  0.5241560000000  0.4805580000000 1.0
C      1  0.5254860000000  0.4997970000000  0.5623330000000 1.0
C      1  0.4124640000000  0.4802040000000  0.4842400000000 1.0
C      1  0.4379110000000  0.4568870000000  0.5181890000000 1.0
C      1  0.4985770000000  0.4325670000000  0.5525690000000 1.0
C      1  0.4978690000000  0.5014710000000  0.5765370000000 1.0
C      1  0.4509680000000  0.4821920000000  0.5301370000000 1.0
C      1  0.5050090000000  0.4240480000000  0.5095810000000 1.0
C      1  0.4647740000000  0.5510220000000  0.4447410000000 1.0
C      1  0.4194200000000  0.5066270000000  0.4795280000000 1.0
C      1  0.5244100000000  0.5150950000000  0.4262440000000 1.0
C      1  0.4308790000000  0.4596340000000  0.4890570000000 1.0
C      1  0.4976550000000  0.5022710000000  0.4369510000000 1.0
C      1  0.4398340000000  0.5322450000000  0.5393240000000 1.0
C      1  0.5385920000000  0.5054470000000  0.5004220000000 1.0
C      1  0.4609140000000  0.4652690000000  0.5718240000000 1.0
C      1  0.4451680000000  0.5083160000000  0.5149100000000 1.0
C      1  0.5541800000000  0.5520780000000  0.5106070000000 1.0
C      1  0.5033410000000  0.4478240000000  0.4402950000000 1.0
C      1  0.5262390000000  0.5159000000000  0.4743110000000 1.0
C      1  0.5318340000000  0.5717370000000  0.4705880000000 1.0
C      1  0.4505830000000  0.5156110000000  0.5632070000000 1.0
END
