TITL C-951338-5626-65 4.47539967191349e-05 125000 -205.787031702329 0 0 35 (C1) n - 1
REM
REM in /home/bkarasulu/work/CARBON/AIRSS/Generating-Clusters/EDIP-Nigel-Params/with-SteepDescent/Only-C1/SD-CG/HFTN-CG
REM
REM
REM
REM
REM
REM ./C.cell (11c1c37f851c82e70ff6c80c92926a4b)
REM
REM compiler GCC version 9.2.1 20190827 (Red Hat 9.2.1-1)
REM options -cpp -mtune=generic -march=x86-64 -g -O0 -fpre-include=/usr/include/finclude/math-vector-fortran.h
REM seed 2068006507 -1783116456 -1143108911 -1065313416 -74014748 -900860721 1865980512 1376571053 -1254040667 700933346 -2137912897 -1836637087 -83461618 1022605822 -1981311020 489099692 -455289055 -1652395298 -1184906750 -385337687 47855514 1570545729 3848465 -466590165 -1708781462 -312832156 230618449 386836743 786269178 1704899935 1059788618 1889909504 -1002542125
REM
CELL 1.54180   50.00000   50.00000   50.00000   90.00000   90.00000   90.00000
LATT -1
SFAC C  
C      1  0.4676730000000  0.4744390000000  0.4765030000000 1.0
C      1  0.5683150000000  0.4985920000000  0.4650370000000 1.0
C      1  0.5058900000000  0.5153720000000  0.4713640000000 1.0
C      1  0.5707040000000  0.4781970000000  0.4838990000000 1.0
C      1  0.5459850000000  0.4968100000000  0.4482560000000 1.0
C      1  0.5182040000000  0.4942960000000  0.4518590000000 1.0
C      1  0.5129770000000  0.4672200000000  0.4628860000000 1.0
C      1  0.5539720000000  0.4567820000000  0.4896860000000 1.0
C      1  0.4686720000000  0.4485690000000  0.5170680000000 1.0
C      1  0.4495240000000  0.5401650000000  0.5100660000000 1.0
C      1  0.4903340000000  0.5101530000000  0.5440060000000 1.0
C      1  0.4890770000000  0.5627290000000  0.4990210000000 1.0
C      1  0.4360790000000  0.4896110000000  0.5342800000000 1.0
C      1  0.4747900000000  0.5231430000000  0.4729350000000 1.0
C      1  0.4792060000000  0.5855580000000  0.5105190000000 1.0
C      1  0.4519840000000  0.4877250000000  0.5558060000000 1.0
C      1  0.5359200000000  0.4523410000000  0.4689550000000 1.0
C      1  0.4790210000000  0.4912710000000  0.5607240000000 1.0
C      1  0.4678230000000  0.6047420000000  0.5230800000000 1.0
C      1  0.5230800000000  0.5402450000000  0.4728190000000 1.0
C      1  0.4381360000000  0.4864750000000  0.5069700000000 1.0
C      1  0.4949040000000  0.4527150000000  0.5081540000000 1.0
C      1  0.5428340000000  0.4544920000000  0.5150860000000 1.0
C      1  0.4945900000000  0.4688720000000  0.5658400000000 1.0
C      1  0.4901410000000  0.5161340000000  0.5167950000000 1.0
C      1  0.4958640000000  0.4730970000000  0.4866550000000 1.0
C      1  0.5116630000000  0.4521960000000  0.5534240000000 1.0
C      1  0.5506510000000  0.5386680000000  0.4723510000000 1.0
C      1  0.4748450000000  0.5367830000000  0.5005140000000 1.0
C      1  0.5117770000000  0.5629000000000  0.4836470000000 1.0
C      1  0.4559870000000  0.5008180000000  0.4759860000000 1.0
C      1  0.5059550000000  0.5004930000000  0.4978510000000 1.0
C      1  0.4523980000000  0.4625090000000  0.4983590000000 1.0
C      1  0.5735870000000  0.5246030000000  0.4733830000000 1.0
C      1  0.5174380000000  0.4512860000000  0.5262140000000 1.0
END
