TITL C-950526-5686-116 8.36523264555981e-05 125000 -150.999197706664 0 0 26 (C1) n - 1
REM
REM in /home/bkarasulu/work/CARBON/AIRSS/Generating-Clusters/EDIP-Nigel-Params/with-SteepDescent/Only-C1/SD-CG/HFTN-CG
REM
REM
REM
REM
REM
REM ./C.cell (11c1c37f851c82e70ff6c80c92926a4b)
REM
REM compiler GCC version 9.2.1 20190827 (Red Hat 9.2.1-1)
REM options -cpp -mtune=generic -march=x86-64 -g -O0 -fpre-include=/usr/include/finclude/math-vector-fortran.h
REM seed -1113263694 1929378239 -1084779317 -1591327425 -1304091747 1099640207 -1047585682 1726126760 372171296 1888924874 123217724 1434181464 -1835682074 -1254078729 -1993309310 2147213317 -1185563597 -709125689 -374168935 -1633884774 -608745852 -44358832 -358388511 -2008576373 620407380 -50466717 1079464846 239518251 -1402750805 688331787 161552365 -1877217825 1145892104
REM
CELL 1.54180   50.00000   50.00000   50.00000   90.00000   90.00000   90.00000
LATT -1
SFAC C  
C      1  0.5320400000000  0.4612490000000  0.4596190000000 1.0
C      1  0.5589610000000  0.5021850000000  0.5282160000000 1.0
C      1  0.4493600000000  0.5399970000000  0.4895430000000 1.0
C      1  0.5613790000000  0.5208140000000  0.5088660000000 1.0
C      1  0.5346050000000  0.4488360000000  0.4831420000000 1.0
C      1  0.5037660000000  0.4578630000000  0.5238270000000 1.0
C      1  0.5215470000000  0.4462520000000  0.5062040000000 1.0
C      1  0.4855520000000  0.4570060000000  0.4468550000000 1.0
C      1  0.4668540000000  0.4823600000000  0.5374190000000 1.0
C      1  0.5103450000000  0.4740050000000  0.4479200000000 1.0
C      1  0.5082760000000  0.5409410000000  0.4643710000000 1.0
C      1  0.4552730000000  0.5350310000000  0.5161720000000 1.0
C      1  0.4767660000000  0.4650660000000  0.5174640000000 1.0
C      1  0.4885420000000  0.5219830000000  0.4593890000000 1.0
C      1  0.5143940000000  0.5547010000000  0.4867630000000 1.0
C      1  0.4752730000000  0.5541250000000  0.5144010000000 1.0
C      1  0.4635110000000  0.5297300000000  0.4683860000000 1.0
C      1  0.4904780000000  0.4894850000000  0.5517950000000 1.0
C      1  0.5142700000000  0.5265170000000  0.5267780000000 1.0
C      1  0.5035170000000  0.5490810000000  0.5119830000000 1.0
C      1  0.4662220000000  0.4634260000000  0.4918900000000 1.0
C      1  0.4948130000000  0.4945390000000  0.4661630000000 1.0
C      1  0.5429110000000  0.5255380000000  0.5298990000000 1.0
C      1  0.4994480000000  0.5156070000000  0.5476880000000 1.0
C      1  0.5107620000000  0.4695870000000  0.5484980000000 1.0
C      1  0.4711340000000  0.4740760000000  0.4667490000000 1.0
END
