TITL C-951339-9237-530 4.9473293220449e-07 125000 -186.434363042235 0 0 32 (C1) n - 1
REM
REM in /home/bkarasulu/work/CARBON/AIRSS/Generating-Clusters/EDIP-Nigel-Params/with-SteepDescent/Only-C1/SD-CG/HFTN-CG
REM
REM
REM
REM
REM
REM ./C.cell (11c1c37f851c82e70ff6c80c92926a4b)
REM
REM compiler GCC version 9.2.1 20190827 (Red Hat 9.2.1-1)
REM options -cpp -mtune=generic -march=x86-64 -g -O0 -fpre-include=/usr/include/finclude/math-vector-fortran.h
REM seed 1033605623 -920733779 1401773661 830438463 1109410774 1031848562 -578937941 1870953538 1349017852 -1353217284 1488309491 584444737 -629900307 747850025 1503907395 -886951245 1018670754 -1062440240 -1272311361 1425524895 -1402890180 -16200958 331138278 326500794 -657364307 1534991245 -1749830667 -530718338 100506997 -1528220112 575922533 -359256978 2094555694
REM
CELL 1.54180   50.00000   50.00000   50.00000   90.00000   90.00000   90.00000
LATT -1
SFAC C  
C      1  0.5532210000000  0.5162000000000  0.4857720000000 1.0
C      1  0.5346240000000  0.4920820000000  0.4810100000000 1.0
C      1  0.5047340000000  0.5527600000000  0.5238690000000 1.0
C      1  0.5332570000000  0.5028480000000  0.5339590000000 1.0
C      1  0.4991650000000  0.4445860000000  0.4668040000000 1.0
C      1  0.4663980000000  0.5175620000000  0.4931230000000 1.0
C      1  0.4492810000000  0.4758170000000  0.5138800000000 1.0
C      1  0.5375960000000  0.5614710000000  0.4866210000000 1.0
C      1  0.5420770000000  0.4688460000000  0.4994410000000 1.0
C      1  0.4678670000000  0.4865330000000  0.4924420000000 1.0
C      1  0.4393560000000  0.4513570000000  0.5109260000000 1.0
C      1  0.4613960000000  0.5034390000000  0.4463490000000 1.0
C      1  0.4892820000000  0.5372040000000  0.4683540000000 1.0
C      1  0.4696340000000  0.4812300000000  0.4615030000000 1.0
C      1  0.5211140000000  0.4845090000000  0.4557420000000 1.0
C      1  0.4572970000000  0.5067000000000  0.5502900000000 1.0
C      1  0.5064680000000  0.5068970000000  0.5455000000000 1.0
C      1  0.5022380000000  0.4492340000000  0.4950370000000 1.0
C      1  0.4656820000000  0.5324700000000  0.5488020000000 1.0
C      1  0.4964310000000  0.4694480000000  0.4525000000000 1.0
C      1  0.4637150000000  0.4816180000000  0.5394090000000 1.0
C      1  0.5492360000000  0.5409320000000  0.4725230000000 1.0
C      1  0.5303030000000  0.4445320000000  0.4902430000000 1.0
C      1  0.4629610000000  0.5254060000000  0.4633730000000 1.0
C      1  0.5329400000000  0.4748780000000  0.5264530000000 1.0
C      1  0.5309060000000  0.5503680000000  0.5118680000000 1.0
C      1  0.4942790000000  0.4777460000000  0.5042090000000 1.0
C      1  0.4947030000000  0.4795930000000  0.5352580000000 1.0
C      1  0.5438910000000  0.5239740000000  0.5137170000000 1.0
C      1  0.4921330000000  0.5318470000000  0.5393120000000 1.0
C      1  0.4969410000000  0.5274860000000  0.4959400000000 1.0
C      1  0.5108720000000  0.5004290000000  0.4957690000000 1.0
END
