TITL C-950525-1983-346 -1.86374649940148e-06 125000 -435.265030570871 0 0 71 (C1) n - 1
REM
REM in /home/bkarasulu/work/CARBON/AIRSS/Generating-Clusters/EDIP-Nigel-Params/with-SteepDescent/Only-C1/SD-CG/HFTN-CG
REM
REM
REM
REM
REM
REM ./C.cell (11c1c37f851c82e70ff6c80c92926a4b)
REM
REM compiler GCC version 9.2.1 20190827 (Red Hat 9.2.1-1)
REM options -cpp -mtune=generic -march=x86-64 -g -O0 -fpre-include=/usr/include/finclude/math-vector-fortran.h
REM seed -1133028527 -2020806030 -2064862995 -1435931947 1419159848 -78649470 -564869973 -1886118477 1157973657 -1958137022 1568521451 -472404731 -1364947453 -724574260 -1558216267 721368675 -1138088570 -2094609182 -123565778 -2126097625 -93067537 1921799263 -737964976 -1661211528 613020867 -787214210 37955386 -54002632 -323773481 -354018100 768693887 -1868877315 242219750
REM
CELL 1.54180   50.00000   50.00000   50.00000   90.00000   90.00000   90.00000
LATT -1
SFAC C  
C      1  0.4347900000000  0.4647380000000  0.5028520000000 1.0
C      1  0.4786680000000  0.5024710000000  0.5318240000000 1.0
C      1  0.5746320000000  0.5101870000000  0.4924150000000 1.0
C      1  0.5740660000000  0.5029430000000  0.5436740000000 1.0
C      1  0.5575570000000  0.4673310000000  0.4794500000000 1.0
C      1  0.4857430000000  0.5489670000000  0.5431690000000 1.0
C      1  0.4533290000000  0.5393560000000  0.5065940000000 1.0
C      1  0.5006780000000  0.4527850000000  0.5748460000000 1.0
C      1  0.5070340000000  0.5587560000000  0.5056600000000 1.0
C      1  0.5166930000000  0.4629070000000  0.4480310000000 1.0
C      1  0.5166030000000  0.4858620000000  0.5056440000000 1.0
C      1  0.4282520000000  0.4862390000000  0.5227660000000 1.0
C      1  0.5285760000000  0.4842140000000  0.4313900000000 1.0
C      1  0.5136020000000  0.4865330000000  0.5391110000000 1.0
C      1  0.4716210000000  0.4343230000000  0.5006610000000 1.0
C      1  0.5116680000000  0.5221670000000  0.4717220000000 1.0
C      1  0.4415540000000  0.4857520000000  0.5487660000000 1.0
C      1  0.5120350000000  0.4569780000000  0.4941440000000 1.0
C      1  0.5313960000000  0.4550330000000  0.4718390000000 1.0
C      1  0.4827990000000  0.4567220000000  0.4831680000000 1.0
C      1  0.5501220000000  0.5558080000000  0.4494000000000 1.0
C      1  0.5101850000000  0.5075990000000  0.5625940000000 1.0
C      1  0.4895750000000  0.5012850000000  0.5042250000000 1.0
C      1  0.4823100000000  0.5711330000000  0.4713780000000 1.0
C      1  0.4907850000000  0.4485800000000  0.4465860000000 1.0
C      1  0.4568660000000  0.4624000000000  0.5542760000000 1.0
C      1  0.4524870000000  0.5150010000000  0.4490250000000 1.0
C      1  0.5626730000000  0.4682910000000  0.5085760000000 1.0
C      1  0.5061580000000  0.5329870000000  0.4433910000000 1.0
C      1  0.5376270000000  0.5078170000000  0.5768790000000 1.0
C      1  0.4339870000000  0.5205420000000  0.4951180000000 1.0
C      1  0.5365520000000  0.5348370000000  0.4372800000000 1.0
C      1  0.4590730000000  0.5419860000000  0.4469260000000 1.0
C      1  0.4487900000000  0.4377210000000  0.5438330000000 1.0
C      1  0.4814520000000  0.4985820000000  0.5752430000000 1.0
C      1  0.5322250000000  0.5031840000000  0.4832340000000 1.0
C      1  0.4550790000000  0.5095680000000  0.5618030000000 1.0
C      1  0.4776130000000  0.4688450000000  0.5739360000000 1.0
C      1  0.4896990000000  0.5706180000000  0.5261830000000 1.0
C      1  0.5295210000000  0.4386930000000  0.5359170000000 1.0
C      1  0.4902450000000  0.4186090000000  0.5146950000000 1.0
C      1  0.4458660000000  0.5007740000000  0.4750480000000 1.0
C      1  0.4950170000000  0.5307170000000  0.4939840000000 1.0
C      1  0.4591040000000  0.4750540000000  0.4221430000000 1.0
C      1  0.5352850000000  0.5463720000000  0.5473180000000 1.0
C      1  0.5437430000000  0.5054930000000  0.4464340000000 1.0
C      1  0.5749170000000  0.5387110000000  0.4941620000000 1.0
C      1  0.5660260000000  0.4941530000000  0.4674670000000 1.0
C      1  0.5145190000000  0.4324260000000  0.5116140000000 1.0
C      1  0.5702110000000  0.4947460000000  0.5165770000000 1.0
C      1  0.4689900000000  0.4995900000000  0.4315610000000 1.0
C      1  0.5142580000000  0.4590790000000  0.5509600000000 1.0
C      1  0.5589440000000  0.4915660000000  0.5650110000000 1.0
C      1  0.5560100000000  0.5662280000000  0.4740740000000 1.0
C      1  0.4705780000000  0.4854020000000  0.4875380000000 1.0
C      1  0.4643340000000  0.5310170000000  0.5350100000000 1.0
C      1  0.5501880000000  0.5519380000000  0.4981330000000 1.0
C      1  0.4267540000000  0.4788970000000  0.4685750000000 1.0
C      1  0.5547760000000  0.5302890000000  0.5629770000000 1.0
C      1  0.4631290000000  0.4572750000000  0.4436080000000 1.0
C      1  0.4483420000000  0.4417220000000  0.5157530000000 1.0
C      1  0.5093980000000  0.5341940000000  0.5491830000000 1.0
C      1  0.4431150000000  0.4559670000000  0.4654860000000 1.0
C      1  0.4165390000000  0.5098520000000  0.5142050000000 1.0
C      1  0.4628790000000  0.5603710000000  0.4894860000000 1.0
C      1  0.5073390000000  0.5774980000000  0.4830870000000 1.0
C      1  0.5411000000000  0.5617470000000  0.5233880000000 1.0
C      1  0.5536330000000  0.4490530000000  0.5263800000000 1.0
C      1  0.5123540000000  0.4948280000000  0.4111870000000 1.0
C      1  0.4944920000000  0.5116290000000  0.4247380000000 1.0
C      1  0.4838390000000  0.5550640000000  0.4466860000000 1.0
END
