TITL C-951333-8791-444 2.2073131102874e-07 125000 -845.628799136904 0 0 136 (C1) n - 1
REM
REM in /home/bkarasulu/work/CARBON/AIRSS/Generating-Clusters/EDIP-Nigel-Params/with-SteepDescent/Only-C1/SD-CG/HFTN-CG
REM
REM
REM
REM
REM
REM ./C.cell (11c1c37f851c82e70ff6c80c92926a4b)
REM
REM compiler GCC version 9.2.1 20190827 (Red Hat 9.2.1-1)
REM options -cpp -mtune=generic -march=x86-64 -g -O0 -fpre-include=/usr/include/finclude/math-vector-fortran.h
REM seed -690717241 -1723200528 -980420741 728857407 -1578422963 -658692266 -1773799051 405585661 104057046 728247336 842989803 796412648 1091345754 -1768328042 -323089055 -1206009093 -340810367 1255648024 -660933866 1707976062 2033479403 -1882223975 547932116 896716713 -689960189 941820924 1751106405 935523660 -1802090066 1034003716 1674774786 1647932928 -441059487
REM
CELL 1.54180   50.00000   50.00000   50.00000   90.00000   90.00000   90.00000
LATT -1
SFAC C  
C      1  0.4153750000000  0.5159790000000  0.4987230000000 1.0
C      1  0.4732260000000  0.5536530000000  0.5818840000000 1.0
C      1  0.5103280000000  0.5133510000000  0.4234720000000 1.0
C      1  0.5101430000000  0.4711730000000  0.5138110000000 1.0
C      1  0.5532100000000  0.5012050000000  0.3970830000000 1.0
C      1  0.5512500000000  0.4852860000000  0.4838890000000 1.0
C      1  0.5897790000000  0.4944000000000  0.4639520000000 1.0
C      1  0.5852920000000  0.4795710000000  0.5273230000000 1.0
C      1  0.4580340000000  0.4770470000000  0.5091180000000 1.0
C      1  0.5359680000000  0.4506500000000  0.4218300000000 1.0
C      1  0.5197070000000  0.5694840000000  0.5633660000000 1.0
C      1  0.4719540000000  0.5269750000000  0.3997130000000 1.0
C      1  0.4640120000000  0.3951370000000  0.4870920000000 1.0
C      1  0.4923820000000  0.4572290000000  0.5369770000000 1.0
C      1  0.5915740000000  0.5439690000000  0.5261060000000 1.0
C      1  0.5050790000000  0.4042070000000  0.5085330000000 1.0
C      1  0.5644500000000  0.5360470000000  0.5527820000000 1.0
C      1  0.5601050000000  0.4350250000000  0.5626540000000 1.0
C      1  0.4582550000000  0.4781930000000  0.4007290000000 1.0
C      1  0.5093090000000  0.4342330000000  0.5489820000000 1.0
C      1  0.5886320000000  0.5195220000000  0.4796790000000 1.0
C      1  0.4458490000000  0.4635250000000  0.4218010000000 1.0
C      1  0.5449040000000  0.4630030000000  0.5275410000000 1.0
C      1  0.4102250000000  0.5388500000000  0.4811310000000 1.0
C      1  0.4264960000000  0.4739180000000  0.5398900000000 1.0
C      1  0.4095830000000  0.4712140000000  0.5156270000000 1.0
C      1  0.5011690000000  0.5822990000000  0.5431260000000 1.0
C      1  0.5595760000000  0.4612530000000  0.5720490000000 1.0
C      1  0.4327630000000  0.5233930000000  0.5221290000000 1.0
C      1  0.5226690000000  0.4687380000000  0.4052440000000 1.0
C      1  0.5258590000000  0.5413280000000  0.5264350000000 1.0
C      1  0.5403620000000  0.5736210000000  0.4543500000000 1.0
C      1  0.4233860000000  0.5561530000000  0.4362860000000 1.0
C      1  0.4544620000000  0.5215930000000  0.4235080000000 1.0
C      1  0.5005010000000  0.4829840000000  0.6072170000000 1.0
C      1  0.4355640000000  0.4481450000000  0.5490460000000 1.0
C      1  0.4874990000000  0.4704070000000  0.4431320000000 1.0
C      1  0.5263440000000  0.4961570000000  0.4033130000000 1.0
C      1  0.4881900000000  0.5804130000000  0.4960020000000 1.0
C      1  0.5605020000000  0.4603750000000  0.4363380000000 1.0
C      1  0.4752730000000  0.5943580000000  0.4730390000000 1.0
C      1  0.4450900000000  0.4151750000000  0.4813670000000 1.0
C      1  0.6031520000000  0.4997680000000  0.5213440000000 1.0
C      1  0.5262180000000  0.4491870000000  0.4969560000000 1.0
C      1  0.5647840000000  0.5097240000000  0.4209630000000 1.0
C      1  0.4243410000000  0.4966870000000  0.5598300000000 1.0
C      1  0.4943600000000  0.5594720000000  0.4366020000000 1.0
C      1  0.5043910000000  0.4978590000000  0.4977510000000 1.0
C      1  0.4322250000000  0.5834470000000  0.4752220000000 1.0
C      1  0.4785200000000  0.4425510000000  0.4893280000000 1.0
C      1  0.4521710000000  0.4529420000000  0.5698240000000 1.0
C      1  0.5317000000000  0.5094600000000  0.4858580000000 1.0
C      1  0.4993230000000  0.5320080000000  0.5366500000000 1.0
C      1  0.5444560000000  0.5304080000000  0.5063230000000 1.0
C      1  0.5393920000000  0.5116450000000  0.5926850000000 1.0
C      1  0.5742300000000  0.5432610000000  0.4710230000000 1.0
C      1  0.4517530000000  0.4372110000000  0.4626350000000 1.0
C      1  0.5990600000000  0.4720300000000  0.4789040000000 1.0
C      1  0.5708210000000  0.4890520000000  0.4411520000000 1.0
C      1  0.5366950000000  0.5916910000000  0.5076110000000 1.0
C      1  0.4902320000000  0.4617870000000  0.5908570000000 1.0
C      1  0.5119630000000  0.4449500000000  0.5783780000000 1.0
C      1  0.5179670000000  0.5760130000000  0.4377460000000 1.0
C      1  0.4991370000000  0.5103690000000  0.5587950000000 1.0
C      1  0.4949800000000  0.4106450000000  0.5365670000000 1.0
C      1  0.4507340000000  0.6020840000000  0.4853030000000 1.0
C      1  0.5418210000000  0.4044030000000  0.4748570000000 1.0
C      1  0.4856440000000  0.5166130000000  0.5148500000000 1.0
C      1  0.5397980000000  0.5738380000000  0.4837680000000 1.0
C      1  0.4429530000000  0.5171630000000  0.4606010000000 1.0
C      1  0.5576630000000  0.5508710000000  0.4483180000000 1.0
C      1  0.5415320000000  0.4928390000000  0.5353110000000 1.0
C      1  0.5034370000000  0.5494650000000  0.5786750000000 1.0
C      1  0.5771640000000  0.4685890000000  0.4981680000000 1.0
C      1  0.4421040000000  0.5710720000000  0.4510300000000 1.0
C      1  0.5553430000000  0.5805340000000  0.5294560000000 1.0
C      1  0.5778210000000  0.5671160000000  0.5140610000000 1.0
C      1  0.5393560000000  0.4609320000000  0.4711890000000 1.0
C      1  0.4681950000000  0.5614120000000  0.5118020000000 1.0
C      1  0.4416320000000  0.5859860000000  0.5579920000000 1.0
C      1  0.4757680000000  0.4984660000000  0.3924950000000 1.0
C      1  0.4360900000000  0.4875870000000  0.4664620000000 1.0
C      1  0.5162380000000  0.4159720000000  0.4620840000000 1.0
C      1  0.4264660000000  0.5671450000000  0.5446130000000 1.0
C      1  0.5598730000000  0.5545280000000  0.4935450000000 1.0
C      1  0.4611190000000  0.5023120000000  0.5261330000000 1.0
C      1  0.4203130000000  0.5637600000000  0.4940990000000 1.0
C      1  0.4872800000000  0.3850520000000  0.4963840000000 1.0
C      1  0.4667260000000  0.4107710000000  0.5381770000000 1.0
C      1  0.5136520000000  0.4663780000000  0.4566330000000 1.0
C      1  0.5604660000000  0.5112890000000  0.5704520000000 1.0
C      1  0.4761950000000  0.4675350000000  0.5641980000000 1.0
C      1  0.5310860000000  0.4694630000000  0.5756060000000 1.0
C      1  0.5518320000000  0.4202370000000  0.5180360000000 1.0
C      1  0.5280440000000  0.4851060000000  0.6003280000000 1.0
C      1  0.4148260000000  0.4497340000000  0.4973930000000 1.0
C      1  0.5684610000000  0.4374990000000  0.5001880000000 1.0
C      1  0.5052740000000  0.4283670000000  0.4887800000000 1.0
C      1  0.4816440000000  0.5589470000000  0.5394850000000 1.0
C      1  0.4712250000000  0.4971500000000  0.5571780000000 1.0
C      1  0.4305680000000  0.4263250000000  0.5046790000000 1.0
C      1  0.4493180000000  0.5062660000000  0.5751890000000 1.0
C      1  0.4855000000000  0.4959330000000  0.4735320000000 1.0
C      1  0.4367470000000  0.5556700000000  0.5184310000000 1.0
C      1  0.5191970000000  0.4328370000000  0.4379820000000 1.0
C      1  0.5414620000000  0.5579330000000  0.5453280000000 1.0
C      1  0.5640940000000  0.4246120000000  0.4750230000000 1.0
C      1  0.4154540000000  0.5211160000000  0.5464630000000 1.0
C      1  0.4626700000000  0.4764020000000  0.4790430000000 1.0
C      1  0.4286060000000  0.4817520000000  0.4372280000000 1.0
C      1  0.5191990000000  0.4883960000000  0.5535900000000 1.0
C      1  0.4656570000000  0.5782490000000  0.5688680000000 1.0
C      1  0.5077650000000  0.5932990000000  0.5154320000000 1.0
C      1  0.4969810000000  0.5392180000000  0.4111880000000 1.0
C      1  0.5719820000000  0.4840130000000  0.5574740000000 1.0
C      1  0.4493310000000  0.4320080000000  0.5280860000000 1.0
C      1  0.4307970000000  0.5053820000000  0.4214230000000 1.0
C      1  0.4735000000000  0.5355550000000  0.4978350000000 1.0
C      1  0.5704400000000  0.4398940000000  0.4527360000000 1.0
C      1  0.5409570000000  0.4358370000000  0.5408630000000 1.0
C      1  0.4705690000000  0.5777810000000  0.4476110000000 1.0
C      1  0.5243340000000  0.5230690000000  0.4558420000000 1.0
C      1  0.5355050000000  0.3991520000000  0.5044160000000 1.0
C      1  0.5188500000000  0.5308870000000  0.5925880000000 1.0
C      1  0.4200510000000  0.5450470000000  0.5623170000000 1.0
C      1  0.4182220000000  0.5338300000000  0.4531020000000 1.0
C      1  0.5630640000000  0.5167830000000  0.5266690000000 1.0
C      1  0.4983790000000  0.5389080000000  0.4577590000000 1.0
C      1  0.4123950000000  0.4878130000000  0.4883110000000 1.0
C      1  0.4697160000000  0.4512770000000  0.5169410000000 1.0
C      1  0.6011310000000  0.5228980000000  0.5065700000000 1.0
C      1  0.4846070000000  0.4974460000000  0.4295190000000 1.0
C      1  0.5500730000000  0.5325610000000  0.4286920000000 1.0
C      1  0.4746190000000  0.5247000000000  0.4703720000000 1.0
C      1  0.4646630000000  0.4504940000000  0.4401080000000 1.0
C      1  0.4496270000000  0.5350350000000  0.5818690000000 1.0
END
