TITL C-950526-5686-412 1.43731426091377e-07 125000 -781.211441402271 0 0 124 (C1) n - 1
REM
REM in /home/bkarasulu/work/CARBON/AIRSS/Generating-Clusters/EDIP-Nigel-Params/with-SteepDescent/Only-C1/SD-CG/HFTN-CG
REM
REM
REM
REM
REM
REM ./C.cell (11c1c37f851c82e70ff6c80c92926a4b)
REM
REM compiler GCC version 9.2.1 20190827 (Red Hat 9.2.1-1)
REM options -cpp -mtune=generic -march=x86-64 -g -O0 -fpre-include=/usr/include/finclude/math-vector-fortran.h
REM seed 512887539 996824309 2129156216 1154060813 849350324 1114957872 -949183560 -283386670 819095547 -458162487 854074881 2124594429 462443626 920006291 1556031460 625580187 -1878757775 -1857300748 1864366244 -1319707249 1979406235 -1351800640 -1671899633 385790412 -418862303 738194053 1583141474 1500060391 -1718362079 924257028 1895433552 -1217414467 -1100121789
REM
CELL 1.54180   50.00000   50.00000   50.00000   90.00000   90.00000   90.00000
LATT -1
SFAC C  
C      1  0.4490110000000  0.5286220000000  0.4398020000000 1.0
C      1  0.4555430000000  0.4582220000000  0.5771970000000 1.0
C      1  0.4189390000000  0.5237800000000  0.5586670000000 1.0
C      1  0.4275670000000  0.5436690000000  0.4841110000000 1.0
C      1  0.4828360000000  0.4437180000000  0.5775380000000 1.0
C      1  0.5395020000000  0.4878210000000  0.4626060000000 1.0
C      1  0.4748810000000  0.5248200000000  0.5083990000000 1.0
C      1  0.5480920000000  0.5767410000000  0.4989020000000 1.0
C      1  0.4909940000000  0.4552240000000  0.4204910000000 1.0
C      1  0.4677290000000  0.5872330000000  0.4761130000000 1.0
C      1  0.5746930000000  0.4666620000000  0.5540890000000 1.0
C      1  0.5348530000000  0.4858970000000  0.5408460000000 1.0
C      1  0.5843570000000  0.4874850000000  0.5325760000000 1.0
C      1  0.4255910000000  0.4399780000000  0.5367880000000 1.0
C      1  0.4084950000000  0.4722660000000  0.5513910000000 1.0
C      1  0.5005030000000  0.5140590000000  0.5181810000000 1.0
C      1  0.5367030000000  0.4779210000000  0.4143300000000 1.0
C      1  0.5168170000000  0.4198060000000  0.4645710000000 1.0
C      1  0.5251080000000  0.5396450000000  0.4644740000000 1.0
C      1  0.5785660000000  0.5387610000000  0.5028510000000 1.0
C      1  0.4169260000000  0.4602660000000  0.5754080000000 1.0
C      1  0.4997760000000  0.4525260000000  0.5027380000000 1.0
C      1  0.5619740000000  0.5124570000000  0.5702660000000 1.0
C      1  0.5101100000000  0.4245870000000  0.5115760000000 1.0
C      1  0.4340960000000  0.4393400000000  0.5662110000000 1.0
C      1  0.5132090000000  0.4708540000000  0.4295530000000 1.0
C      1  0.4958110000000  0.5481240000000  0.4186220000000 1.0
C      1  0.5091140000000  0.5168020000000  0.5674170000000 1.0
C      1  0.5138320000000  0.5613530000000  0.5060670000000 1.0
C      1  0.4299000000000  0.4515370000000  0.4701480000000 1.0
C      1  0.5216340000000  0.5875880000000  0.5469200000000 1.0
C      1  0.5593290000000  0.4424610000000  0.4456270000000 1.0
C      1  0.5364120000000  0.5618560000000  0.4477040000000 1.0
C      1  0.5335250000000  0.5021050000000  0.4003060000000 1.0
C      1  0.4873390000000  0.4756820000000  0.5472260000000 1.0
C      1  0.4113660000000  0.4734470000000  0.4736590000000 1.0
C      1  0.4041720000000  0.4740610000000  0.5027260000000 1.0
C      1  0.5017560000000  0.5527650000000  0.4777570000000 1.0
C      1  0.4608910000000  0.5752660000000  0.5022500000000 1.0
C      1  0.5605230000000  0.4711170000000  0.4346780000000 1.0
C      1  0.5748170000000  0.4083890000000  0.5034730000000 1.0
C      1  0.5251210000000  0.5493070000000  0.4193690000000 1.0
C      1  0.4748750000000  0.5847730000000  0.5256450000000 1.0
C      1  0.4903990000000  0.5104480000000  0.5897960000000 1.0
C      1  0.4176710000000  0.4986670000000  0.5408700000000 1.0
C      1  0.5800490000000  0.5137300000000  0.5464270000000 1.0
C      1  0.4315780000000  0.5435300000000  0.5283110000000 1.0
C      1  0.4542300000000  0.4775480000000  0.5120170000000 1.0
C      1  0.5895310000000  0.5157680000000  0.4894100000000 1.0
C      1  0.5507180000000  0.4815610000000  0.5657510000000 1.0
C      1  0.5217760000000  0.4626930000000  0.4558430000000 1.0
C      1  0.4871530000000  0.4907920000000  0.4753200000000 1.0
C      1  0.4581210000000  0.4908920000000  0.4857480000000 1.0
C      1  0.4497600000000  0.5748690000000  0.4564630000000 1.0
C      1  0.4985940000000  0.4854480000000  0.6000310000000 1.0
C      1  0.4339440000000  0.5622600000000  0.5059790000000 1.0
C      1  0.4773690000000  0.5343500000000  0.4788310000000 1.0
C      1  0.5631320000000  0.4410430000000  0.5437010000000 1.0
C      1  0.4308170000000  0.4965630000000  0.4726230000000 1.0
C      1  0.4753970000000  0.5186790000000  0.4277230000000 1.0
C      1  0.4631270000000  0.5079730000000  0.5783680000000 1.0
C      1  0.4931360000000  0.5111730000000  0.4525330000000 1.0
C      1  0.5587870000000  0.5546400000000  0.5491530000000 1.0
C      1  0.5049320000000  0.4621630000000  0.5856250000000 1.0
C      1  0.4887570000000  0.4243990000000  0.5552690000000 1.0
C      1  0.4564450000000  0.5270890000000  0.5315150000000 1.0
C      1  0.4778810000000  0.4695660000000  0.4003730000000 1.0
C      1  0.5474530000000  0.5387440000000  0.5706780000000 1.0
C      1  0.4714530000000  0.5447120000000  0.5546530000000 1.0
C      1  0.5815540000000  0.4855360000000  0.4530400000000 1.0
C      1  0.5089430000000  0.4997590000000  0.4948390000000 1.0
C      1  0.5246570000000  0.5134930000000  0.4495310000000 1.0
C      1  0.4056750000000  0.5022920000000  0.5131220000000 1.0
C      1  0.4313920000000  0.4574650000000  0.5083810000000 1.0
C      1  0.4659910000000  0.4913060000000  0.4139870000000 1.0
C      1  0.4327980000000  0.5049670000000  0.4443990000000 1.0
C      1  0.5119020000000  0.6083190000000  0.5026340000000 1.0
C      1  0.5812500000000  0.5129800000000  0.4622330000000 1.0
C      1  0.4427740000000  0.4170860000000  0.4946470000000 1.0
C      1  0.5489980000000  0.5805820000000  0.5428390000000 1.0
C      1  0.4960930000000  0.4615930000000  0.4727320000000 1.0
C      1  0.4942390000000  0.5777870000000  0.4607970000000 1.0
C      1  0.5683840000000  0.5608180000000  0.4864440000000 1.0
C      1  0.4697870000000  0.4127130000000  0.5340860000000 1.0
C      1  0.5388660000000  0.4346630000000  0.5605120000000 1.0
C      1  0.5031620000000  0.5424720000000  0.5538700000000 1.0
C      1  0.4666080000000  0.5723640000000  0.5491800000000 1.0
C      1  0.5753380000000  0.5381580000000  0.5317700000000 1.0
C      1  0.4476490000000  0.4565380000000  0.4473160000000 1.0
C      1  0.5533390000000  0.4480090000000  0.5170590000000 1.0
C      1  0.5299750000000  0.4163800000000  0.4905790000000 1.0
C      1  0.5228130000000  0.5884810000000  0.4588640000000 1.0
C      1  0.4861210000000  0.4066640000000  0.5101180000000 1.0
C      1  0.4504630000000  0.5458690000000  0.4646740000000 1.0
C      1  0.5074590000000  0.4971290000000  0.5438990000000 1.0
C      1  0.4422480000000  0.4177020000000  0.5233020000000 1.0
C      1  0.4440200000000  0.4815800000000  0.4307450000000 1.0
C      1  0.4472850000000  0.4964010000000  0.5358110000000 1.0
C      1  0.4793250000000  0.4639440000000  0.5211290000000 1.0
C      1  0.4751910000000  0.4444000000000  0.4445290000000 1.0
C      1  0.4586830000000  0.5778070000000  0.4297500000000 1.0
C      1  0.4220220000000  0.5161660000000  0.4922930000000 1.0
C      1  0.5576890000000  0.4279640000000  0.4952790000000 1.0
C      1  0.5837850000000  0.4697730000000  0.4776680000000 1.0
C      1  0.4700470000000  0.4125940000000  0.4866100000000 1.0
C      1  0.4862320000000  0.4207600000000  0.4623430000000 1.0
C      1  0.4861090000000  0.5719900000000  0.4318300000000 1.0
C      1  0.5378720000000  0.5220320000000  0.4209410000000 1.0
C      1  0.5890620000000  0.4888190000000  0.5011560000000 1.0
C      1  0.4618750000000  0.4843970000000  0.5603290000000 1.0
C      1  0.5317360000000  0.5967070000000  0.4858620000000 1.0
C      1  0.5502810000000  0.4784280000000  0.5161850000000 1.0
C      1  0.5158350000000  0.4250370000000  0.5434420000000 1.0
C      1  0.5192450000000  0.5645220000000  0.5662530000000 1.0
C      1  0.5335640000000  0.4577150000000  0.5794170000000 1.0
C      1  0.4430340000000  0.5290210000000  0.5746220000000 1.0
C      1  0.5697900000000  0.4439720000000  0.4728980000000 1.0
C      1  0.5661270000000  0.5591790000000  0.4564900000000 1.0
C      1  0.5785820000000  0.5352010000000  0.4445510000000 1.0
C      1  0.5137110000000  0.5389520000000  0.5253000000000 1.0
C      1  0.5341940000000  0.4282390000000  0.4431330000000 1.0
C      1  0.5661000000000  0.5275440000000  0.4211620000000 1.0
C      1  0.5360010000000  0.4905890000000  0.4921110000000 1.0
C      1  0.5046210000000  0.5868470000000  0.5210330000000 1.0
END
