TITL C-950527-2551-737 -2.77005114089982e-06 125000 -849.173970437141 0 0 136 (C1) n - 1
REM
REM in /home/bkarasulu/work/CARBON/AIRSS/Generating-Clusters/EDIP-Nigel-Params/with-SteepDescent/Only-C1/SD-CG/HFTN-CG
REM
REM
REM
REM
REM
REM ./C.cell (11c1c37f851c82e70ff6c80c92926a4b)
REM
REM compiler GCC version 9.2.1 20190827 (Red Hat 9.2.1-1)
REM options -cpp -mtune=generic -march=x86-64 -g -O0 -fpre-include=/usr/include/finclude/math-vector-fortran.h
REM seed 302935594 1407085066 1750877753 465618462 -934222198 1874068822 -1955154069 1972376534 -479206064 1861330400 1901620925 1370521748 1322025322 -196412612 1735842776 352451418 -925009633 1965477851 353987126 317997965 -1968860742 937136330 -982410649 -234620509 94425236 -1083218071 1974807240 479254003 -1947119707 -323028281 183884638 -64310511 -1033152547
REM
CELL 1.54180   50.00000   50.00000   50.00000   90.00000   90.00000   90.00000
LATT -1
SFAC C  
C      1  0.5893790000000  0.4606280000000  0.4967180000000 1.0
C      1  0.4691490000000  0.5242550000000  0.5309950000000 1.0
C      1  0.4462240000000  0.4687040000000  0.4918560000000 1.0
C      1  0.4430650000000  0.5224670000000  0.5753490000000 1.0
C      1  0.4631790000000  0.5266440000000  0.4121820000000 1.0
C      1  0.4843510000000  0.5312430000000  0.4669470000000 1.0
C      1  0.5343860000000  0.5192370000000  0.5895880000000 1.0
C      1  0.4390770000000  0.4210980000000  0.5073900000000 1.0
C      1  0.5791810000000  0.5261480000000  0.4289630000000 1.0
C      1  0.5287770000000  0.5328510000000  0.4943880000000 1.0
C      1  0.5302130000000  0.4247420000000  0.4601490000000 1.0
C      1  0.4715650000000  0.5867410000000  0.4506250000000 1.0
C      1  0.4082560000000  0.4909030000000  0.4714190000000 1.0
C      1  0.4195290000000  0.4557470000000  0.5314390000000 1.0
C      1  0.5076340000000  0.4058610000000  0.5295130000000 1.0
C      1  0.5715530000000  0.4213070000000  0.4781320000000 1.0
C      1  0.4830870000000  0.4310560000000  0.5693790000000 1.0
C      1  0.4846540000000  0.4723490000000  0.5376780000000 1.0
C      1  0.4562580000000  0.4819480000000  0.4205380000000 1.0
C      1  0.5589450000000  0.4110490000000  0.5020140000000 1.0
C      1  0.4405900000000  0.5609560000000  0.4719140000000 1.0
C      1  0.4414010000000  0.4572620000000  0.5520130000000 1.0
C      1  0.4821700000000  0.3988840000000  0.5179740000000 1.0
C      1  0.4620900000000  0.5913550000000  0.5298280000000 1.0
C      1  0.4000400000000  0.5233330000000  0.5060440000000 1.0
C      1  0.4582240000000  0.5444760000000  0.4520400000000 1.0
C      1  0.5345290000000  0.4504890000000  0.4417240000000 1.0
C      1  0.5491560000000  0.4781830000000  0.4111170000000 1.0
C      1  0.4187840000000  0.5279300000000  0.5292450000000 1.0
C      1  0.5695830000000  0.4518030000000  0.4769090000000 1.0
C      1  0.4743830000000  0.5007730000000  0.4060170000000 1.0
C      1  0.5854480000000  0.5544800000000  0.5057910000000 1.0
C      1  0.5334570000000  0.4418060000000  0.5699640000000 1.0
C      1  0.5144900000000  0.4976200000000  0.5380910000000 1.0
C      1  0.4838030000000  0.5529550000000  0.5005810000000 1.0
C      1  0.4940340000000  0.5074590000000  0.5758340000000 1.0
C      1  0.4120470000000  0.5176360000000  0.4578230000000 1.0
C      1  0.5538330000000  0.5660760000000  0.4226450000000 1.0
C      1  0.5766200000000  0.4524390000000  0.5231200000000 1.0
C      1  0.4294820000000  0.4472380000000  0.5059360000000 1.0
C      1  0.4082710000000  0.4818870000000  0.5301540000000 1.0
C      1  0.5337920000000  0.5157390000000  0.4472850000000 1.0
C      1  0.4835570000000  0.3975360000000  0.4902480000000 1.0
C      1  0.5341960000000  0.5653520000000  0.5373050000000 1.0
C      1  0.4493770000000  0.5898520000000  0.4713720000000 1.0
C      1  0.5731230000000  0.5061520000000  0.5696970000000 1.0
C      1  0.4511430000000  0.4391690000000  0.4447360000000 1.0
C      1  0.5010320000000  0.4901900000000  0.6013280000000 1.0
C      1  0.5920290000000  0.5203770000000  0.5348280000000 1.0
C      1  0.5097690000000  0.4062810000000  0.4517090000000 1.0
C      1  0.4623530000000  0.4996560000000  0.5723860000000 1.0
C      1  0.5219130000000  0.4738180000000  0.4041960000000 1.0
C      1  0.4542030000000  0.4791830000000  0.5930510000000 1.0
C      1  0.4014590000000  0.4947490000000  0.5024200000000 1.0
C      1  0.5527320000000  0.5170660000000  0.5039410000000 1.0
C      1  0.5675030000000  0.4345690000000  0.4334470000000 1.0
C      1  0.4601800000000  0.4331940000000  0.5516480000000 1.0
C      1  0.5142420000000  0.5742230000000  0.5562200000000 1.0
C      1  0.4892100000000  0.5825220000000  0.4940260000000 1.0
C      1  0.5262740000000  0.4853610000000  0.4554180000000 1.0
C      1  0.4113700000000  0.5361840000000  0.4808390000000 1.0
C      1  0.5301560000000  0.4895190000000  0.5944800000000 1.0
C      1  0.4841580000000  0.4484040000000  0.5177460000000 1.0
C      1  0.5036370000000  0.4966730000000  0.4152130000000 1.0
C      1  0.5427360000000  0.5822320000000  0.4843300000000 1.0
C      1  0.5649020000000  0.5089010000000  0.4476310000000 1.0
C      1  0.4460070000000  0.5198450000000  0.4855850000000 1.0
C      1  0.4966630000000  0.5832100000000  0.4656830000000 1.0
C      1  0.5372780000000  0.4256670000000  0.5449720000000 1.0
C      1  0.5579770000000  0.4145850000000  0.4529840000000 1.0
C      1  0.4651310000000  0.4542080000000  0.4227160000000 1.0
C      1  0.5095170000000  0.5472620000000  0.4180020000000 1.0
C      1  0.5675790000000  0.4786570000000  0.5334300000000 1.0
C      1  0.5946460000000  0.4903350000000  0.4965230000000 1.0
C      1  0.5410010000000  0.4915290000000  0.5188120000000 1.0
C      1  0.5704310000000  0.5771430000000  0.4804140000000 1.0
C      1  0.5543930000000  0.5271240000000  0.5692160000000 1.0
C      1  0.4737660000000  0.5539640000000  0.5696510000000 1.0
C      1  0.4264660000000  0.4501780000000  0.4513780000000 1.0
C      1  0.4910260000000  0.4862140000000  0.4886880000000 1.0
C      1  0.4526100000000  0.5464760000000  0.5862920000000 1.0
C      1  0.5230920000000  0.4828520000000  0.4851820000000 1.0
C      1  0.4800780000000  0.5499050000000  0.4144390000000 1.0
C      1  0.5338510000000  0.5830560000000  0.5130170000000 1.0
C      1  0.5745770000000  0.5525910000000  0.4350890000000 1.0
C      1  0.5756360000000  0.5105360000000  0.4816820000000 1.0
C      1  0.4878520000000  0.4122910000000  0.4672460000000 1.0
C      1  0.5648560000000  0.4818510000000  0.4345390000000 1.0
C      1  0.5216320000000  0.5679840000000  0.4595690000000 1.0
C      1  0.5590600000000  0.4288320000000  0.5247730000000 1.0
C      1  0.5707450000000  0.5353870000000  0.5233570000000 1.0
C      1  0.4577680000000  0.4830610000000  0.5465430000000 1.0
C      1  0.4114700000000  0.4900400000000  0.5590440000000 1.0
C      1  0.5406580000000  0.4706550000000  0.5734560000000 1.0
C      1  0.4630880000000  0.5962910000000  0.4977500000000 1.0
C      1  0.4802380000000  0.5001260000000  0.4629340000000 1.0
C      1  0.4943760000000  0.5903010000000  0.5398600000000 1.0
C      1  0.5075820000000  0.5950770000000  0.5138550000000 1.0
C      1  0.5085960000000  0.4338690000000  0.5824050000000 1.0
C      1  0.5117900000000  0.5364360000000  0.5950840000000 1.0
C      1  0.4989210000000  0.4858590000000  0.4431820000000 1.0
C      1  0.5657200000000  0.4798290000000  0.5626210000000 1.0
C      1  0.5146430000000  0.4492290000000  0.4190730000000 1.0
C      1  0.4460540000000  0.5058080000000  0.5289400000000 1.0
C      1  0.5739150000000  0.5541820000000  0.4632940000000 1.0
C      1  0.4753830000000  0.4592260000000  0.4901780000000 1.0
C      1  0.4330350000000  0.4746090000000  0.4649390000000 1.0
C      1  0.5767140000000  0.4586280000000  0.4474930000000 1.0
C      1  0.5028360000000  0.5509210000000  0.5712920000000 1.0
C      1  0.4302120000000  0.5534170000000  0.5192830000000 1.0
C      1  0.4522050000000  0.4931210000000  0.4482540000000 1.0
C      1  0.4981090000000  0.4667400000000  0.5644220000000 1.0
C      1  0.4509500000000  0.5472330000000  0.4975500000000 1.0
C      1  0.4911220000000  0.4569960000000  0.4368340000000 1.0
C      1  0.4767480000000  0.4397670000000  0.4637820000000 1.0
C      1  0.4663090000000  0.5722100000000  0.4259910000000 1.0
C      1  0.4688950000000  0.5545970000000  0.5408360000000 1.0
C      1  0.5213350000000  0.5204490000000  0.4201330000000 1.0
C      1  0.4393320000000  0.5200680000000  0.4418550000000 1.0
C      1  0.4930700000000  0.5106800000000  0.5177260000000 1.0
C      1  0.4302050000000  0.4673210000000  0.5782570000000 1.0
C      1  0.5542070000000  0.5458550000000  0.5455850000000 1.0
C      1  0.4420600000000  0.5694940000000  0.5393650000000 1.0
C      1  0.4175520000000  0.5190490000000  0.5604520000000 1.0
C      1  0.5894120000000  0.5373560000000  0.4809510000000 1.0
C      1  0.5080950000000  0.5377470000000  0.5145790000000 1.0
C      1  0.4606820000000  0.4181510000000  0.5257310000000 1.0
C      1  0.5268040000000  0.5688380000000  0.4295390000000 1.0
C      1  0.5176830000000  0.5371410000000  0.4668600000000 1.0
C      1  0.5917150000000  0.4942490000000  0.5256560000000 1.0
C      1  0.5108940000000  0.4326130000000  0.5169450000000 1.0
C      1  0.4822400000000  0.4669860000000  0.5949000000000 1.0
C      1  0.5297680000000  0.4325570000000  0.4915100000000 1.0
C      1  0.4498790000000  0.4968780000000  0.5019530000000 1.0
C      1  0.5146010000000  0.5284750000000  0.5512550000000 1.0
C      1  0.5413150000000  0.4592670000000  0.4890910000000 1.0
END
