TITL C-951345-2650-712 2.30800081912176e-06 125000 -477.751398109573 0 0 78 (C1) n - 1
REM
REM in /home/bkarasulu/work/CARBON/AIRSS/Generating-Clusters/EDIP-Nigel-Params/with-SteepDescent/Only-C1/SD-CG/HFTN-CG
REM
REM
REM
REM
REM
REM ./C.cell (11c1c37f851c82e70ff6c80c92926a4b)
REM
REM compiler GCC version 9.2.1 20190827 (Red Hat 9.2.1-1)
REM options -cpp -mtune=generic -march=x86-64 -g -O0 -fpre-include=/usr/include/finclude/math-vector-fortran.h
REM seed -1990302316 -322733270 32500326 -376035584 1220100213 -2067355607 -1893631085 -1698797534 -727444126 -1670974245 587753750 1026144474 -1636153695 -1462447366 -217231068 -382432101 -1100017309 1723263892 816504718 955634584 816263129 2082652555 -2002358685 770726074 -1035161238 -586624631 -932680052 857537041 1530139370 688445252 -1519106006 -1277528073 -815737627
REM
CELL 1.54180   50.00000   50.00000   50.00000   90.00000   90.00000   90.00000
LATT -1
SFAC C  
C      1  0.4318440000000  0.5340660000000  0.4841090000000 1.0
C      1  0.5436960000000  0.5454040000000  0.5495830000000 1.0
C      1  0.5192650000000  0.4641870000000  0.5092460000000 1.0
C      1  0.4273250000000  0.4716410000000  0.5362250000000 1.0
C      1  0.4601710000000  0.4852760000000  0.5626530000000 1.0
C      1  0.5211480000000  0.5110220000000  0.5265100000000 1.0
C      1  0.4881940000000  0.4574540000000  0.5019840000000 1.0
C      1  0.5561240000000  0.5424620000000  0.4487960000000 1.0
C      1  0.4434030000000  0.4713830000000  0.4939180000000 1.0
C      1  0.5182130000000  0.4936110000000  0.4227530000000 1.0
C      1  0.4589220000000  0.5037670000000  0.5379310000000 1.0
C      1  0.5466580000000  0.4875020000000  0.4598480000000 1.0
C      1  0.4708790000000  0.4193510000000  0.5039510000000 1.0
C      1  0.5123450000000  0.4784230000000  0.5711510000000 1.0
C      1  0.5617740000000  0.5011590000000  0.5505830000000 1.0
C      1  0.5072810000000  0.4492570000000  0.4520990000000 1.0
C      1  0.4953110000000  0.5540790000000  0.4334750000000 1.0
C      1  0.5210710000000  0.4236220000000  0.4913460000000 1.0
C      1  0.4464600000000  0.5108430000000  0.4350190000000 1.0
C      1  0.4716180000000  0.4247770000000  0.4756020000000 1.0
C      1  0.5761640000000  0.4875220000000  0.4773760000000 1.0
C      1  0.5782250000000  0.4646680000000  0.4970830000000 1.0
C      1  0.5571560000000  0.5215990000000  0.4302220000000 1.0
C      1  0.5032590000000  0.5329250000000  0.5153200000000 1.0
C      1  0.4949100000000  0.5230050000000  0.5803710000000 1.0
C      1  0.4913250000000  0.4889240000000  0.4297540000000 1.0
C      1  0.4848710000000  0.4428330000000  0.5484640000000 1.0
C      1  0.5554420000000  0.5337000000000  0.4779150000000 1.0
C      1  0.5588660000000  0.4724120000000  0.5474770000000 1.0
C      1  0.5407130000000  0.5026330000000  0.5070110000000 1.0
C      1  0.5358920000000  0.5171830000000  0.5526440000000 1.0
C      1  0.5319350000000  0.4614400000000  0.4626340000000 1.0
C      1  0.4708250000000  0.4716890000000  0.4811180000000 1.0
C      1  0.5325160000000  0.5573990000000  0.4442440000000 1.0
C      1  0.5663460000000  0.4409670000000  0.4888770000000 1.0
C      1  0.4370110000000  0.4689790000000  0.5627250000000 1.0
C      1  0.4782560000000  0.5809800000000  0.4802290000000 1.0
C      1  0.4719900000000  0.5096110000000  0.4233150000000 1.0
C      1  0.4804140000000  0.4949550000000  0.5167710000000 1.0
C      1  0.4608940000000  0.4505920000000  0.4599470000000 1.0
C      1  0.5460600000000  0.5540830000000  0.5007950000000 1.0
C      1  0.4520680000000  0.5782120000000  0.4857500000000 1.0
C      1  0.4798450000000  0.5414890000000  0.5660790000000 1.0
C      1  0.4107760000000  0.4871970000000  0.4797540000000 1.0
C      1  0.5445150000000  0.4969880000000  0.4319780000000 1.0
C      1  0.5078190000000  0.5786480000000  0.5271870000000 1.0
C      1  0.4836040000000  0.5342880000000  0.4185860000000 1.0
C      1  0.5667620000000  0.5147760000000  0.5185630000000 1.0
C      1  0.4849300000000  0.4687430000000  0.5634810000000 1.0
C      1  0.5156570000000  0.5591360000000  0.5060960000000 1.0
C      1  0.5000180000000  0.4281210000000  0.4707860000000 1.0
C      1  0.4444320000000  0.5562770000000  0.5011690000000 1.0
C      1  0.4260210000000  0.4635970000000  0.4707990000000 1.0
C      1  0.5029360000000  0.5682900000000  0.4803740000000 1.0
C      1  0.4207140000000  0.5085140000000  0.4980240000000 1.0
C      1  0.5295950000000  0.4623910000000  0.5515550000000 1.0
C      1  0.5794340000000  0.5150910000000  0.4892500000000 1.0
C      1  0.5174010000000  0.5075380000000  0.5747620000000 1.0
C      1  0.5087870000000  0.5489960000000  0.4589190000000 1.0
C      1  0.4414000000000  0.4537800000000  0.5175530000000 1.0
C      1  0.4879580000000  0.5195360000000  0.4929570000000 1.0
C      1  0.5379500000000  0.4480960000000  0.4880680000000 1.0
C      1  0.5132010000000  0.4362310000000  0.5430850000000 1.0
C      1  0.5351680000000  0.5102010000000  0.4782030000000 1.0
C      1  0.5063890000000  0.4855410000000  0.5288850000000 1.0
C      1  0.4694270000000  0.4422020000000  0.5216790000000 1.0
C      1  0.4839880000000  0.4623930000000  0.4401400000000 1.0
C      1  0.5080380000000  0.5204000000000  0.4703370000000 1.0
C      1  0.5147910000000  0.4214240000000  0.5188050000000 1.0
C      1  0.4501260000000  0.5257510000000  0.4585150000000 1.0
C      1  0.5589560000000  0.5437400000000  0.5251800000000 1.0
C      1  0.5744870000000  0.4677630000000  0.5246000000000 1.0
C      1  0.4641290000000  0.5522540000000  0.5228520000000 1.0
C      1  0.4621870000000  0.5328090000000  0.5445770000000 1.0
C      1  0.4791950000000  0.5757680000000  0.5340640000000 1.0
C      1  0.4902720000000  0.5675300000000  0.5598340000000 1.0
C      1  0.4309330000000  0.4996930000000  0.5255990000000 1.0
C      1  0.4613190000000  0.5092100000000  0.4808820000000 1.0
END
