TITL C-950526-5686-207 -0.00021130489018057 125000 -975.709317137934 0 0 156 (C1) n - 1
REM
REM in /home/bkarasulu/work/CARBON/AIRSS/Generating-Clusters/EDIP-Nigel-Params/with-SteepDescent/Only-C1/SD-CG/HFTN-CG
REM
REM
REM
REM
REM
REM ./C.cell (11c1c37f851c82e70ff6c80c92926a4b)
REM
REM compiler GCC version 9.2.1 20190827 (Red Hat 9.2.1-1)
REM options -cpp -mtune=generic -march=x86-64 -g -O0 -fpre-include=/usr/include/finclude/math-vector-fortran.h
REM seed -1560453716 -482413838 -89014783 212148066 569173367 -1888139851 -1494623768 661232703 145368451 114672549 2016372860 -164388364 1410861983 -1727404415 1275520334 -373469946 -320385132 -2040699911 -1467071118 924009460 896402913 -1909026108 839429680 -5511575 -9441659 56646922 1251122369 -78992711 -1734579443 1197901940 -1794584626 -2006680820 1743730515
REM
CELL 1.54180   50.00000   50.00000   50.00000   90.00000   90.00000   90.00000
LATT -1
SFAC C  
C      1  0.5722710000000  0.4257040000000  0.4759170000000 1.0
C      1  0.4888670000000  0.5579280000000  0.5955540000000 1.0
C      1  0.5741210000000  0.4986000000000  0.4776340000000 1.0
C      1  0.4219570000000  0.5211250000000  0.4713620000000 1.0
C      1  0.5468060000000  0.4196530000000  0.4565930000000 1.0
C      1  0.5207100000000  0.6010010000000  0.4840000000000 1.0
C      1  0.5234250000000  0.4789470000000  0.3905480000000 1.0
C      1  0.5615430000000  0.4588630000000  0.5271970000000 1.0
C      1  0.4698260000000  0.5577760000000  0.4208550000000 1.0
C      1  0.5997160000000  0.4588860000000  0.5043460000000 1.0
C      1  0.5094440000000  0.5265200000000  0.3980070000000 1.0
C      1  0.5942640000000  0.4500990000000  0.4763140000000 1.0
C      1  0.4564580000000  0.5280670000000  0.5340470000000 1.0
C      1  0.4445190000000  0.4749350000000  0.5282930000000 1.0
C      1  0.4304030000000  0.5287070000000  0.4423770000000 1.0
C      1  0.5509350000000  0.5162990000000  0.5764890000000 1.0
C      1  0.5556250000000  0.5408010000000  0.5898200000000 1.0
C      1  0.5765860000000  0.4706970000000  0.4635340000000 1.0
C      1  0.4764400000000  0.4593330000000  0.4515270000000 1.0
C      1  0.4142970000000  0.4923270000000  0.4789660000000 1.0
C      1  0.4966000000000  0.5043680000000  0.4179860000000 1.0
C      1  0.4710950000000  0.4681780000000  0.5409410000000 1.0
C      1  0.5013660000000  0.5047350000000  0.5244260000000 1.0
C      1  0.4202960000000  0.4711850000000  0.4602610000000 1.0
C      1  0.5074310000000  0.4698200000000  0.4858870000000 1.0
C      1  0.4826080000000  0.5644980000000  0.5211330000000 1.0
C      1  0.5088600000000  0.4777220000000  0.4151910000000 1.0
C      1  0.5779800000000  0.4948010000000  0.4199670000000 1.0
C      1  0.5169050000000  0.4025210000000  0.4945690000000 1.0
C      1  0.5836890000000  0.4394600000000  0.5217280000000 1.0
C      1  0.5470760000000  0.4985060000000  0.4210280000000 1.0
C      1  0.5412350000000  0.4448310000000  0.5471820000000 1.0
C      1  0.4959250000000  0.5323070000000  0.6099860000000 1.0
C      1  0.4774830000000  0.4395700000000  0.4981960000000 1.0
C      1  0.4455930000000  0.4775280000000  0.5797550000000 1.0
C      1  0.4669850000000  0.4574790000000  0.5702210000000 1.0
C      1  0.4559550000000  0.5173190000000  0.3955020000000 1.0
C      1  0.5803580000000  0.5033110000000  0.5350730000000 1.0
C      1  0.5477980000000  0.4695410000000  0.5028980000000 1.0
C      1  0.5428560000000  0.5831270000000  0.4802960000000 1.0
C      1  0.4076150000000  0.4861050000000  0.5070050000000 1.0
C      1  0.4616180000000  0.4849460000000  0.4621290000000 1.0
C      1  0.4178830000000  0.4101380000000  0.5020400000000 1.0
C      1  0.4659670000000  0.4642200000000  0.4057710000000 1.0
C      1  0.4820100000000  0.4934150000000  0.5426680000000 1.0
C      1  0.4348150000000  0.5547320000000  0.5052750000000 1.0
C      1  0.5249640000000  0.5946970000000  0.5344920000000 1.0
C      1  0.5374470000000  0.4363800000000  0.4336060000000 1.0
C      1  0.5977160000000  0.5161940000000  0.4822320000000 1.0
C      1  0.4160450000000  0.5776930000000  0.4535430000000 1.0
C      1  0.5766070000000  0.4686990000000  0.4334700000000 1.0
C      1  0.4842220000000  0.5041410000000  0.6098030000000 1.0
C      1  0.4596250000000  0.4289320000000  0.5581010000000 1.0
C      1  0.4341580000000  0.4791140000000  0.4350370000000 1.0
C      1  0.5300720000000  0.5445620000000  0.5493780000000 1.0
C      1  0.4791680000000  0.5863970000000  0.5411930000000 1.0
C      1  0.4724630000000  0.5293670000000  0.4791090000000 1.0
C      1  0.5673010000000  0.4189760000000  0.5043100000000 1.0
C      1  0.5137780000000  0.4387030000000  0.5838250000000 1.0
C      1  0.4596170000000  0.5037350000000  0.5886370000000 1.0
C      1  0.5338210000000  0.4167740000000  0.5394820000000 1.0
C      1  0.3989910000000  0.5633720000000  0.4697030000000 1.0
C      1  0.5508770000000  0.5090780000000  0.5248380000000 1.0
C      1  0.5073800000000  0.4119070000000  0.5792030000000 1.0
C      1  0.5121210000000  0.6075740000000  0.5109640000000 1.0
C      1  0.4927430000000  0.5756930000000  0.4291480000000 1.0
C      1  0.5642770000000  0.4919750000000  0.5842050000000 1.0
C      1  0.5022970000000  0.5129930000000  0.4461170000000 1.0
C      1  0.4419380000000  0.5828090000000  0.4633920000000 1.0
C      1  0.5790720000000  0.5424650000000  0.5322380000000 1.0
C      1  0.4422990000000  0.5560680000000  0.4359820000000 1.0
C      1  0.4865630000000  0.5367330000000  0.5303270000000 1.0
C      1  0.5463650000000  0.5694950000000  0.4547290000000 1.0
C      1  0.4907330000000  0.4559530000000  0.4225150000000 1.0
C      1  0.4828090000000  0.6075330000000  0.5124750000000 1.0
C      1  0.5491340000000  0.4985730000000  0.4971870000000 1.0
C      1  0.5463070000000  0.5595470000000  0.5699020000000 1.0
C      1  0.5290290000000  0.4967180000000  0.4497490000000 1.0
C      1  0.4649650000000  0.4870860000000  0.4942970000000 1.0
C      1  0.5245840000000  0.5036210000000  0.5685990000000 1.0
C      1  0.4047490000000  0.4582820000000  0.5194120000000 1.0
C      1  0.5510180000000  0.4598020000000  0.4234750000000 1.0
C      1  0.5549780000000  0.5401180000000  0.4112450000000 1.0
C      1  0.5220250000000  0.4063120000000  0.4661530000000 1.0
C      1  0.5040340000000  0.6081510000000  0.4631270000000 1.0
C      1  0.4477230000000  0.4490140000000  0.4966730000000 1.0
C      1  0.5509770000000  0.4583660000000  0.4753930000000 1.0
C      1  0.5074180000000  0.4092130000000  0.5512560000000 1.0
C      1  0.4318660000000  0.4307560000000  0.5459290000000 1.0
C      1  0.5787040000000  0.4824390000000  0.5597780000000 1.0
C      1  0.4761610000000  0.5101160000000  0.4584550000000 1.0
C      1  0.4708730000000  0.4127440000000  0.4563810000000 1.0
C      1  0.4995060000000  0.4131310000000  0.4482590000000 1.0
C      1  0.4014310000000  0.5365020000000  0.5107340000000 1.0
C      1  0.4879110000000  0.4027520000000  0.5037640000000 1.0
C      1  0.4934050000000  0.4483970000000  0.4733700000000 1.0
C      1  0.4447460000000  0.5289040000000  0.4909050000000 1.0
C      1  0.4137720000000  0.5072110000000  0.5506920000000 1.0
C      1  0.4647220000000  0.5538610000000  0.5789040000000 1.0
C      1  0.5263020000000  0.4937070000000  0.5390180000000 1.0
C      1  0.4112850000000  0.4558850000000  0.5499440000000 1.0
C      1  0.5410240000000  0.4478250000000  0.5905760000000 1.0
C      1  0.5586850000000  0.5756400000000  0.5035650000000 1.0
C      1  0.5747130000000  0.5376110000000  0.4307990000000 1.0
C      1  0.5828230000000  0.4521850000000  0.5588030000000 1.0
C      1  0.5230510000000  0.5114530000000  0.4855520000000 1.0
C      1  0.5839270000000  0.5418220000000  0.4796360000000 1.0
C      1  0.4396480000000  0.3986030000000  0.4911050000000 1.0
C      1  0.4960740000000  0.4952260000000  0.4951960000000 1.0
C      1  0.5070370000000  0.5417640000000  0.4539240000000 1.0
C      1  0.4454570000000  0.5311080000000  0.5845490000000 1.0
C      1  0.4491410000000  0.5770760000000  0.4903090000000 1.0
C      1  0.4570400000000  0.5722600000000  0.5566520000000 1.0
C      1  0.4909530000000  0.4504350000000  0.5264760000000 1.0
C      1  0.4877640000000  0.5982970000000  0.4443970000000 1.0
C      1  0.5389100000000  0.4127740000000  0.5113720000000 1.0
C      1  0.5948390000000  0.4900750000000  0.5094900000000 1.0
C      1  0.4007050000000  0.5387040000000  0.4821070000000 1.0
C      1  0.4929400000000  0.4585910000000  0.5872650000000 1.0
C      1  0.5185910000000  0.5374830000000  0.4997850000000 1.0
C      1  0.4539580000000  0.4388120000000  0.4477780000000 1.0
C      1  0.4034660000000  0.5100690000000  0.5234500000000 1.0
C      1  0.4678630000000  0.4950070000000  0.4112170000000 1.0
C      1  0.5057540000000  0.4841900000000  0.5966070000000 1.0
C      1  0.4351450000000  0.4472960000000  0.4694190000000 1.0
C      1  0.5191890000000  0.4629910000000  0.5364310000000 1.0
C      1  0.4661890000000  0.3999320000000  0.4827320000000 1.0
C      1  0.5087940000000  0.4311640000000  0.4268900000000 1.0
C      1  0.4433810000000  0.4535450000000  0.4206240000000 1.0
C      1  0.4276860000000  0.4803730000000  0.5548750000000 1.0
C      1  0.4784610000000  0.5787160000000  0.4954500000000 1.0
C      1  0.4391670000000  0.5544430000000  0.5391510000000 1.0
C      1  0.4759040000000  0.5387790000000  0.3990370000000 1.0
C      1  0.5332130000000  0.5061660000000  0.3926150000000 1.0
C      1  0.5681970000000  0.5666800000000  0.5497110000000 1.0
C      1  0.4460900000000  0.5070740000000  0.5122040000000 1.0
C      1  0.5416770000000  0.4760580000000  0.5967990000000 1.0
C      1  0.5194550000000  0.5613380000000  0.4359130000000 1.0
C      1  0.4273960000000  0.5322120000000  0.5603780000000 1.0
C      1  0.5115620000000  0.5734890000000  0.5809500000000 1.0
C      1  0.5255030000000  0.4678040000000  0.4615570000000 1.0
C      1  0.4954550000000  0.5492220000000  0.4816540000000 1.0
C      1  0.5017410000000  0.5452850000000  0.5558990000000 1.0
C      1  0.5679080000000  0.5492630000000  0.4557690000000 1.0
C      1  0.5928160000000  0.5160490000000  0.4306200000000 1.0
C      1  0.4835220000000  0.4214700000000  0.5374090000000 1.0
C      1  0.5010640000000  0.5219460000000  0.5737440000000 1.0
C      1  0.5416210000000  0.5393250000000  0.5221860000000 1.0
C      1  0.5645810000000  0.4376440000000  0.5768670000000 1.0
C      1  0.5051160000000  0.5893700000000  0.5563970000000 1.0
C      1  0.4268620000000  0.4347880000000  0.5143950000000 1.0
C      1  0.5278090000000  0.5462580000000  0.4116280000000 1.0
C      1  0.4781470000000  0.5076450000000  0.5661080000000 1.0
C      1  0.5778240000000  0.5544850000000  0.5046540000000 1.0
C      1  0.4318600000000  0.5077380000000  0.4217430000000 1.0
C      1  0.5529930000000  0.5845900000000  0.5304330000000 1.0
END
