TITL C-950524-1808-303 2.59866891922172e-07 125000 -149.357618977166 0 0 27 (C1) n - 1
REM
REM in /home/bkarasulu/work/CARBON/AIRSS/Generating-Clusters/EDIP-Nigel-Params/with-SteepDescent/Only-C1/SD-CG/HFTN-CG
REM
REM
REM
REM
REM
REM ./C.cell (11c1c37f851c82e70ff6c80c92926a4b)
REM
REM compiler GCC version 9.2.1 20190827 (Red Hat 9.2.1-1)
REM options -cpp -mtune=generic -march=x86-64 -g -O0 -fpre-include=/usr/include/finclude/math-vector-fortran.h
REM seed -638512164 308403061 551090888 -58269895 120099470 763993968 -1135467512 1437934752 1713515367 -2105922978 108445548 1785581902 1290499796 -102714249 -1826107542 231316987 1953971560 10550561 -1612182838 -1312110516 520516106 -1054111141 1063226795 2687725 592542155 -1466604295 -2041665871 -443363752 -366466236 1364723050 39243072 -873309467 -1619465469
REM
CELL 1.54180   50.00000   50.00000   50.00000   90.00000   90.00000   90.00000
LATT -1
SFAC C  
C      1  0.4714960000000  0.4651320000000  0.5013100000000 1.0
C      1  0.5891950000000  0.5482520000000  0.4755700000000 1.0
C      1  0.4907990000000  0.4914140000000  0.5609000000000 1.0
C      1  0.4502010000000  0.4505640000000  0.5147690000000 1.0
C      1  0.5575160000000  0.5074670000000  0.4865450000000 1.0
C      1  0.4777730000000  0.4938100000000  0.4674560000000 1.0
C      1  0.5055980000000  0.5124150000000  0.5526350000000 1.0
C      1  0.5729830000000  0.5282110000000  0.4812020000000 1.0
C      1  0.4718820000000  0.4929400000000  0.5146880000000 1.0
C      1  0.5237170000000  0.4752370000000  0.4720240000000 1.0
C      1  0.5149050000000  0.4684150000000  0.5248690000000 1.0
C      1  0.5138070000000  0.4503660000000  0.4812020000000 1.0
C      1  0.5415140000000  0.4733750000000  0.5166750000000 1.0
C      1  0.4652420000000  0.4693160000000  0.4730450000000 1.0
C      1  0.4991370000000  0.4528670000000  0.5051980000000 1.0
C      1  0.4374230000000  0.4691400000000  0.5298100000000 1.0
C      1  0.4238000000000  0.5347310000000  0.4868080000000 1.0
C      1  0.4911480000000  0.5594530000000  0.4865510000000 1.0
C      1  0.4477310000000  0.5254910000000  0.4872800000000 1.0
C      1  0.4932270000000  0.5531240000000  0.5125710000000 1.0
C      1  0.5390440000000  0.4881500000000  0.4930250000000 1.0
C      1  0.4728760000000  0.5124590000000  0.4904310000000 1.0
C      1  0.4950510000000  0.5322050000000  0.4935000000000 1.0
C      1  0.4977440000000  0.4921780000000  0.5320960000000 1.0
C      1  0.6043910000000  0.5681340000000  0.4703120000000 1.0
C      1  0.5043210000000  0.4908540000000  0.4591440000000 1.0
C      1  0.4474800000000  0.4942990000000  0.5303830000000 1.0
END
