TITL C-950531-5884-521 -3.06506385080901e-07 125000 -889.491470257327 0 0 143 (C1) n - 1
REM
REM in /home/bkarasulu/work/CARBON/AIRSS/Generating-Clusters/EDIP-Nigel-Params/with-SteepDescent/Only-C1/SD-CG/HFTN-CG
REM
REM
REM
REM
REM
REM ./C.cell (11c1c37f851c82e70ff6c80c92926a4b)
REM
REM compiler GCC version 9.2.1 20190827 (Red Hat 9.2.1-1)
REM options -cpp -mtune=generic -march=x86-64 -g -O0 -fpre-include=/usr/include/finclude/math-vector-fortran.h
REM seed 924316733 -1609240956 1723291366 -993924017 -1338692328 709179943 844814793 -44268316 2060381061 1184798142 -1906035086 156698094 1191092732 233243941 22417457 1324170054 -1554355621 959155532 -1419642471 2127613389 1713363469 1738488465 -272101279 -182557333 -1325155967 982448730 -1920537993 -265414490 -1763309761 -1429019877 -1969434825 -140598291 377045869
REM
CELL 1.54180   50.00000   50.00000   50.00000   90.00000   90.00000   90.00000
LATT -1
SFAC C  
C      1  0.5615570000000  0.4108160000000  0.4754800000000 1.0
C      1  0.4925670000000  0.3947350000000  0.4586500000000 1.0
C      1  0.5912090000000  0.4402660000000  0.5048870000000 1.0
C      1  0.4057810000000  0.4849840000000  0.4900660000000 1.0
C      1  0.5716020000000  0.5633930000000  0.5550990000000 1.0
C      1  0.4939240000000  0.5253700000000  0.4612760000000 1.0
C      1  0.5754790000000  0.5892230000000  0.4808430000000 1.0
C      1  0.5049990000000  0.5544510000000  0.4981600000000 1.0
C      1  0.5271090000000  0.6051370000000  0.5123340000000 1.0
C      1  0.4819200000000  0.5843370000000  0.4597160000000 1.0
C      1  0.4950140000000  0.4438260000000  0.5259930000000 1.0
C      1  0.5233340000000  0.4461050000000  0.4153910000000 1.0
C      1  0.5305360000000  0.4739500000000  0.4083570000000 1.0
C      1  0.5229460000000  0.4800620000000  0.5053930000000 1.0
C      1  0.4653760000000  0.5128270000000  0.4127610000000 1.0
C      1  0.4711840000000  0.3986280000000  0.5457530000000 1.0
C      1  0.5621630000000  0.4723860000000  0.5718400000000 1.0
C      1  0.4131490000000  0.5304260000000  0.4773270000000 1.0
C      1  0.4469160000000  0.5610310000000  0.5607760000000 1.0
C      1  0.5113980000000  0.6049110000000  0.4870340000000 1.0
C      1  0.4781160000000  0.5306150000000  0.3946240000000 1.0
C      1  0.5081320000000  0.4099690000000  0.4412310000000 1.0
C      1  0.5410890000000  0.5786390000000  0.5071310000000 1.0
C      1  0.4348450000000  0.5720470000000  0.4640170000000 1.0
C      1  0.5891740000000  0.5173210000000  0.5407330000000 1.0
C      1  0.5366460000000  0.4334740000000  0.5622810000000 1.0
C      1  0.5466820000000  0.4336600000000  0.4286380000000 1.0
C      1  0.5495130000000  0.5541580000000  0.4519550000000 1.0
C      1  0.4538180000000  0.6024870000000  0.5268760000000 1.0
C      1  0.4287210000000  0.5294850000000  0.5258500000000 1.0
C      1  0.5335790000000  0.4178590000000  0.5176400000000 1.0
C      1  0.4777450000000  0.4617150000000  0.5033000000000 1.0
C      1  0.4587820000000  0.5417280000000  0.4910420000000 1.0
C      1  0.4964210000000  0.4406750000000  0.4296430000000 1.0
C      1  0.5584990000000  0.5106490000000  0.4243530000000 1.0
C      1  0.4401000000000  0.5245240000000  0.4313840000000 1.0
C      1  0.4193960000000  0.4862600000000  0.5651740000000 1.0
C      1  0.4975670000000  0.5234120000000  0.5544320000000 1.0
C      1  0.5646160000000  0.4526790000000  0.5060830000000 1.0
C      1  0.5456760000000  0.5666910000000  0.5654750000000 1.0
C      1  0.5613350000000  0.5055580000000  0.5360270000000 1.0
C      1  0.5848850000000  0.5220160000000  0.4967280000000 1.0
C      1  0.4929310000000  0.4691110000000  0.6002910000000 1.0
C      1  0.4525150000000  0.5196140000000  0.5425020000000 1.0
C      1  0.5670550000000  0.4765650000000  0.5422320000000 1.0
C      1  0.4850640000000  0.4912400000000  0.4201130000000 1.0
C      1  0.4296980000000  0.5600410000000  0.5358690000000 1.0
C      1  0.4405170000000  0.4194860000000  0.4915930000000 1.0
C      1  0.4962240000000  0.4487040000000  0.4588630000000 1.0
C      1  0.5580980000000  0.4805240000000  0.4183240000000 1.0
C      1  0.5075290000000  0.6007730000000  0.5351150000000 1.0
C      1  0.4360920000000  0.5231710000000  0.4962860000000 1.0
C      1  0.4794200000000  0.5880710000000  0.5253830000000 1.0
C      1  0.4946780000000  0.4950300000000  0.4669680000000 1.0
C      1  0.4829030000000  0.4451920000000  0.5544050000000 1.0
C      1  0.5264800000000  0.5958510000000  0.4619890000000 1.0
C      1  0.5189760000000  0.4624220000000  0.5292990000000 1.0
C      1  0.4795820000000  0.5545860000000  0.4084540000000 1.0
C      1  0.4493660000000  0.4635100000000  0.4206910000000 1.0
C      1  0.5792610000000  0.5484160000000  0.5041160000000 1.0
C      1  0.4364260000000  0.5819960000000  0.5166350000000 1.0
C      1  0.4707910000000  0.4828440000000  0.5841890000000 1.0
C      1  0.5412580000000  0.4420470000000  0.5337870000000 1.0
C      1  0.5866510000000  0.4548310000000  0.4493000000000 1.0
C      1  0.5528160000000  0.5814860000000  0.4644320000000 1.0
C      1  0.5067850000000  0.4479420000000  0.5800450000000 1.0
C      1  0.5061420000000  0.4953160000000  0.6074660000000 1.0
C      1  0.4582830000000  0.3979600000000  0.4984890000000 1.0
C      1  0.5322170000000  0.5204500000000  0.4127060000000 1.0
C      1  0.4901880000000  0.5828270000000  0.4905290000000 1.0
C      1  0.5099040000000  0.4806610000000  0.5510610000000 1.0
C      1  0.4553280000000  0.5589840000000  0.4220240000000 1.0
C      1  0.4130460000000  0.4573860000000  0.4846570000000 1.0
C      1  0.5593070000000  0.4587600000000  0.4397950000000 1.0
C      1  0.5058110000000  0.5397770000000  0.5773480000000 1.0
C      1  0.4609970000000  0.4821090000000  0.4651800000000 1.0
C      1  0.4404580000000  0.4861010000000  0.5863780000000 1.0
C      1  0.4486840000000  0.4949560000000  0.4911510000000 1.0
C      1  0.4202180000000  0.4732620000000  0.5370700000000 1.0
C      1  0.4208130000000  0.5472660000000  0.4554460000000 1.0
C      1  0.4601640000000  0.5182870000000  0.5944280000000 1.0
C      1  0.5896280000000  0.5450110000000  0.5465890000000 1.0
C      1  0.4480100000000  0.5702850000000  0.4920590000000 1.0
C      1  0.4250790000000  0.4514600000000  0.4587830000000 1.0
C      1  0.5156310000000  0.4957830000000  0.4225580000000 1.0
C      1  0.5040410000000  0.5612840000000  0.4229570000000 1.0
C      1  0.4706090000000  0.4534030000000  0.4733840000000 1.0
C      1  0.5468030000000  0.5003800000000  0.5012040000000 1.0
C      1  0.4965230000000  0.5661070000000  0.5664850000000 1.0
C      1  0.5384010000000  0.5156120000000  0.4714680000000 1.0
C      1  0.5238810000000  0.4928800000000  0.4548210000000 1.0
C      1  0.4605020000000  0.4907430000000  0.5380510000000 1.0
C      1  0.4613940000000  0.4238530000000  0.5567690000000 1.0
C      1  0.5920620000000  0.4738800000000  0.5236580000000 1.0
C      1  0.4907440000000  0.5199380000000  0.5979420000000 1.0
C      1  0.4225360000000  0.5002510000000  0.4418830000000 1.0
C      1  0.4828990000000  0.5371960000000  0.5075530000000 1.0
C      1  0.5211550000000  0.4497680000000  0.4733060000000 1.0
C      1  0.5185380000000  0.5070670000000  0.5468730000000 1.0
C      1  0.5621810000000  0.5237330000000  0.4532320000000 1.0
C      1  0.4462010000000  0.5316100000000  0.5705700000000 1.0
C      1  0.5389880000000  0.4208660000000  0.4897060000000 1.0
C      1  0.5373280000000  0.4130160000000  0.4468580000000 1.0
C      1  0.4196280000000  0.4438670000000  0.5331590000000 1.0
C      1  0.5436700000000  0.5154590000000  0.5609300000000 1.0
C      1  0.5413270000000  0.4683960000000  0.4631680000000 1.0
C      1  0.5857950000000  0.4199790000000  0.4863360000000 1.0
C      1  0.4966520000000  0.4854640000000  0.4956710000000 1.0
C      1  0.5182640000000  0.5408050000000  0.4715210000000 1.0
C      1  0.5622830000000  0.4754700000000  0.4852340000000 1.0
C      1  0.5252280000000  0.5585150000000  0.5222180000000 1.0
C      1  0.4672340000000  0.5377500000000  0.4630610000000 1.0
C      1  0.5056570000000  0.5831270000000  0.4436130000000 1.0
C      1  0.4567850000000  0.3876230000000  0.5243340000000 1.0
C      1  0.5451620000000  0.4512820000000  0.5819290000000 1.0
C      1  0.4614750000000  0.5646120000000  0.4499850000000 1.0
C      1  0.4050990000000  0.5047400000000  0.4667870000000 1.0
C      1  0.4261500000000  0.4411190000000  0.5049810000000 1.0
C      1  0.4518080000000  0.4759140000000  0.5142980000000 1.0
C      1  0.5886340000000  0.4744700000000  0.4692970000000 1.0
C      1  0.5361380000000  0.5410590000000  0.5765950000000 1.0
C      1  0.5703300000000  0.5749070000000  0.5043890000000 1.0
C      1  0.5518280000000  0.4971070000000  0.5829350000000 1.0
C      1  0.5878240000000  0.5189840000000  0.4683220000000 1.0
C      1  0.4036470000000  0.5146730000000  0.5344960000000 1.0
C      1  0.5051090000000  0.4154540000000  0.5221980000000 1.0
C      1  0.4348990000000  0.4294660000000  0.5510730000000 1.0
C      1  0.4742730000000  0.5638540000000  0.5470420000000 1.0
C      1  0.6003220000000  0.5042410000000  0.5155600000000 1.0
C      1  0.4758610000000  0.3890750000000  0.4788450000000 1.0
C      1  0.4383510000000  0.4746750000000  0.4449890000000 1.0
C      1  0.4031540000000  0.5093640000000  0.5624790000000 1.0
C      1  0.5288960000000  0.5498610000000  0.4135320000000 1.0
C      1  0.4792010000000  0.4769610000000  0.5562950000000 1.0
C      1  0.4769420000000  0.4633540000000  0.4182150000000 1.0
C      1  0.4474180000000  0.4330820000000  0.4666710000000 1.0
C      1  0.4988690000000  0.3976100000000  0.5428740000000 1.0
C      1  0.4011280000000  0.4889880000000  0.5196400000000 1.0
C      1  0.5198450000000  0.5750030000000  0.5485330000000 1.0
C      1  0.5516220000000  0.5618890000000  0.4240960000000 1.0
C      1  0.5339350000000  0.4949320000000  0.6041510000000 1.0
C      1  0.4776160000000  0.5358060000000  0.5361000000000 1.0
C      1  0.6026270000000  0.4969000000000  0.4613770000000 1.0
END
