TITL C-950535-5962-692 4.37690129313675e-09 125000 -365.731266884211 0 0 60 (C1) n - 1
REM
REM in /home/bkarasulu/work/CARBON/AIRSS/Generating-Clusters/EDIP-Nigel-Params/with-SteepDescent/Only-C1/SD-CG/HFTN-CG
REM
REM
REM
REM
REM
REM ./C.cell (11c1c37f851c82e70ff6c80c92926a4b)
REM
REM compiler GCC version 9.2.1 20190827 (Red Hat 9.2.1-1)
REM options -cpp -mtune=generic -march=x86-64 -g -O0 -fpre-include=/usr/include/finclude/math-vector-fortran.h
REM seed -572488546 -1035270941 -1761326254 -1987682940 -2126218587 -38996591 1779402488 170426391 -530281244 -1765936452 2065218134 -358387867 -1546085461 -426691016 801156327 1193555944 -868836610 -691312727 1650270955 955491571 -1580445381 -1975480351 762025001 -849741078 -405089019 -716979320 1202536161 798658914 -733420776 -269727524 353128593 -1349725390 1136863280
REM
CELL 1.54180   50.00000   50.00000   50.00000   90.00000   90.00000   90.00000
LATT -1
SFAC C  
C      1  0.4925180000000  0.5320240000000  0.5329870000000 1.0
C      1  0.4785580000000  0.5446940000000  0.4513830000000 1.0
C      1  0.4649480000000  0.4678710000000  0.5123840000000 1.0
C      1  0.5390590000000  0.5100070000000  0.5421790000000 1.0
C      1  0.5596550000000  0.5328450000000  0.4899200000000 1.0
C      1  0.5062760000000  0.5148160000000  0.4794210000000 1.0
C      1  0.4976100000000  0.5266170000000  0.4378000000000 1.0
C      1  0.4718060000000  0.4927520000000  0.4966070000000 1.0
C      1  0.5121250000000  0.4818430000000  0.5216250000000 1.0
C      1  0.5141660000000  0.5519360000000  0.5382730000000 1.0
C      1  0.5534410000000  0.4654840000000  0.5489720000000 1.0
C      1  0.5288230000000  0.4700640000000  0.5016130000000 1.0
C      1  0.5443720000000  0.5452530000000  0.4679980000000 1.0
C      1  0.4935910000000  0.4538410000000  0.5538800000000 1.0
C      1  0.5187450000000  0.4999440000000  0.5608970000000 1.0
C      1  0.4705740000000  0.4640530000000  0.5659360000000 1.0
C      1  0.4527160000000  0.5484920000000  0.5355370000000 1.0
C      1  0.4530560000000  0.5344830000000  0.5598370000000 1.0
C      1  0.4923860000000  0.5118450000000  0.5548210000000 1.0
C      1  0.4456460000000  0.5314810000000  0.5135980000000 1.0
C      1  0.4689600000000  0.5670390000000  0.4915510000000 1.0
C      1  0.5387840000000  0.4436870000000  0.5082690000000 1.0
C      1  0.4736320000000  0.4412960000000  0.4429410000000 1.0
C      1  0.5366330000000  0.5729050000000  0.5033860000000 1.0
C      1  0.5401210000000  0.5385800000000  0.5369460000000 1.0
C      1  0.5130390000000  0.5743940000000  0.5204490000000 1.0
C      1  0.5482480000000  0.4971110000000  0.4597170000000 1.0
C      1  0.5357900000000  0.4697370000000  0.4562690000000 1.0
C      1  0.4882470000000  0.4333970000000  0.4992530000000 1.0
C      1  0.4332080000000  0.5048640000000  0.5133240000000 1.0
C      1  0.5013800000000  0.4377980000000  0.4457450000000 1.0
C      1  0.5082430000000  0.4369890000000  0.4766510000000 1.0
C      1  0.5143620000000  0.4670830000000  0.4767670000000 1.0
C      1  0.4588770000000  0.4463660000000  0.4651470000000 1.0
C      1  0.4584820000000  0.5307920000000  0.4667540000000 1.0
C      1  0.5334390000000  0.5703270000000  0.4753150000000 1.0
C      1  0.4865050000000  0.5005170000000  0.4298540000000 1.0
C      1  0.5611600000000  0.4502910000000  0.5245840000000 1.0
C      1  0.4755410000000  0.5646110000000  0.5209970000000 1.0
C      1  0.4473530000000  0.5049750000000  0.4621560000000 1.0
C      1  0.5218230000000  0.4701160000000  0.5567130000000 1.0
C      1  0.4921650000000  0.4584580000000  0.5242770000000 1.0
C      1  0.5538430000000  0.5504900000000  0.5133880000000 1.0
C      1  0.4526170000000  0.4854850000000  0.5614760000000 1.0
C      1  0.4498790000000  0.5456620000000  0.4891120000000 1.0
C      1  0.5188060000000  0.4598030000000  0.4329300000000 1.0
C      1  0.5344780000000  0.4258030000000  0.4860530000000 1.0
C      1  0.4663420000000  0.5111660000000  0.5682180000000 1.0
C      1  0.4613760000000  0.4440500000000  0.4929620000000 1.0
C      1  0.4912050000000  0.4886960000000  0.4719290000000 1.0
C      1  0.5619710000000  0.4921550000000  0.5384690000000 1.0
C      1  0.5594060000000  0.5030660000000  0.4883320000000 1.0
C      1  0.4641860000000  0.4894860000000  0.4445360000000 1.0
C      1  0.5280300000000  0.5213620000000  0.4585110000000 1.0
C      1  0.5691650000000  0.4852580000000  0.5105740000000 1.0
C      1  0.4987050000000  0.5088030000000  0.5108110000000 1.0
C      1  0.4856930000000  0.5670250000000  0.4679660000000 1.0
C      1  0.4344740000000  0.4938420000000  0.4859550000000 1.0
C      1  0.4392780000000  0.4851170000000  0.5349040000000 1.0
C      1  0.5044810000000  0.4810530000000  0.4211380000000 1.0
END
