TITL C-950531-5884-116 -1.02957515322189e-06 125000 -555.355007785413 0 0 91 (C1) n - 1
REM
REM in /home/bkarasulu/work/CARBON/AIRSS/Generating-Clusters/EDIP-Nigel-Params/with-SteepDescent/Only-C1/SD-CG/HFTN-CG
REM
REM
REM
REM
REM
REM ./C.cell (11c1c37f851c82e70ff6c80c92926a4b)
REM
REM compiler GCC version 9.2.1 20190827 (Red Hat 9.2.1-1)
REM options -cpp -mtune=generic -march=x86-64 -g -O0 -fpre-include=/usr/include/finclude/math-vector-fortran.h
REM seed -1562410954 -2023928710 -1064724432 2026999935 523409021 -1454146441 1973489393 -33700673 -681514251 -912118216 -718025481 1689656536 966538010 393385332 1579846487 -1308261389 1040468741 511216522 -978001834 1393904207 996967307 -1502474616 926520075 1894425889 1365958246 -1761361887 -68268390 485078422 -1605905042 -1086451620 181218467 162035866 1323765757
REM
CELL 1.54180   50.00000   50.00000   50.00000   90.00000   90.00000   90.00000
LATT -1
SFAC C  
C      1  0.4923110000000  0.4111550000000  0.5443850000000 1.0
C      1  0.4994710000000  0.4073430000000  0.4843420000000 1.0
C      1  0.4830720000000  0.5839140000000  0.4940170000000 1.0
C      1  0.5467900000000  0.5369410000000  0.4499630000000 1.0
C      1  0.4995400000000  0.4421960000000  0.5753240000000 1.0
C      1  0.5865910000000  0.5215660000000  0.5062900000000 1.0
C      1  0.4262430000000  0.5402670000000  0.4810720000000 1.0
C      1  0.5327330000000  0.4782870000000  0.4244970000000 1.0
C      1  0.5612920000000  0.5362870000000  0.5099960000000 1.0
C      1  0.5233360000000  0.4345240000000  0.4455850000000 1.0
C      1  0.5379820000000  0.4271940000000  0.5497870000000 1.0
C      1  0.4554150000000  0.5433380000000  0.4916830000000 1.0
C      1  0.4137000000000  0.5114720000000  0.4784850000000 1.0
C      1  0.4434300000000  0.4813940000000  0.4472330000000 1.0
C      1  0.5015390000000  0.5142540000000  0.5744920000000 1.0
C      1  0.4402020000000  0.5272730000000  0.5388250000000 1.0
C      1  0.4225820000000  0.4930960000000  0.5027590000000 1.0
C      1  0.4802450000000  0.4611270000000  0.5809120000000 1.0
C      1  0.5045320000000  0.5362060000000  0.5123190000000 1.0
C      1  0.5095530000000  0.5676600000000  0.4384340000000 1.0
C      1  0.5078800000000  0.5219960000000  0.4209230000000 1.0
C      1  0.5034210000000  0.5926100000000  0.5370800000000 1.0
C      1  0.4611890000000  0.4740600000000  0.4253600000000 1.0
C      1  0.5595840000000  0.4825280000000  0.5090640000000 1.0
C      1  0.5287810000000  0.5987430000000  0.4966890000000 1.0
C      1  0.5598660000000  0.4936890000000  0.4813660000000 1.0
C      1  0.5306880000000  0.4781190000000  0.5560320000000 1.0
C      1  0.5222110000000  0.5030630000000  0.4358030000000 1.0
C      1  0.5115270000000  0.4958790000000  0.5424630000000 1.0
C      1  0.5640560000000  0.4703390000000  0.4635460000000 1.0
C      1  0.4290260000000  0.5340130000000  0.4495850000000 1.0
C      1  0.4970320000000  0.5477770000000  0.4205420000000 1.0
C      1  0.4483070000000  0.4756470000000  0.4987400000000 1.0
C      1  0.4223850000000  0.4435670000000  0.5219640000000 1.0
C      1  0.5003790000000  0.5675930000000  0.5492530000000 1.0
C      1  0.5121110000000  0.4596520000000  0.4360300000000 1.0
C      1  0.4846710000000  0.4850910000000  0.4696060000000 1.0
C      1  0.5161330000000  0.5511100000000  0.4879520000000 1.0
C      1  0.4840750000000  0.5502130000000  0.5306220000000 1.0
C      1  0.5040040000000  0.5976900000000  0.5095340000000 1.0
C      1  0.4742920000000  0.5220020000000  0.5725980000000 1.0
C      1  0.4710150000000  0.5477770000000  0.4676890000000 1.0
C      1  0.5041690000000  0.4510060000000  0.5283280000000 1.0
C      1  0.5824500000000  0.5147040000000  0.4776480000000 1.0
C      1  0.5267050000000  0.5274640000000  0.5697480000000 1.0
C      1  0.5558490000000  0.5715460000000  0.4656940000000 1.0
C      1  0.5218040000000  0.5121480000000  0.5190070000000 1.0
C      1  0.4752400000000  0.4211520000000  0.4995090000000 1.0
C      1  0.4770710000000  0.4339170000000  0.4433110000000 1.0
C      1  0.4204960000000  0.5096000000000  0.5298900000000 1.0
C      1  0.4941270000000  0.5655550000000  0.4718890000000 1.0
C      1  0.5741410000000  0.5379890000000  0.4620670000000 1.0
C      1  0.4726150000000  0.4925090000000  0.4956150000000 1.0
C      1  0.5581960000000  0.5642990000000  0.5148700000000 1.0
C      1  0.4575340000000  0.5409890000000  0.4436290000000 1.0
C      1  0.5740440000000  0.5059760000000  0.5511250000000 1.0
C      1  0.5640730000000  0.4467270000000  0.4781970000000 1.0
C      1  0.4666410000000  0.5312150000000  0.5463450000000 1.0
C      1  0.4783060000000  0.4328020000000  0.5278410000000 1.0
C      1  0.4690280000000  0.5482650000000  0.4193370000000 1.0
C      1  0.5472470000000  0.5030210000000  0.5653050000000 1.0
C      1  0.5012860000000  0.4187780000000  0.4537310000000 1.0
C      1  0.4493140000000  0.4549160000000  0.5252380000000 1.0
C      1  0.5471960000000  0.5238030000000  0.5319030000000 1.0
C      1  0.5239090000000  0.4129900000000  0.5031230000000 1.0
C      1  0.4455600000000  0.4733090000000  0.5491650000000 1.0
C      1  0.5262530000000  0.5543350000000  0.5555230000000 1.0
C      1  0.5399350000000  0.5725540000000  0.4921560000000 1.0
C      1  0.5387230000000  0.5652390000000  0.4400610000000 1.0
C      1  0.5244730000000  0.4432260000000  0.5054810000000 1.0
C      1  0.5478890000000  0.5656220000000  0.5411000000000 1.0
C      1  0.4071240000000  0.4677290000000  0.5233290000000 1.0
C      1  0.4653990000000  0.5184450000000  0.5016300000000 1.0
C      1  0.4184520000000  0.4845460000000  0.5457290000000 1.0
C      1  0.4908940000000  0.4157610000000  0.5723140000000 1.0
C      1  0.5811940000000  0.4969040000000  0.5238690000000 1.0
C      1  0.5270350000000  0.5295490000000  0.4709370000000 1.0
C      1  0.4226970000000  0.5024370000000  0.4494580000000 1.0
C      1  0.5298750000000  0.5035620000000  0.4840100000000 1.0
C      1  0.4747370000000  0.4561260000000  0.4659860000000 1.0
C      1  0.4658310000000  0.5657370000000  0.5108760000000 1.0
C      1  0.4833030000000  0.4556960000000  0.4226290000000 1.0
C      1  0.5538300000000  0.4536540000000  0.5036870000000 1.0
C      1  0.5191870000000  0.4494660000000  0.5539800000000 1.0
C      1  0.5210570000000  0.4094490000000  0.5339670000000 1.0
C      1  0.4900880000000  0.4447620000000  0.4874790000000 1.0
C      1  0.4581960000000  0.4767210000000  0.5750910000000 1.0
C      1  0.5134150000000  0.4880450000000  0.4626780000000 1.0
C      1  0.4456530000000  0.4626190000000  0.4712760000000 1.0
C      1  0.5570660000000  0.4714600000000  0.4364890000000 1.0
C      1  0.4575020000000  0.5030220000000  0.5849080000000 1.0
END
