TITL C-950522-5749-548 -2.20185531161016e-06 125000 -304.396953077613 0 0 50 (C1) n - 1
REM
REM in /home/bkarasulu/work/CARBON/AIRSS/Generating-Clusters/EDIP-Nigel-Params/with-SteepDescent/Only-C1/SD-CG/HFTN-CG
REM
REM
REM
REM
REM
REM ./C.cell (11c1c37f851c82e70ff6c80c92926a4b)
REM
REM compiler GCC version 9.2.1 20190827 (Red Hat 9.2.1-1)
REM options -cpp -mtune=generic -march=x86-64 -g -O0 -fpre-include=/usr/include/finclude/math-vector-fortran.h
REM seed -251807709 -1046179449 -698355417 1864606724 -1407690232 -747197516 1492994751 -932731034 -1322813863 1867673892 1985087207 619661632 -1616481104 1505035500 -1270116052 404547504 -1225557116 -2133842001 1298484153 -1240697930 219800647 331048702 -86182098 -745228322 932134465 -778671884 -550109479 -1959638114 -1579349502 -713509347 -830654208 -1935711076 540905858
REM
CELL 1.54180   50.00000   50.00000   50.00000   90.00000   90.00000   90.00000
LATT -1
SFAC C  
C      1  0.5378460000000  0.5045230000000  0.5700700000000 1.0
C      1  0.5318930000000  0.4931040000000  0.4481950000000 1.0
C      1  0.5314340000000  0.5564830000000  0.4768270000000 1.0
C      1  0.5439070000000  0.5302160000000  0.4744820000000 1.0
C      1  0.5343750000000  0.4841790000000  0.4766020000000 1.0
C      1  0.5070100000000  0.5299820000000  0.5086180000000 1.0
C      1  0.4674480000000  0.5588860000000  0.5007490000000 1.0
C      1  0.4559800000000  0.4819820000000  0.5595680000000 1.0
C      1  0.5277970000000  0.4791780000000  0.5790140000000 1.0
C      1  0.4324220000000  0.5236920000000  0.5218770000000 1.0
C      1  0.5106160000000  0.4809890000000  0.5195520000000 1.0
C      1  0.5380280000000  0.4757620000000  0.5337440000000 1.0
C      1  0.4567590000000  0.4560160000000  0.5212940000000 1.0
C      1  0.4553000000000  0.4504120000000  0.4938870000000 1.0
C      1  0.5535220000000  0.4992840000000  0.5452900000000 1.0
C      1  0.5020260000000  0.4947500000000  0.4450510000000 1.0
C      1  0.4957300000000  0.4325120000000  0.4891020000000 1.0
C      1  0.5109480000000  0.4434460000000  0.5116630000000 1.0
C      1  0.4594110000000  0.5195100000000  0.5269540000000 1.0
C      1  0.5537140000000  0.5221380000000  0.5266200000000 1.0
C      1  0.5563250000000  0.4636700000000  0.5127420000000 1.0
C      1  0.5238200000000  0.5325370000000  0.4293840000000 1.0
C      1  0.4610440000000  0.4720380000000  0.4741100000000 1.0
C      1  0.4969440000000  0.5230780000000  0.4349420000000 1.0
C      1  0.4886400000000  0.5437600000000  0.4539050000000 1.0
C      1  0.4295030000000  0.5153630000000  0.4712810000000 1.0
C      1  0.5108270000000  0.5611810000000  0.4576260000000 1.0
C      1  0.4590040000000  0.5714300000000  0.4783150000000 1.0
C      1  0.4781890000000  0.5372380000000  0.5144630000000 1.0
C      1  0.5379060000000  0.4436230000000  0.5004160000000 1.0
C      1  0.5236140000000  0.4613820000000  0.5572110000000 1.0
C      1  0.5432530000000  0.5200920000000  0.4464460000000 1.0
C      1  0.5618180000000  0.4856580000000  0.4908160000000 1.0
C      1  0.4970140000000  0.5012890000000  0.5488770000000 1.0
C      1  0.5279360000000  0.5356840000000  0.5333190000000 1.0
C      1  0.5130280000000  0.4991350000000  0.4963180000000 1.0
C      1  0.4413050000000  0.4906990000000  0.4689000000000 1.0
C      1  0.5204620000000  0.5571760000000  0.5029160000000 1.0
C      1  0.4960510000000  0.4550870000000  0.5515740000000 1.0
C      1  0.4408920000000  0.5350200000000  0.4554740000000 1.0
C      1  0.5586020000000  0.5153760000000  0.4972420000000 1.0
C      1  0.4616130000000  0.5533770000000  0.4571250000000 1.0
C      1  0.5313460000000  0.4547020000000  0.4737390000000 1.0
C      1  0.4683770000000  0.4262930000000  0.4888020000000 1.0
C      1  0.5164590000000  0.5208480000000  0.5573080000000 1.0
C      1  0.4221320000000  0.5224770000000  0.4970430000000 1.0
C      1  0.5038420000000  0.4480050000000  0.4656470000000 1.0
C      1  0.4682650000000  0.4603880000000  0.5463710000000 1.0
C      1  0.4867070000000  0.4716240000000  0.4589190000000 1.0
C      1  0.4689170000000  0.5047250000000  0.5496090000000 1.0
END
