TITL C-951333-8791-58 8.05328534810266e-07 125000 -222.684191406968 0 0 38 (C1) n - 1
REM
REM in /home/bkarasulu/work/CARBON/AIRSS/Generating-Clusters/EDIP-Nigel-Params/with-SteepDescent/Only-C1/SD-CG/HFTN-CG
REM
REM
REM
REM
REM
REM ./C.cell (11c1c37f851c82e70ff6c80c92926a4b)
REM
REM compiler GCC version 9.2.1 20190827 (Red Hat 9.2.1-1)
REM options -cpp -mtune=generic -march=x86-64 -g -O0 -fpre-include=/usr/include/finclude/math-vector-fortran.h
REM seed -1025831535 1781967545 -627855274 -456406926 -892243211 1538081911 -1816461782 -285712529 548858340 -1746314103 1922228657 506417707 680414733 -956530170 -356766905 62863311 661310538 -668462489 -1158199308 -481602225 -637932430 -1673581823 1683539489 1411434719 169167524 2069361445 208303618 450453839 -435047968 67071282 -1746564062 356463458 1220452353
REM
CELL 1.54180   50.00000   50.00000   50.00000   90.00000   90.00000   90.00000
LATT -1
SFAC C  
C      1  0.5637580000000  0.4996580000000  0.5040800000000 1.0
C      1  0.5333530000000  0.4980390000000  0.4659570000000 1.0
C      1  0.4417390000000  0.4830050000000  0.4642060000000 1.0
C      1  0.4946790000000  0.4793710000000  0.5026220000000 1.0
C      1  0.5223570000000  0.5240600000000  0.4772270000000 1.0
C      1  0.4764610000000  0.5294920000000  0.5141260000000 1.0
C      1  0.4643570000000  0.4702130000000  0.5330150000000 1.0
C      1  0.5513590000000  0.5194370000000  0.5194170000000 1.0
C      1  0.4951860000000  0.4514600000000  0.4897290000000 1.0
C      1  0.4486050000000  0.4886440000000  0.4911560000000 1.0
C      1  0.5452050000000  0.4549220000000  0.4891930000000 1.0
C      1  0.4700450000000  0.4472080000000  0.4760980000000 1.0
C      1  0.4927010000000  0.4641610000000  0.5381180000000 1.0
C      1  0.5307660000000  0.4944690000000  0.5566870000000 1.0
C      1  0.4972660000000  0.5669000000000  0.4839150000000 1.0
C      1  0.4662070000000  0.5289910000000  0.4487670000000 1.0
C      1  0.5051790000000  0.5739600000000  0.5092020000000 1.0
C      1  0.4875870000000  0.4850790000000  0.4489000000000 1.0
C      1  0.5488000000000  0.5129500000000  0.5463470000000 1.0
C      1  0.4639700000000  0.4670810000000  0.4555690000000 1.0
C      1  0.5047610000000  0.5458960000000  0.5159970000000 1.0
C      1  0.5541480000000  0.4837790000000  0.4821860000000 1.0
C      1  0.5238260000000  0.4874800000000  0.5079560000000 1.0
C      1  0.4565370000000  0.4955510000000  0.5419590000000 1.0
C      1  0.5282350000000  0.5307720000000  0.5050150000000 1.0
C      1  0.4898140000000  0.5426180000000  0.4432120000000 1.0
C      1  0.4570640000000  0.5470040000000  0.5063980000000 1.0
C      1  0.5193570000000  0.4508740000000  0.4719290000000 1.0
C      1  0.4832520000000  0.5103750000000  0.4637720000000 1.0
C      1  0.5097320000000  0.5069410000000  0.5695420000000 1.0
C      1  0.5404590000000  0.4547130000000  0.5190620000000 1.0
C      1  0.4697250000000  0.5197910000000  0.5416020000000 1.0
C      1  0.4536660000000  0.4642550000000  0.5062480000000 1.0
C      1  0.5161520000000  0.4759600000000  0.4541550000000 1.0
C      1  0.5073160000000  0.5470730000000  0.4654840000000 1.0
C      1  0.5221900000000  0.4729170000000  0.5368350000000 1.0
C      1  0.4890470000000  0.5217000000000  0.5612170000000 1.0
C      1  0.4751380000000  0.5032000000000  0.4930990000000 1.0
END
