TITL C-950532-2784-537 1.84589596170279e-07 125000 -549.138763369858 0 0 88 (C1) n - 1
REM
REM in /home/bkarasulu/work/CARBON/AIRSS/Generating-Clusters/EDIP-Nigel-Params/with-SteepDescent/Only-C1/SD-CG/HFTN-CG
REM
REM
REM
REM
REM
REM ./C.cell (11c1c37f851c82e70ff6c80c92926a4b)
REM
REM compiler GCC version 9.2.1 20190827 (Red Hat 9.2.1-1)
REM options -cpp -mtune=generic -march=x86-64 -g -O0 -fpre-include=/usr/include/finclude/math-vector-fortran.h
REM seed -6025416 -1278135616 6493263 -2106945809 740129373 -1029633247 1306871807 -1137008086 -360103335 -959743816 1367291216 -1343264768 -1524444100 774235495 1716963039 1226789156 -290920428 1857149894 -923835536 -328660673 -1698115021 1200893052 194991361 1757579237 173360003 738411951 -2007389180 -1879959790 1433119249 -770310859 -1557631387 -1502920172 -265957612
REM
CELL 1.54180   50.00000   50.00000   50.00000   90.00000   90.00000   90.00000
LATT -1
SFAC C  
C      1  0.5534650000000  0.4788790000000  0.4402790000000 1.0
C      1  0.4730000000000  0.4134770000000  0.5114480000000 1.0
C      1  0.4489660000000  0.4629830000000  0.4912260000000 1.0
C      1  0.5046610000000  0.5577440000000  0.4327620000000 1.0
C      1  0.4481530000000  0.5709920000000  0.4968090000000 1.0
C      1  0.4778090000000  0.4981550000000  0.5799890000000 1.0
C      1  0.4282650000000  0.5478820000000  0.4920330000000 1.0
C      1  0.5229180000000  0.5361990000000  0.4194670000000 1.0
C      1  0.4386080000000  0.4984980000000  0.5513120000000 1.0
C      1  0.5650840000000  0.5566460000000  0.5053970000000 1.0
C      1  0.4952120000000  0.4863720000000  0.4860640000000 1.0
C      1  0.4222960000000  0.4624730000000  0.5324260000000 1.0
C      1  0.4707030000000  0.5394620000000  0.4981130000000 1.0
C      1  0.5011100000000  0.5145210000000  0.4186060000000 1.0
C      1  0.5308590000000  0.4945420000000  0.5284710000000 1.0
C      1  0.4636630000000  0.4946170000000  0.4414380000000 1.0
C      1  0.5224420000000  0.4741550000000  0.5769560000000 1.0
C      1  0.5517920000000  0.4619240000000  0.4951690000000 1.0
C      1  0.4761770000000  0.5335310000000  0.5434500000000 1.0
C      1  0.5070670000000  0.4859400000000  0.4207630000000 1.0
C      1  0.4663730000000  0.5752540000000  0.4737510000000 1.0
C      1  0.4922350000000  0.5288520000000  0.5175060000000 1.0
C      1  0.5605130000000  0.5248040000000  0.4674220000000 1.0
C      1  0.4684390000000  0.5038810000000  0.5518290000000 1.0
C      1  0.5552930000000  0.4365680000000  0.4661210000000 1.0
C      1  0.4819270000000  0.4277690000000  0.4845060000000 1.0
C      1  0.5191790000000  0.5498610000000  0.5639120000000 1.0
C      1  0.5097490000000  0.4405380000000  0.5280980000000 1.0
C      1  0.5269320000000  0.4370180000000  0.4691500000000 1.0
C      1  0.5414150000000  0.5083370000000  0.4823060000000 1.0
C      1  0.4301530000000  0.5322430000000  0.4676410000000 1.0
C      1  0.4573680000000  0.5729960000000  0.5259710000000 1.0
C      1  0.5045620000000  0.4149750000000  0.5136290000000 1.0
C      1  0.5170940000000  0.4999190000000  0.4669070000000 1.0
C      1  0.5813320000000  0.5398130000000  0.5193660000000 1.0
C      1  0.5029880000000  0.5263140000000  0.4556890000000 1.0
C      1  0.5677790000000  0.4790090000000  0.5557810000000 1.0
C      1  0.5140290000000  0.5683950000000  0.4591060000000 1.0
C      1  0.4812930000000  0.4834920000000  0.5332290000000 1.0
C      1  0.4823600000000  0.4501330000000  0.5702640000000 1.0
C      1  0.5506220000000  0.4908640000000  0.5044970000000 1.0
C      1  0.5801560000000  0.4917290000000  0.5137190000000 1.0
C      1  0.5665650000000  0.4619090000000  0.4600110000000 1.0
C      1  0.5699990000000  0.5089700000000  0.5534890000000 1.0
C      1  0.4807600000000  0.4736940000000  0.4271020000000 1.0
C      1  0.5423150000000  0.5181940000000  0.5453940000000 1.0
C      1  0.4583080000000  0.4409390000000  0.4504940000000 1.0
C      1  0.4501420000000  0.5464730000000  0.5363260000000 1.0
C      1  0.5121470000000  0.4536580000000  0.4514880000000 1.0
C      1  0.4917780000000  0.5563270000000  0.5570800000000 1.0
C      1  0.4603900000000  0.4335380000000  0.5289460000000 1.0
C      1  0.5050950000000  0.5729120000000  0.5088710000000 1.0
C      1  0.5229310000000  0.5245920000000  0.5776960000000 1.0
C      1  0.4387640000000  0.4571730000000  0.4631890000000 1.0
C      1  0.4266210000000  0.5033630000000  0.4723060000000 1.0
C      1  0.5411020000000  0.5682610000000  0.4652720000000 1.0
C      1  0.5490270000000  0.5292740000000  0.4309540000000 1.0
C      1  0.4705790000000  0.4997440000000  0.4721940000000 1.0
C      1  0.5384600000000  0.4726690000000  0.5513440000000 1.0
C      1  0.5803940000000  0.4669010000000  0.5312520000000 1.0
C      1  0.5397880000000  0.5462470000000  0.5322760000000 1.0
C      1  0.5072410000000  0.4515260000000  0.5829730000000 1.0
C      1  0.5610930000000  0.5530310000000  0.4770930000000 1.0
C      1  0.4837580000000  0.4528820000000  0.5398990000000 1.0
C      1  0.4257160000000  0.4909670000000  0.5246000000000 1.0
C      1  0.4552220000000  0.5571050000000  0.4527310000000 1.0
C      1  0.4722720000000  0.5207970000000  0.4246650000000 1.0
C      1  0.5873000000000  0.5151150000000  0.5305680000000 1.0
C      1  0.5169550000000  0.5463020000000  0.5134780000000 1.0
C      1  0.5642570000000  0.5051070000000  0.4344110000000 1.0
C      1  0.5114830000000  0.4171340000000  0.4824630000000 1.0
C      1  0.5237960000000  0.4796070000000  0.4442040000000 1.0
C      1  0.4862760000000  0.5769220000000  0.5336860000000 1.0
C      1  0.5000060000000  0.4979790000000  0.5156210000000 1.0
C      1  0.4378190000000  0.4461520000000  0.5142460000000 1.0
C      1  0.4412760000000  0.4921280000000  0.4970500000000 1.0
C      1  0.4841670000000  0.4494690000000  0.4422240000000 1.0
C      1  0.5602520000000  0.4469430000000  0.5198060000000 1.0
C      1  0.4790460000000  0.4586930000000  0.4895690000000 1.0
C      1  0.4377700000000  0.5322860000000  0.5144110000000 1.0
C      1  0.4352540000000  0.4845490000000  0.4503820000000 1.0
C      1  0.4633570000000  0.4704020000000  0.5815030000000 1.0
C      1  0.4946210000000  0.5719160000000  0.4805270000000 1.0
C      1  0.4751670000000  0.5286040000000  0.4700830000000 1.0
C      1  0.5365560000000  0.4461410000000  0.5384090000000 1.0
C      1  0.4377450000000  0.4727410000000  0.5659310000000 1.0
C      1  0.4744030000000  0.5494410000000  0.4314300000000 1.0
C      1  0.5079870000000  0.4994680000000  0.5797770000000 1.0
END
