TITL C-950528-5794-365 2.06675333865826e-06 125000 -930.274107853407 0 0 149 (C1) n - 1
REM
REM in /home/bkarasulu/work/CARBON/AIRSS/Generating-Clusters/EDIP-Nigel-Params/with-SteepDescent/Only-C1/SD-CG/HFTN-CG
REM
REM
REM
REM
REM
REM ./C.cell (11c1c37f851c82e70ff6c80c92926a4b)
REM
REM compiler GCC version 9.2.1 20190827 (Red Hat 9.2.1-1)
REM options -cpp -mtune=generic -march=x86-64 -g -O0 -fpre-include=/usr/include/finclude/math-vector-fortran.h
REM seed -1506042174 -686145169 -460968084 531560175 -1032625682 79602408 746743061 -797717486 -1039750106 1339769752 -774411043 805216402 -1983506091 -1952959138 -919507558 -756438690 55891826 -1302653315 358969976 -653851256 1530073881 1051490563 -76464329 -1047084604 197578151 1779295531 1126641614 -512386273 -129563154 1648475714 1855729577 -2044143448 1168378315
REM
CELL 1.54180   50.00000   50.00000   50.00000   90.00000   90.00000   90.00000
LATT -1
SFAC C  
C      1  0.5124260000000  0.4594760000000  0.5941050000000 1.0
C      1  0.5538490000000  0.5405120000000  0.4196820000000 1.0
C      1  0.4762840000000  0.5442550000000  0.5056110000000 1.0
C      1  0.4100780000000  0.4527360000000  0.4879790000000 1.0
C      1  0.5480230000000  0.5322870000000  0.5063530000000 1.0
C      1  0.5360990000000  0.5724550000000  0.5685150000000 1.0
C      1  0.5230710000000  0.5456810000000  0.5260300000000 1.0
C      1  0.5897600000000  0.5369500000000  0.5303810000000 1.0
C      1  0.4008890000000  0.5225320000000  0.5549140000000 1.0
C      1  0.5818260000000  0.5243470000000  0.4572260000000 1.0
C      1  0.4442800000000  0.5387550000000  0.5852700000000 1.0
C      1  0.5011020000000  0.5293210000000  0.5131000000000 1.0
C      1  0.5882540000000  0.4700600000000  0.4923210000000 1.0
C      1  0.4651800000000  0.4393340000000  0.4928380000000 1.0
C      1  0.5144100000000  0.4927300000000  0.5447990000000 1.0
C      1  0.5440060000000  0.4900220000000  0.5344910000000 1.0
C      1  0.4311640000000  0.4706510000000  0.4277490000000 1.0
C      1  0.5056910000000  0.5776820000000  0.4837450000000 1.0
C      1  0.5466640000000  0.6104360000000  0.5117230000000 1.0
C      1  0.4875610000000  0.5413890000000  0.4569730000000 1.0
C      1  0.4865580000000  0.5920530000000  0.5626270000000 1.0
C      1  0.4770810000000  0.3932550000000  0.4835910000000 1.0
C      1  0.4820930000000  0.4128960000000  0.4368490000000 1.0
C      1  0.5133550000000  0.5869740000000  0.5559370000000 1.0
C      1  0.4228450000000  0.5305390000000  0.4892500000000 1.0
C      1  0.4858280000000  0.4096280000000  0.5589790000000 1.0
C      1  0.4095180000000  0.4766290000000  0.5585010000000 1.0
C      1  0.4659030000000  0.5570530000000  0.4285710000000 1.0
C      1  0.5940750000000  0.5301970000000  0.4823500000000 1.0
C      1  0.5694540000000  0.4573130000000  0.4307880000000 1.0
C      1  0.4369950000000  0.5088080000000  0.5855980000000 1.0
C      1  0.4321130000000  0.4447220000000  0.5293810000000 1.0
C      1  0.5241390000000  0.4001780000000  0.4724130000000 1.0
C      1  0.4460790000000  0.5158770000000  0.4303610000000 1.0
C      1  0.5120360000000  0.6031410000000  0.4663560000000 1.0
C      1  0.5037850000000  0.5935330000000  0.5088850000000 1.0
C      1  0.4559960000000  0.5961230000000  0.4924890000000 1.0
C      1  0.5905190000000  0.5069910000000  0.5337020000000 1.0
C      1  0.4780630000000  0.4139900000000  0.5311520000000 1.0
C      1  0.5710620000000  0.4193520000000  0.4688370000000 1.0
C      1  0.4449800000000  0.4822410000000  0.4869910000000 1.0
C      1  0.5323070000000  0.5231850000000  0.4461300000000 1.0
C      1  0.4541730000000  0.4120320000000  0.4855270000000 1.0
C      1  0.4933200000000  0.5094630000000  0.5327100000000 1.0
C      1  0.4670720000000  0.5920210000000  0.5422360000000 1.0
C      1  0.5124030000000  0.4319490000000  0.5102300000000 1.0
C      1  0.5283590000000  0.5727140000000  0.4365970000000 1.0
C      1  0.5506540000000  0.4594200000000  0.5340770000000 1.0
C      1  0.5802570000000  0.4193680000000  0.4961370000000 1.0
C      1  0.4577900000000  0.4347340000000  0.4071890000000 1.0
C      1  0.5092450000000  0.5136230000000  0.4881190000000 1.0
C      1  0.4939690000000  0.4439720000000  0.4892120000000 1.0
C      1  0.4401790000000  0.5436930000000  0.4390120000000 1.0
C      1  0.5291970000000  0.5568290000000  0.4828430000000 1.0
C      1  0.5644650000000  0.5455080000000  0.4469790000000 1.0
C      1  0.5729620000000  0.5476340000000  0.5516670000000 1.0
C      1  0.4959520000000  0.4015780000000  0.4618840000000 1.0
C      1  0.5277100000000  0.4903140000000  0.4900180000000 1.0
C      1  0.5236790000000  0.4944300000000  0.4422440000000 1.0
C      1  0.5080170000000  0.5337950000000  0.4113480000000 1.0
C      1  0.5278090000000  0.4843490000000  0.5998200000000 1.0
C      1  0.5475230000000  0.5017930000000  0.5073570000000 1.0
C      1  0.5291530000000  0.5537810000000  0.4149680000000 1.0
C      1  0.4289520000000  0.5930740000000  0.4994400000000 1.0
C      1  0.5182490000000  0.5132530000000  0.5985430000000 1.0
C      1  0.4656730000000  0.4948670000000  0.5016330000000 1.0
C      1  0.4790290000000  0.5606750000000  0.4803660000000 1.0
C      1  0.5215300000000  0.6161650000000  0.5012920000000 1.0
C      1  0.4239250000000  0.4965580000000  0.4339850000000 1.0
C      1  0.4998810000000  0.4455370000000  0.4603780000000 1.0
C      1  0.4751490000000  0.4689180000000  0.5297610000000 1.0
C      1  0.5772110000000  0.4479830000000  0.5085480000000 1.0
C      1  0.4184740000000  0.4804740000000  0.4990190000000 1.0
C      1  0.5125420000000  0.4014000000000  0.5612200000000 1.0
C      1  0.5064530000000  0.5905100000000  0.4412290000000 1.0
C      1  0.5219970000000  0.3950040000000  0.5024200000000 1.0
C      1  0.5355360000000  0.4777110000000  0.4642870000000 1.0
C      1  0.4145240000000  0.4352560000000  0.5096890000000 1.0
C      1  0.4294310000000  0.5453540000000  0.4650880000000 1.0
C      1  0.5668540000000  0.4544600000000  0.5575870000000 1.0
C      1  0.5983580000000  0.4938530000000  0.5072170000000 1.0
C      1  0.5171990000000  0.5766820000000  0.5286580000000 1.0
C      1  0.4271670000000  0.4738040000000  0.5362430000000 1.0
C      1  0.4868380000000  0.5062930000000  0.5762950000000 1.0
C      1  0.4546900000000  0.4850190000000  0.5457550000000 1.0
C      1  0.4731070000000  0.5436480000000  0.5950800000000 1.0
C      1  0.4912310000000  0.3938730000000  0.5103810000000 1.0
C      1  0.4294180000000  0.5721330000000  0.5183550000000 1.0
C      1  0.5338130000000  0.5350090000000  0.5794020000000 1.0
C      1  0.4543860000000  0.5240390000000  0.5108740000000 1.0
C      1  0.5784310000000  0.4963490000000  0.4488500000000 1.0
C      1  0.5396560000000  0.4348370000000  0.4992850000000 1.0
C      1  0.5146560000000  0.5075700000000  0.3997100000000 1.0
C      1  0.4780570000000  0.5818020000000  0.4421510000000 1.0
C      1  0.5274260000000  0.4608050000000  0.4084990000000 1.0
C      1  0.5770400000000  0.5433560000000  0.5034490000000 1.0
C      1  0.4630080000000  0.4684040000000  0.5948360000000 1.0
C      1  0.4882310000000  0.4934590000000  0.4072320000000 1.0
C      1  0.5269980000000  0.4256540000000  0.5612060000000 1.0
C      1  0.4631200000000  0.5927560000000  0.4647220000000 1.0
C      1  0.4914050000000  0.4908570000000  0.4380340000000 1.0
C      1  0.4168220000000  0.5461970000000  0.5147340000000 1.0
C      1  0.5591360000000  0.5857940000000  0.5181330000000 1.0
C      1  0.5549350000000  0.4812310000000  0.5943020000000 1.0
C      1  0.4881050000000  0.5192120000000  0.6050550000000 1.0
C      1  0.4536720000000  0.4541580000000  0.4285000000000 1.0
C      1  0.4627040000000  0.5148130000000  0.5398820000000 1.0
C      1  0.4991290000000  0.4563870000000  0.4078860000000 1.0
C      1  0.5419960000000  0.4252940000000  0.4713190000000 1.0
C      1  0.5217450000000  0.4454300000000  0.5383840000000 1.0
C      1  0.5857020000000  0.4712280000000  0.4625640000000 1.0
C      1  0.4598820000000  0.4905280000000  0.5773060000000 1.0
C      1  0.4616070000000  0.4416050000000  0.5229220000000 1.0
C      1  0.5666250000000  0.5006170000000  0.5526500000000 1.0
C      1  0.4367240000000  0.4156440000000  0.4610970000000 1.0
C      1  0.4780730000000  0.4629060000000  0.4469450000000 1.0
C      1  0.5575990000000  0.5719130000000  0.5464020000000 1.0
C      1  0.5698480000000  0.5710590000000  0.4945700000000 1.0
C      1  0.4750970000000  0.5995570000000  0.5147500000000 1.0
C      1  0.5668280000000  0.4862500000000  0.4231220000000 1.0
C      1  0.4410490000000  0.5489640000000  0.5571220000000 1.0
C      1  0.5555220000000  0.4114930000000  0.5124530000000 1.0
C      1  0.4071590000000  0.5050170000000  0.4840840000000 1.0
C      1  0.4532670000000  0.4588340000000  0.4725820000000 1.0
C      1  0.5424390000000  0.4452920000000  0.4282690000000 1.0
C      1  0.5598740000000  0.5263560000000  0.5669430000000 1.0
C      1  0.5297050000000  0.4487660000000  0.4555470000000 1.0
C      1  0.4758530000000  0.5122680000000  0.4556600000000 1.0
C      1  0.4120700000000  0.5019930000000  0.5701810000000 1.0
C      1  0.6129920000000  0.5114090000000  0.4909340000000 1.0
C      1  0.4865990000000  0.4300140000000  0.4110350000000 1.0
C      1  0.4851210000000  0.5001550000000  0.4809160000000 1.0
C      1  0.5706780000000  0.4782610000000  0.5716050000000 1.0
C      1  0.5016060000000  0.4671190000000  0.5441490000000 1.0
C      1  0.5136070000000  0.5429960000000  0.5572630000000 1.0
C      1  0.4225420000000  0.5331650000000  0.5404440000000 1.0
C      1  0.5156770000000  0.5345020000000  0.4673860000000 1.0
C      1  0.4652080000000  0.5144470000000  0.4063000000000 1.0
C      1  0.4527990000000  0.4105640000000  0.4368240000000 1.0
C      1  0.4797740000000  0.5402650000000  0.4077150000000 1.0
C      1  0.4433730000000  0.5749740000000  0.5436030000000 1.0
C      1  0.5288220000000  0.4382610000000  0.5862010000000 1.0
C      1  0.5526720000000  0.5682930000000  0.4666040000000 1.0
C      1  0.4276380000000  0.4452060000000  0.4634280000000 1.0
C      1  0.4780900000000  0.4277180000000  0.5788850000000 1.0
C      1  0.5359670000000  0.4887990000000  0.4147440000000 1.0
C      1  0.4840930000000  0.4509540000000  0.5931000000000 1.0
C      1  0.4830920000000  0.5370840000000  0.5647280000000 1.0
C      1  0.4075490000000  0.5003200000000  0.4563400000000 1.0
END
