TITL C-950527-2551-373 7.64953475610752e-08 125000 -213.750552282495 0 0 36 (C1) n - 1
REM
REM in /home/bkarasulu/work/CARBON/AIRSS/Generating-Clusters/EDIP-Nigel-Params/with-SteepDescent/Only-C1/SD-CG/HFTN-CG
REM
REM
REM
REM
REM
REM ./C.cell (11c1c37f851c82e70ff6c80c92926a4b)
REM
REM compiler GCC version 9.2.1 20190827 (Red Hat 9.2.1-1)
REM options -cpp -mtune=generic -march=x86-64 -g -O0 -fpre-include=/usr/include/finclude/math-vector-fortran.h
REM seed 895599473 297399491 816109584 -2122812622 2116794207 -274475115 1424447503 -1560905875 1553642533 1842486951 -552732009 -618231649 1213760303 -25248756 1130629022 -1191483934 -382996412 -704373189 -481292859 1856397912 -1371616842 -248766727 -496909885 1268428354 1938554927 1984934140 -1227512926 -1206095518 -1094529311 -2026052848 754014456 -1670366489 2120970773
REM
CELL 1.54180   50.00000   50.00000   50.00000   90.00000   90.00000   90.00000
LATT -1
SFAC C  
C      1  0.4742840000000  0.4733530000000  0.5360890000000 1.0
C      1  0.4999000000000  0.5546240000000  0.4737060000000 1.0
C      1  0.4940300000000  0.4656440000000  0.4624350000000 1.0
C      1  0.5101880000000  0.4473150000000  0.5017240000000 1.0
C      1  0.5140990000000  0.4950100000000  0.5011220000000 1.0
C      1  0.4284590000000  0.5021260000000  0.5186550000000 1.0
C      1  0.4476700000000  0.5352890000000  0.4906630000000 1.0
C      1  0.5217800000000  0.5375040000000  0.4597100000000 1.0
C      1  0.5574870000000  0.4574990000000  0.4874870000000 1.0
C      1  0.5015740000000  0.5151540000000  0.4542990000000 1.0
C      1  0.5208650000000  0.4503200000000  0.4541630000000 1.0
C      1  0.5018670000000  0.4688040000000  0.5411720000000 1.0
C      1  0.5121180000000  0.4913130000000  0.4679730000000 1.0
C      1  0.5111360000000  0.5153630000000  0.5546620000000 1.0
C      1  0.4842020000000  0.4569020000000  0.4889820000000 1.0
C      1  0.5059410000000  0.5603400000000  0.5001440000000 1.0
C      1  0.4637690000000  0.4948670000000  0.5535580000000 1.0
C      1  0.5632530000000  0.5069240000000  0.4798150000000 1.0
C      1  0.4510800000000  0.5336560000000  0.5198980000000 1.0
C      1  0.5187160000000  0.4698730000000  0.5183800000000 1.0
C      1  0.5348860000000  0.4779290000000  0.4507810000000 1.0
C      1  0.4793850000000  0.5307610000000  0.4698080000000 1.0
C      1  0.4864840000000  0.5047210000000  0.5045140000000 1.0
C      1  0.5442800000000  0.5298420000000  0.4772310000000 1.0
C      1  0.4842400000000  0.5137700000000  0.5621820000000 1.0
C      1  0.5608540000000  0.4788840000000  0.4646650000000 1.0
C      1  0.4388140000000  0.5064030000000  0.5444970000000 1.0
C      1  0.5009860000000  0.5481560000000  0.5246100000000 1.0
C      1  0.4802270000000  0.5253340000000  0.5259160000000 1.0
C      1  0.5319750000000  0.4411900000000  0.4811720000000 1.0
C      1  0.5232180000000  0.5313320000000  0.5346680000000 1.0
C      1  0.4430730000000  0.4891660000000  0.4971410000000 1.0
C      1  0.4474020000000  0.5101180000000  0.4773010000000 1.0
C      1  0.5339340000000  0.5155470000000  0.5113090000000 1.0
C      1  0.4705020000000  0.4795690000000  0.5064860000000 1.0
C      1  0.5573220000000  0.4854000000000  0.5030820000000 1.0
END
