TITL C-950534-5965-248 -1.40707133166998e-08 125000 -548.048796299819 0 0 89 (C1) n - 1
REM
REM in /home/bkarasulu/work/CARBON/AIRSS/Generating-Clusters/EDIP-Nigel-Params/with-SteepDescent/Only-C1/SD-CG/HFTN-CG
REM
REM
REM
REM
REM
REM ./C.cell (11c1c37f851c82e70ff6c80c92926a4b)
REM
REM compiler GCC version 9.2.1 20190827 (Red Hat 9.2.1-1)
REM options -cpp -mtune=generic -march=x86-64 -g -O0 -fpre-include=/usr/include/finclude/math-vector-fortran.h
REM seed 2125557298 766440039 372112004 1739851005 -1481771302 797409034 1142438213 -1197742044 -1023144047 -1698380321 1735623748 -858533633 -469302305 742257415 -186820502 1999792339 -1324330074 -600334791 -2036552900 -370075140 -739077499 1061768679 701411446 -1913254931 1717303442 -2116318659 -383058719 -1747269264 -1225420760 -345663001 1552784381 1316604408 51701301
REM
CELL 1.54180   50.00000   50.00000   50.00000   90.00000   90.00000   90.00000
LATT -1
SFAC C  
C      1  0.4780070000000  0.4287320000000  0.5520690000000 1.0
C      1  0.5867490000000  0.4700540000000  0.4887350000000 1.0
C      1  0.5132570000000  0.5082540000000  0.4739900000000 1.0
C      1  0.5282520000000  0.4763360000000  0.5934980000000 1.0
C      1  0.4309900000000  0.4556440000000  0.5041710000000 1.0
C      1  0.4590770000000  0.5432280000000  0.4886210000000 1.0
C      1  0.5062490000000  0.4313210000000  0.5360940000000 1.0
C      1  0.4217320000000  0.5268950000000  0.4551280000000 1.0
C      1  0.4567730000000  0.4650280000000  0.4508210000000 1.0
C      1  0.4481600000000  0.5329580000000  0.4634820000000 1.0
C      1  0.5028400000000  0.4339070000000  0.5063920000000 1.0
C      1  0.4641160000000  0.4951090000000  0.5154590000000 1.0
C      1  0.4965960000000  0.5288780000000  0.4590080000000 1.0
C      1  0.5964820000000  0.4970800000000  0.4827480000000 1.0
C      1  0.5309080000000  0.4450450000000  0.4659050000000 1.0
C      1  0.4983700000000  0.5035010000000  0.5495680000000 1.0
C      1  0.5222730000000  0.5604220000000  0.5153720000000 1.0
C      1  0.4705470000000  0.4236040000000  0.4691570000000 1.0
C      1  0.4817980000000  0.5697210000000  0.5357500000000 1.0
C      1  0.4782400000000  0.4437950000000  0.4919970000000 1.0
C      1  0.5449070000000  0.5046530000000  0.5384720000000 1.0
C      1  0.4692150000000  0.5448580000000  0.5452610000000 1.0
C      1  0.5068380000000  0.5359600000000  0.4166340000000 1.0
C      1  0.5684650000000  0.5236150000000  0.5457610000000 1.0
C      1  0.5479620000000  0.4764290000000  0.5721750000000 1.0
C      1  0.4890190000000  0.4875080000000  0.4191620000000 1.0
C      1  0.4641390000000  0.5246080000000  0.4192610000000 1.0
C      1  0.5119220000000  0.5254830000000  0.5843890000000 1.0
C      1  0.4912060000000  0.5671050000000  0.4559150000000 1.0
C      1  0.5283010000000  0.4429740000000  0.4948960000000 1.0
C      1  0.5236630000000  0.5450020000000  0.5575610000000 1.0
C      1  0.4580890000000  0.4593800000000  0.5131350000000 1.0
C      1  0.4158510000000  0.4960000000000  0.5328470000000 1.0
C      1  0.5647450000000  0.5390960000000  0.5042620000000 1.0
C      1  0.4249040000000  0.5010560000000  0.4433500000000 1.0
C      1  0.5842580000000  0.5255850000000  0.5207170000000 1.0
C      1  0.5189590000000  0.5208960000000  0.5380790000000 1.0
C      1  0.5527270000000  0.4861160000000  0.4547290000000 1.0
C      1  0.5138260000000  0.4765440000000  0.5085050000000 1.0
C      1  0.4554750000000  0.5014080000000  0.5624160000000 1.0
C      1  0.5381490000000  0.5427810000000  0.4610540000000 1.0
C      1  0.4851450000000  0.4660690000000  0.4705160000000 1.0
C      1  0.5101060000000  0.5695370000000  0.5424610000000 1.0
C      1  0.5778770000000  0.5129660000000  0.4654940000000 1.0
C      1  0.5279600000000  0.5246620000000  0.4358640000000 1.0
C      1  0.4331300000000  0.4797450000000  0.4619700000000 1.0
C      1  0.5649770000000  0.5387650000000  0.4748930000000 1.0
C      1  0.4895470000000  0.5140810000000  0.4053570000000 1.0
C      1  0.4630890000000  0.4731780000000  0.5638690000000 1.0
C      1  0.5192910000000  0.5661160000000  0.4667220000000 1.0
C      1  0.5532300000000  0.4402410000000  0.5114560000000 1.0
C      1  0.4714530000000  0.5696250000000  0.4800160000000 1.0
C      1  0.4150930000000  0.5272140000000  0.4988700000000 1.0
C      1  0.4806900000000  0.5215900000000  0.5001930000000 1.0
C      1  0.5093770000000  0.5316940000000  0.5112880000000 1.0
C      1  0.4812690000000  0.4668060000000  0.5854290000000 1.0
C      1  0.4435680000000  0.5003160000000  0.4193370000000 1.0
C      1  0.4867160000000  0.5554210000000  0.4273240000000 1.0
C      1  0.4257240000000  0.4791550000000  0.4901160000000 1.0
C      1  0.4522790000000  0.4357600000000  0.4496420000000 1.0
C      1  0.5076920000000  0.4603720000000  0.5510890000000 1.0
C      1  0.5946130000000  0.5009110000000  0.5113070000000 1.0
C      1  0.4692770000000  0.5212770000000  0.4489380000000 1.0
C      1  0.5442430000000  0.4370630000000  0.5387760000000 1.0
C      1  0.5658730000000  0.4670170000000  0.5087650000000 1.0
C      1  0.5426780000000  0.5030360000000  0.4803630000000 1.0
C      1  0.5365030000000  0.4629150000000  0.5489670000000 1.0
C      1  0.5125970000000  0.4741890000000  0.4292800000000 1.0
C      1  0.4929540000000  0.4797430000000  0.5315880000000 1.0
C      1  0.4356150000000  0.5449840000000  0.5072150000000 1.0
C      1  0.4618970000000  0.4768970000000  0.4234460000000 1.0
C      1  0.5062620000000  0.4529150000000  0.4514040000000 1.0
C      1  0.5029630000000  0.4880090000000  0.5853800000000 1.0
C      1  0.5537060000000  0.5494310000000  0.5498010000000 1.0
C      1  0.4970800000000  0.4886050000000  0.4872960000000 1.0
C      1  0.4888510000000  0.4396450000000  0.5778010000000 1.0
C      1  0.4606360000000  0.4516020000000  0.5430100000000 1.0
C      1  0.4431960000000  0.5068650000000  0.5360990000000 1.0
C      1  0.5540990000000  0.4576480000000  0.4577490000000 1.0
C      1  0.4437250000000  0.5366300000000  0.5339970000000 1.0
C      1  0.4860510000000  0.5823880000000  0.5015800000000 1.0
C      1  0.5149370000000  0.5788540000000  0.4935720000000 1.0
C      1  0.5404500000000  0.5084360000000  0.5761800000000 1.0
C      1  0.5437540000000  0.4883960000000  0.5092410000000 1.0
C      1  0.5346520000000  0.4941700000000  0.4330330000000 1.0
C      1  0.5513650000000  0.5583200000000  0.5209000000000 1.0
C      1  0.4895020000000  0.4280430000000  0.4458540000000 1.0
C      1  0.4782590000000  0.5222170000000  0.5648120000000 1.0
C      1  0.4120120000000  0.4999130000000  0.5051890000000 1.0
END
