TITL C-951334-9093-4 -3.67118096996735e-06 125000 -1030.9155765538 0 0 163 (C1) n - 1
REM
REM in /home/bkarasulu/work/CARBON/AIRSS/Generating-Clusters/EDIP-Nigel-Params/with-SteepDescent/Only-C1/SD-CG/HFTN-CG
REM
REM
REM
REM
REM
REM ./C.cell (11c1c37f851c82e70ff6c80c92926a4b)
REM
REM compiler GCC version 9.2.1 20190827 (Red Hat 9.2.1-1)
REM options -cpp -mtune=generic -march=x86-64 -g -O0 -fpre-include=/usr/include/finclude/math-vector-fortran.h
REM seed -539905098 -143234316 -174816512 -841292447 151403489 2103302828 522291336 997457708 183611724 1676540280 -1964606246 343506895 1695427353 1394410078 74427779 1122910494 -1069046420 1750676466 -281294390 102416630 -1373723835 265806087 -1193447955 -640480820 -1275996349 -431240265 2117286192 -205428295 -1437127788 -597118159 1113723510 -1388190956 1862306524
REM
CELL 1.54180   50.00000   50.00000   50.00000   90.00000   90.00000   90.00000
LATT -1
SFAC C  
C      1  0.4048430000000  0.5495670000000  0.5325040000000 1.0
C      1  0.4549350000000  0.6000730000000  0.4954000000000 1.0
C      1  0.5934880000000  0.4738950000000  0.5300720000000 1.0
C      1  0.4424810000000  0.5978350000000  0.4706520000000 1.0
C      1  0.5198930000000  0.4485620000000  0.5836700000000 1.0
C      1  0.4318330000000  0.5297040000000  0.5739890000000 1.0
C      1  0.4730350000000  0.5221390000000  0.6072230000000 1.0
C      1  0.5182360000000  0.5689360000000  0.4291180000000 1.0
C      1  0.4664460000000  0.4612860000000  0.5290250000000 1.0
C      1  0.5290170000000  0.5178910000000  0.4472730000000 1.0
C      1  0.5355310000000  0.5751630000000  0.5448790000000 1.0
C      1  0.5446380000000  0.4657350000000  0.5349820000000 1.0
C      1  0.5144350000000  0.4092920000000  0.4362130000000 1.0
C      1  0.4584580000000  0.4980030000000  0.6006350000000 1.0
C      1  0.5760560000000  0.5329240000000  0.4483350000000 1.0
C      1  0.4451650000000  0.4390930000000  0.5744390000000 1.0
C      1  0.4607780000000  0.4829670000000  0.5550140000000 1.0
C      1  0.4106560000000  0.4629730000000  0.5143020000000 1.0
C      1  0.4961370000000  0.4452290000000  0.4866030000000 1.0
C      1  0.4767200000000  0.4041690000000  0.5164240000000 1.0
C      1  0.4337710000000  0.5100030000000  0.4205400000000 1.0
C      1  0.5067100000000  0.4057670000000  0.5088370000000 1.0
C      1  0.5236530000000  0.5139370000000  0.4997630000000 1.0
C      1  0.4555320000000  0.5515330000000  0.5353300000000 1.0
C      1  0.5205050000000  0.4814200000000  0.5434340000000 1.0
C      1  0.4114670000000  0.5762040000000  0.5400660000000 1.0
C      1  0.5213230000000  0.4383120000000  0.4383200000000 1.0
C      1  0.6106510000000  0.4648650000000  0.5074230000000 1.0
C      1  0.5519000000000  0.4621190000000  0.4042080000000 1.0
C      1  0.5612510000000  0.5103890000000  0.4079650000000 1.0
C      1  0.5804650000000  0.4482870000000  0.4781970000000 1.0
C      1  0.5937190000000  0.5089220000000  0.4875320000000 1.0
C      1  0.5156590000000  0.6048940000000  0.5118630000000 1.0
C      1  0.5053210000000  0.4607510000000  0.5575530000000 1.0
C      1  0.5591700000000  0.5759780000000  0.5608120000000 1.0
C      1  0.4963010000000  0.5962540000000  0.4641940000000 1.0
C      1  0.4575880000000  0.4798990000000  0.4587330000000 1.0
C      1  0.4980550000000  0.5242580000000  0.5109310000000 1.0
C      1  0.4696550000000  0.5761720000000  0.4981530000000 1.0
C      1  0.4669100000000  0.5258930000000  0.4650480000000 1.0
C      1  0.5144740000000  0.4932300000000  0.3971140000000 1.0
C      1  0.4542830000000  0.5836730000000  0.4246940000000 1.0
C      1  0.5607990000000  0.4564990000000  0.5598850000000 1.0
C      1  0.5058440000000  0.5231890000000  0.4279760000000 1.0
C      1  0.5237770000000  0.5303600000000  0.4749170000000 1.0
C      1  0.4323590000000  0.5026710000000  0.5875640000000 1.0
C      1  0.5088020000000  0.4365480000000  0.5132710000000 1.0
C      1  0.4499140000000  0.5292090000000  0.5104890000000 1.0
C      1  0.4084790000000  0.5567840000000  0.4790110000000 1.0
C      1  0.5236520000000  0.3993020000000  0.5528680000000 1.0
C      1  0.5247720000000  0.4715410000000  0.6025060000000 1.0
C      1  0.4116730000000  0.5277500000000  0.5516850000000 1.0
C      1  0.4973570000000  0.4109050000000  0.5582770000000 1.0
C      1  0.4709690000000  0.5093940000000  0.5478240000000 1.0
C      1  0.5160230000000  0.5292640000000  0.5586520000000 1.0
C      1  0.5648430000000  0.4760400000000  0.4863450000000 1.0
C      1  0.5040160000000  0.5195790000000  0.3896570000000 1.0
C      1  0.5441240000000  0.4437800000000  0.4220520000000 1.0
C      1  0.5872170000000  0.5007710000000  0.4203090000000 1.0
C      1  0.5063230000000  0.5396520000000  0.5835860000000 1.0
C      1  0.5981880000000  0.4387410000000  0.5005540000000 1.0
C      1  0.5050380000000  0.5520880000000  0.5171600000000 1.0
C      1  0.5538730000000  0.5754410000000  0.4966910000000 1.0
C      1  0.4258870000000  0.4192710000000  0.5345960000000 1.0
C      1  0.5186550000000  0.4847720000000  0.4951230000000 1.0
C      1  0.4708550000000  0.4825300000000  0.5070920000000 1.0
C      1  0.5294990000000  0.4875970000000  0.4500910000000 1.0
C      1  0.4379590000000  0.4874300000000  0.4792770000000 1.0
C      1  0.4787050000000  0.5504020000000  0.5814190000000 1.0
C      1  0.4260550000000  0.5361020000000  0.4340550000000 1.0
C      1  0.4390940000000  0.4280630000000  0.4931010000000 1.0
C      1  0.4915770000000  0.4752280000000  0.4858680000000 1.0
C      1  0.4600170000000  0.5344130000000  0.5608010000000 1.0
C      1  0.4709380000000  0.4425630000000  0.4335250000000 1.0
C      1  0.4654230000000  0.4305630000000  0.5056650000000 1.0
C      1  0.4792370000000  0.5697000000000  0.5252710000000 1.0
C      1  0.5004800000000  0.4792800000000  0.4482200000000 1.0
C      1  0.6087130000000  0.4828580000000  0.4838550000000 1.0
C      1  0.4427980000000  0.5208070000000  0.4815310000000 1.0
C      1  0.5722620000000  0.5533300000000  0.5031830000000 1.0
C      1  0.4658690000000  0.4513250000000  0.5895530000000 1.0
C      1  0.4697520000000  0.4814090000000  0.3969670000000 1.0
C      1  0.5798310000000  0.4856900000000  0.4456060000000 1.0
C      1  0.5506410000000  0.4234500000000  0.4808590000000 1.0
C      1  0.4890490000000  0.5696270000000  0.4766530000000 1.0
C      1  0.5655510000000  0.4803280000000  0.5780670000000 1.0
C      1  0.3963480000000  0.5128060000000  0.4986610000000 1.0
C      1  0.4634980000000  0.5051770000000  0.4448550000000 1.0
C      1  0.4224120000000  0.4529970000000  0.4889140000000 1.0
C      1  0.5823680000000  0.4280770000000  0.5237820000000 1.0
C      1  0.4725830000000  0.5109290000000  0.5185420000000 1.0
C      1  0.5014100000000  0.5183220000000  0.6029910000000 1.0
C      1  0.5365560000000  0.4442300000000  0.5172420000000 1.0
C      1  0.4457320000000  0.4603510000000  0.4386490000000 1.0
C      1  0.5476620000000  0.5283410000000  0.5196370000000 1.0
C      1  0.5254280000000  0.5019120000000  0.5639480000000 1.0
C      1  0.5419210000000  0.5558020000000  0.4214660000000 1.0
C      1  0.4956810000000  0.4704060000000  0.4006500000000 1.0
C      1  0.5654440000000  0.4816090000000  0.5193480000000 1.0
C      1  0.5978390000000  0.5253380000000  0.4312750000000 1.0
C      1  0.4725220000000  0.4042270000000  0.5454200000000 1.0
C      1  0.5652110000000  0.5080180000000  0.5359790000000 1.0
C      1  0.4721930000000  0.6061630000000  0.5355950000000 1.0
C      1  0.5005210000000  0.6065490000000  0.5365740000000 1.0
C      1  0.5836000000000  0.5654960000000  0.5614380000000 1.0
C      1  0.5740700000000  0.5080180000000  0.4657860000000 1.0
C      1  0.4592850000000  0.5925550000000  0.5574250000000 1.0
C      1  0.5443810000000  0.4094200000000  0.5682890000000 1.0
C      1  0.4387810000000  0.5734230000000  0.5475260000000 1.0
C      1  0.4915430000000  0.4430280000000  0.5381410000000 1.0
C      1  0.4738430000000  0.5548620000000  0.4087900000000 1.0
C      1  0.5077280000000  0.4922060000000  0.5887870000000 1.0
C      1  0.5376820000000  0.3941340000000  0.4425630000000 1.0
C      1  0.5462490000000  0.4359470000000  0.5765030000000 1.0
C      1  0.4127120000000  0.4855450000000  0.4611490000000 1.0
C      1  0.5155660000000  0.5578940000000  0.4869240000000 1.0
C      1  0.4121750000000  0.4999210000000  0.5441330000000 1.0
C      1  0.4937380000000  0.5507900000000  0.4313060000000 1.0
C      1  0.3989740000000  0.5104320000000  0.4687070000000 1.0
C      1  0.5365750000000  0.4730380000000  0.4753360000000 1.0
C      1  0.4779610000000  0.5513100000000  0.4566880000000 1.0
C      1  0.4304610000000  0.4849710000000  0.5626850000000 1.0
C      1  0.4070720000000  0.4918830000000  0.5173590000000 1.0
C      1  0.5270400000000  0.4436010000000  0.4703360000000 1.0
C      1  0.5390910000000  0.5885680000000  0.5180080000000 1.0
C      1  0.4933710000000  0.4044030000000  0.4565240000000 1.0
C      1  0.4484910000000  0.4200750000000  0.5520720000000 1.0
C      1  0.4625560000000  0.5964950000000  0.4492920000000 1.0
C      1  0.4971110000000  0.4562650000000  0.4286050000000 1.0
C      1  0.4576830000000  0.5067730000000  0.4009550000000 1.0
C      1  0.4719970000000  0.4250220000000  0.4566560000000 1.0
C      1  0.3997650000000  0.5420310000000  0.5045110000000 1.0
C      1  0.4196130000000  0.5816790000000  0.4721300000000 1.0
C      1  0.5981380000000  0.4668220000000  0.4596030000000 1.0
C      1  0.5393230000000  0.3972230000000  0.4706790000000 1.0
C      1  0.5434030000000  0.5790410000000  0.4697990000000 1.0
C      1  0.5112560000000  0.3983150000000  0.4797460000000 1.0
C      1  0.4832420000000  0.5779030000000  0.5681420000000 1.0
C      1  0.6005650000000  0.5479190000000  0.5508090000000 1.0
C      1  0.4186670000000  0.5330090000000  0.4640040000000 1.0
C      1  0.6024710000000  0.4998620000000  0.5433260000000 1.0
C      1  0.5528260000000  0.4207890000000  0.5130940000000 1.0
C      1  0.5902650000000  0.5303500000000  0.5075040000000 1.0
C      1  0.5433190000000  0.4882550000000  0.3994900000000 1.0
C      1  0.4761510000000  0.5287980000000  0.3934890000000 1.0
C      1  0.5314190000000  0.3978080000000  0.5246440000000 1.0
C      1  0.5863630000000  0.4485400000000  0.5461920000000 1.0
C      1  0.5280100000000  0.5462870000000  0.5371950000000 1.0
C      1  0.5044850000000  0.6128080000000  0.4868670000000 1.0
C      1  0.4381270000000  0.5598460000000  0.4223020000000 1.0
C      1  0.4881870000000  0.5001540000000  0.4323440000000 1.0
C      1  0.5220210000000  0.5873300000000  0.4513700000000 1.0
C      1  0.4150950000000  0.4455950000000  0.5381400000000 1.0
C      1  0.4277790000000  0.4414980000000  0.4526850000000 1.0
C      1  0.6040660000000  0.5269260000000  0.5328790000000 1.0
C      1  0.4226730000000  0.4562970000000  0.5649660000000 1.0
C      1  0.4739950000000  0.4784020000000  0.5830830000000 1.0
C      1  0.5551980000000  0.5039370000000  0.5644840000000 1.0
C      1  0.4440430000000  0.4211850000000  0.4654720000000 1.0
C      1  0.5523290000000  0.4772940000000  0.6027920000000 1.0
C      1  0.5519490000000  0.5303570000000  0.4306620000000 1.0
C      1  0.5097330000000  0.5878660000000  0.5568870000000 1.0
C      1  0.4224220000000  0.4841040000000  0.4320770000000 1.0
END
