TITL C-951341-1326-680 -6.09008311341511e-07 125000 -928.397477798219 0 0 146 (C1) n - 1
REM
REM in /home/bkarasulu/work/CARBON/AIRSS/Generating-Clusters/EDIP-Nigel-Params/with-SteepDescent/Only-C1/SD-CG/HFTN-CG
REM
REM
REM
REM
REM
REM ./C.cell (11c1c37f851c82e70ff6c80c92926a4b)
REM
REM compiler GCC version 9.2.1 20190827 (Red Hat 9.2.1-1)
REM options -cpp -mtune=generic -march=x86-64 -g -O0 -fpre-include=/usr/include/finclude/math-vector-fortran.h
REM seed 1747103303 1411350983 -1925662067 -1015314331 1092807301 -2092895902 2018583597 755228504 1398516952 -1248902616 1162868657 -979210676 -1229671809 -319263754 -1556152491 1267036137 -1604589284 786645961 183997626 -830073825 1364920875 1014093677 -2076572372 1882839531 1818705 229322534 169113585 1690193411 -1923175855 1725756784 993404315 -168079585 1061927659
REM
CELL 1.54180   50.00000   50.00000   50.00000   90.00000   90.00000   90.00000
LATT -1
SFAC C  
C      1  0.5869870000000  0.4829390000000  0.4260560000000 1.0
C      1  0.5347600000000  0.5727660000000  0.5127940000000 1.0
C      1  0.4204500000000  0.4615060000000  0.5844890000000 1.0
C      1  0.5097370000000  0.5499900000000  0.4024090000000 1.0
C      1  0.5149210000000  0.4067260000000  0.5092080000000 1.0
C      1  0.5570030000000  0.4899880000000  0.5039510000000 1.0
C      1  0.5573760000000  0.4288450000000  0.4859680000000 1.0
C      1  0.5430460000000  0.5652450000000  0.4356380000000 1.0
C      1  0.4613770000000  0.4455590000000  0.4709260000000 1.0
C      1  0.4575310000000  0.4944750000000  0.5871560000000 1.0
C      1  0.5580660000000  0.5462030000000  0.5760020000000 1.0
C      1  0.5652630000000  0.5281190000000  0.4458190000000 1.0
C      1  0.4439570000000  0.5983570000000  0.4987750000000 1.0
C      1  0.5169880000000  0.4752180000000  0.4036610000000 1.0
C      1  0.5074600000000  0.4233260000000  0.5766510000000 1.0
C      1  0.4666490000000  0.4509900000000  0.5790050000000 1.0
C      1  0.4653380000000  0.5608930000000  0.4396210000000 1.0
C      1  0.5000090000000  0.4698000000000  0.6014780000000 1.0
C      1  0.4158680000000  0.5172810000000  0.5245910000000 1.0
C      1  0.4975230000000  0.5214380000000  0.5418860000000 1.0
C      1  0.4874860000000  0.5602360000000  0.4628710000000 1.0
C      1  0.5307240000000  0.5356070000000  0.5811870000000 1.0
C      1  0.5749760000000  0.4966160000000  0.5724030000000 1.0
C      1  0.5255280000000  0.5339330000000  0.5336230000000 1.0
C      1  0.4199690000000  0.5534920000000  0.4437540000000 1.0
C      1  0.5286990000000  0.5355920000000  0.5027620000000 1.0
C      1  0.4889740000000  0.4667880000000  0.4043690000000 1.0
C      1  0.4740690000000  0.5170940000000  0.4552470000000 1.0
C      1  0.5666320000000  0.4825640000000  0.4062510000000 1.0
C      1  0.5920480000000  0.4468850000000  0.4556150000000 1.0
C      1  0.5778220000000  0.5255170000000  0.5706220000000 1.0
C      1  0.4807110000000  0.4882420000000  0.4464320000000 1.0
C      1  0.4222020000000  0.4760340000000  0.4388600000000 1.0
C      1  0.4554520000000  0.4358840000000  0.5013540000000 1.0
C      1  0.4874740000000  0.5866070000000  0.5087040000000 1.0
C      1  0.4827360000000  0.4128220000000  0.5668170000000 1.0
C      1  0.5759170000000  0.5602850000000  0.5290440000000 1.0
C      1  0.4401480000000  0.5710950000000  0.4521410000000 1.0
C      1  0.4626210000000  0.4738400000000  0.4646940000000 1.0
C      1  0.4220430000000  0.4767860000000  0.4856050000000 1.0
C      1  0.4193130000000  0.4547360000000  0.4601630000000 1.0
C      1  0.4263980000000  0.4913400000000  0.5338360000000 1.0
C      1  0.5044180000000  0.5527560000000  0.5781470000000 1.0
C      1  0.4569110000000  0.5165760000000  0.4799970000000 1.0
C      1  0.5211020000000  0.5029430000000  0.3962550000000 1.0
C      1  0.4896710000000  0.3959940000000  0.4610620000000 1.0
C      1  0.4853930000000  0.5822360000000  0.5387430000000 1.0
C      1  0.4424810000000  0.4315960000000  0.4521000000000 1.0
C      1  0.4957710000000  0.5839960000000  0.4328960000000 1.0
C      1  0.4714900000000  0.4822580000000  0.5095420000000 1.0
C      1  0.4292660000000  0.5284860000000  0.4345640000000 1.0
C      1  0.5067030000000  0.5220220000000  0.4893280000000 1.0
C      1  0.4307270000000  0.4409500000000  0.5190470000000 1.0
C      1  0.4287390000000  0.5454030000000  0.5664540000000 1.0
C      1  0.4597020000000  0.5309700000000  0.4317280000000 1.0
C      1  0.5366110000000  0.4622770000000  0.5689640000000 1.0
C      1  0.4533940000000  0.5595040000000  0.5693860000000 1.0
C      1  0.5481310000000  0.4392350000000  0.4374490000000 1.0
C      1  0.5717350000000  0.5309240000000  0.5217230000000 1.0
C      1  0.5521920000000  0.5192450000000  0.5422620000000 1.0
C      1  0.5111970000000  0.4524860000000  0.5807460000000 1.0
C      1  0.4992590000000  0.4941850000000  0.4994220000000 1.0
C      1  0.4091930000000  0.5037270000000  0.4772080000000 1.0
C      1  0.4134990000000  0.4910160000000  0.5604070000000 1.0
C      1  0.4714840000000  0.5628000000000  0.4901790000000 1.0
C      1  0.5318140000000  0.5082270000000  0.5930050000000 1.0
C      1  0.5007140000000  0.4952800000000  0.5565270000000 1.0
C      1  0.5012810000000  0.6011500000000  0.4560070000000 1.0
C      1  0.5290570000000  0.4180490000000  0.5566470000000 1.0
C      1  0.4168320000000  0.5250180000000  0.4964640000000 1.0
C      1  0.4886850000000  0.4340490000000  0.4687800000000 1.0
C      1  0.4728810000000  0.5158620000000  0.4081000000000 1.0
C      1  0.5489030000000  0.5076580000000  0.4065240000000 1.0
C      1  0.5499560000000  0.4866190000000  0.5837370000000 1.0
C      1  0.5652430000000  0.5499100000000  0.4277650000000 1.0
C      1  0.4188070000000  0.5552410000000  0.4943450000000 1.0
C      1  0.4665230000000  0.5348990000000  0.5018060000000 1.0
C      1  0.4713940000000  0.6093220000000  0.4971870000000 1.0
C      1  0.4755580000000  0.5435360000000  0.5797420000000 1.0
C      1  0.5438920000000  0.4634220000000  0.4129510000000 1.0
C      1  0.4182840000000  0.4681860000000  0.5147730000000 1.0
C      1  0.4982210000000  0.5320890000000  0.4628850000000 1.0
C      1  0.5074990000000  0.5730810000000  0.5563450000000 1.0
C      1  0.4201390000000  0.5634250000000  0.5225750000000 1.0
C      1  0.5309280000000  0.4523500000000  0.5202830000000 1.0
C      1  0.4677490000000  0.5218080000000  0.5978290000000 1.0
C      1  0.5307860000000  0.5635550000000  0.5410870000000 1.0
C      1  0.4581270000000  0.4954270000000  0.5342210000000 1.0
C      1  0.5011900000000  0.5233970000000  0.4036490000000 1.0
C      1  0.4898760000000  0.5153460000000  0.6134310000000 1.0
C      1  0.5231860000000  0.4240510000000  0.4389220000000 1.0
C      1  0.4804670000000  0.6131980000000  0.4707080000000 1.0
C      1  0.5194050000000  0.4036380000000  0.4603590000000 1.0
C      1  0.4661260000000  0.5259250000000  0.5313300000000 1.0
C      1  0.5520490000000  0.4373240000000  0.5598890000000 1.0
C      1  0.5525030000000  0.4905370000000  0.5347130000000 1.0
C      1  0.5391100000000  0.4683710000000  0.4938190000000 1.0
C      1  0.5203190000000  0.5878090000000  0.4725420000000 1.0
C      1  0.4607620000000  0.4014000000000  0.4665490000000 1.0
C      1  0.5182190000000  0.5693850000000  0.4204600000000 1.0
C      1  0.5731810000000  0.5344720000000  0.4743630000000 1.0
C      1  0.5580160000000  0.5661130000000  0.5537390000000 1.0
C      1  0.4190360000000  0.5041170000000  0.4487430000000 1.0
C      1  0.5302580000000  0.4150810000000  0.4857200000000 1.0
C      1  0.5546240000000  0.5221880000000  0.4962400000000 1.0
C      1  0.5010520000000  0.4462030000000  0.4951040000000 1.0
C      1  0.4628150000000  0.4064170000000  0.4957700000000 1.0
C      1  0.5122060000000  0.4724210000000  0.4838790000000 1.0
C      1  0.4522210000000  0.4880720000000  0.4866510000000 1.0
C      1  0.5969920000000  0.5149800000000  0.4843350000000 1.0
C      1  0.4773830000000  0.4527370000000  0.5124620000000 1.0
C      1  0.5013470000000  0.4435920000000  0.4435900000000 1.0
C      1  0.4718890000000  0.4843270000000  0.5593830000000 1.0
C      1  0.5678680000000  0.4336510000000  0.4589720000000 1.0
C      1  0.4585710000000  0.5780780000000  0.5469670000000 1.0
C      1  0.5905190000000  0.4867070000000  0.4768780000000 1.0
C      1  0.5900420000000  0.4688800000000  0.5018210000000 1.0
C      1  0.4604350000000  0.4160050000000  0.5510750000000 1.0
C      1  0.5968110000000  0.5151250000000  0.5149940000000 1.0
C      1  0.4707060000000  0.4691160000000  0.6009370000000 1.0
C      1  0.5390990000000  0.4775450000000  0.4419440000000 1.0
C      1  0.5955740000000  0.4869080000000  0.5250150000000 1.0
C      1  0.4302090000000  0.5397720000000  0.5376490000000 1.0
C      1  0.5677250000000  0.4381160000000  0.5359640000000 1.0
C      1  0.4422690000000  0.5722250000000  0.4823430000000 1.0
C      1  0.5098090000000  0.4728480000000  0.4524260000000 1.0
C      1  0.4269570000000  0.4903020000000  0.5867050000000 1.0
C      1  0.5461930000000  0.5076180000000  0.4366800000000 1.0
C      1  0.5675880000000  0.5657660000000  0.4789560000000 1.0
C      1  0.4700220000000  0.4862220000000  0.4172040000000 1.0
C      1  0.5636980000000  0.5758860000000  0.5067020000000 1.0
C      1  0.5270730000000  0.4751760000000  0.5432870000000 1.0
C      1  0.4374970000000  0.5866390000000  0.5267540000000 1.0
C      1  0.5048200000000  0.4983050000000  0.5952780000000 1.0
C      1  0.5723580000000  0.4433490000000  0.5083030000000 1.0
C      1  0.5157610000000  0.5902510000000  0.5003750000000 1.0
C      1  0.4882210000000  0.3985030000000  0.5052290000000 1.0
C      1  0.5450560000000  0.5761870000000  0.4619920000000 1.0
C      1  0.5174630000000  0.4261230000000  0.5305080000000 1.0
C      1  0.5960160000000  0.4738950000000  0.4511590000000 1.0
C      1  0.4826850000000  0.4422570000000  0.4196020000000 1.0
C      1  0.4372830000000  0.4320730000000  0.5472800000000 1.0
C      1  0.4412350000000  0.4532930000000  0.5664520000000 1.0
C      1  0.4432730000000  0.4696250000000  0.4187150000000 1.0
C      1  0.5855760000000  0.4796490000000  0.5514370000000 1.0
C      1  0.4527650000000  0.4414010000000  0.4244130000000 1.0
END
