TITL C-951345-2650-403 -2.10722569257372e-06 125000 -698.724281933667 0 0 111 (C1) n - 1
REM
REM in /home/bkarasulu/work/CARBON/AIRSS/Generating-Clusters/EDIP-Nigel-Params/with-SteepDescent/Only-C1/SD-CG/HFTN-CG
REM
REM
REM
REM
REM
REM ./C.cell (11c1c37f851c82e70ff6c80c92926a4b)
REM
REM compiler GCC version 9.2.1 20190827 (Red Hat 9.2.1-1)
REM options -cpp -mtune=generic -march=x86-64 -g -O0 -fpre-include=/usr/include/finclude/math-vector-fortran.h
REM seed 961735778 1268121251 777224664 -1254297102 -84231546 -220295314 -1639854819 -541012626 -416884504 497114212 833639505 -676153165 -1638906076 -2139521708 184077005 895856953 -1003773505 668369951 1491408378 -1350271865 446906992 102640882 1930828931 1715470728 353697800 1202411588 1505828788 1093131170 1560693037 -776476160 -1225136188 -2080746768 -1882101555
REM
CELL 1.54180   50.00000   50.00000   50.00000   90.00000   90.00000   90.00000
LATT -1
SFAC C  
C      1  0.4778220000000  0.5318420000000  0.5855840000000 1.0
C      1  0.5546420000000  0.4427260000000  0.4831480000000 1.0
C      1  0.5516260000000  0.5072530000000  0.5056850000000 1.0
C      1  0.4562550000000  0.4964850000000  0.4185230000000 1.0
C      1  0.4523050000000  0.5628600000000  0.5002970000000 1.0
C      1  0.5966450000000  0.4909560000000  0.5555030000000 1.0
C      1  0.4626510000000  0.4868220000000  0.5023800000000 1.0
C      1  0.5022100000000  0.4217930000000  0.4471740000000 1.0
C      1  0.5086500000000  0.5839020000000  0.5003420000000 1.0
C      1  0.4843530000000  0.4535740000000  0.4762530000000 1.0
C      1  0.5064810000000  0.5319110000000  0.5515370000000 1.0
C      1  0.4762470000000  0.4584200000000  0.5040580000000 1.0
C      1  0.4675540000000  0.4895050000000  0.5635960000000 1.0
C      1  0.5023770000000  0.4584110000000  0.5803760000000 1.0
C      1  0.4793350000000  0.4761640000000  0.4576380000000 1.0
C      1  0.5561940000000  0.5139910000000  0.5538790000000 1.0
C      1  0.5699870000000  0.5335450000000  0.4690720000000 1.0
C      1  0.5869290000000  0.5427500000000  0.4893910000000 1.0
C      1  0.5267950000000  0.4569270000000  0.5603620000000 1.0
C      1  0.5226830000000  0.5767580000000  0.5596390000000 1.0
C      1  0.4739970000000  0.4138740000000  0.5279140000000 1.0
C      1  0.4763220000000  0.4305140000000  0.4599480000000 1.0
C      1  0.5458740000000  0.5520650000000  0.4666350000000 1.0
C      1  0.4765710000000  0.5864140000000  0.4697140000000 1.0
C      1  0.4965320000000  0.5864970000000  0.5551100000000 1.0
C      1  0.4752180000000  0.5230950000000  0.4734100000000 1.0
C      1  0.5249140000000  0.5265230000000  0.5054060000000 1.0
C      1  0.5075560000000  0.4891410000000  0.4125330000000 1.0
C      1  0.4928030000000  0.4230690000000  0.5489930000000 1.0
C      1  0.5620820000000  0.5053660000000  0.4749410000000 1.0
C      1  0.5273620000000  0.4623570000000  0.4962210000000 1.0
C      1  0.5705670000000  0.5185170000000  0.5268070000000 1.0
C      1  0.5456480000000  0.4911940000000  0.4479090000000 1.0
C      1  0.4836190000000  0.5989010000000  0.4979750000000 1.0
C      1  0.5307590000000  0.5953530000000  0.4872200000000 1.0
C      1  0.4396920000000  0.5534770000000  0.5590720000000 1.0
C      1  0.5041220000000  0.4600180000000  0.5181940000000 1.0
C      1  0.4258490000000  0.5536650000000  0.5102670000000 1.0
C      1  0.4172540000000  0.4826340000000  0.4839140000000 1.0
C      1  0.4473060000000  0.5504500000000  0.4532780000000 1.0
C      1  0.5239610000000  0.5122910000000  0.5912810000000 1.0
C      1  0.5586270000000  0.4321420000000  0.5114850000000 1.0
C      1  0.5836210000000  0.4847790000000  0.4820430000000 1.0
C      1  0.4189130000000  0.4572870000000  0.4676200000000 1.0
C      1  0.4736350000000  0.5393510000000  0.4996420000000 1.0
C      1  0.5415610000000  0.5740300000000  0.5380980000000 1.0
C      1  0.5535450000000  0.5629150000000  0.5138470000000 1.0
C      1  0.4278990000000  0.5408180000000  0.5366250000000 1.0
C      1  0.4803240000000  0.4426030000000  0.5673890000000 1.0
C      1  0.5132910000000  0.4141810000000  0.4962140000000 1.0
C      1  0.5315710000000  0.5042460000000  0.4230020000000 1.0
C      1  0.5155610000000  0.4389200000000  0.5379420000000 1.0
C      1  0.4905150000000  0.5737360000000  0.4464720000000 1.0
C      1  0.5665410000000  0.4569560000000  0.5275940000000 1.0
C      1  0.5473590000000  0.4226100000000  0.4622720000000 1.0
C      1  0.5189220000000  0.4869490000000  0.4825000000000 1.0
C      1  0.5450600000000  0.4402510000000  0.4381670000000 1.0
C      1  0.4902010000000  0.5331970000000  0.4197280000000 1.0
C      1  0.5562340000000  0.4634040000000  0.5563580000000 1.0
C      1  0.5299790000000  0.5198080000000  0.5651610000000 1.0
C      1  0.4649180000000  0.5117110000000  0.5204320000000 1.0
C      1  0.5022200000000  0.5216760000000  0.4595070000000 1.0
C      1  0.5864150000000  0.4777840000000  0.5116900000000 1.0
C      1  0.4953660000000  0.5516800000000  0.5719680000000 1.0
C      1  0.4497380000000  0.5732110000000  0.4721170000000 1.0
C      1  0.4657330000000  0.5843510000000  0.5166220000000 1.0
C      1  0.5075710000000  0.4912830000000  0.4563280000000 1.0
C      1  0.5758650000000  0.4598770000000  0.4687090000000 1.0
C      1  0.5353240000000  0.5569730000000  0.4383840000000 1.0
C      1  0.5169500000000  0.5778230000000  0.4385010000000 1.0
C      1  0.5055900000000  0.4883280000000  0.5282110000000 1.0
C      1  0.5608430000000  0.4652660000000  0.4434180000000 1.0
C      1  0.4426600000000  0.5053660000000  0.5631620000000 1.0
C      1  0.4351710000000  0.4896470000000  0.4358800000000 1.0
C      1  0.4420880000000  0.4202660000000  0.4944980000000 1.0
C      1  0.4344350000000  0.5005930000000  0.4643550000000 1.0
C      1  0.4147050000000  0.5386300000000  0.4892120000000 1.0
C      1  0.5940960000000  0.5002770000000  0.5290630000000 1.0
C      1  0.4598690000000  0.4474700000000  0.4400610000000 1.0
C      1  0.4984470000000  0.5586450000000  0.4871590000000 1.0
C      1  0.5498300000000  0.5748120000000  0.4870100000000 1.0
C      1  0.4370580000000  0.5129780000000  0.5343550000000 1.0
C      1  0.5202680000000  0.5325990000000  0.4267960000000 1.0
C      1  0.5320380000000  0.4210140000000  0.5189460000000 1.0
C      1  0.5697430000000  0.4896680000000  0.5647790000000 1.0
C      1  0.4408370000000  0.4514420000000  0.5349270000000 1.0
C      1  0.5167480000000  0.4431850000000  0.4329090000000 1.0
C      1  0.4827730000000  0.5051750000000  0.4156980000000 1.0
C      1  0.4839860000000  0.5712710000000  0.5347500000000 1.0
C      1  0.4219490000000  0.4679850000000  0.5198510000000 1.0
C      1  0.5074200000000  0.5035250000000  0.5035490000000 1.0
C      1  0.4340880000000  0.4609660000000  0.4425240000000 1.0
C      1  0.4279400000000  0.5301680000000  0.4657320000000 1.0
C      1  0.4226780000000  0.4327430000000  0.4794710000000 1.0
C      1  0.4654930000000  0.4091440000000  0.4799910000000 1.0
C      1  0.5766560000000  0.5455520000000  0.5154280000000 1.0
C      1  0.4880130000000  0.4809020000000  0.5941980000000 1.0
C      1  0.4753820000000  0.5502390000000  0.4388040000000 1.0
C      1  0.5465320000000  0.4774450000000  0.5155990000000 1.0
C      1  0.4626400000000  0.4963980000000  0.4743030000000 1.0
C      1  0.4614490000000  0.4615720000000  0.5544500000000 1.0
C      1  0.4862840000000  0.4039200000000  0.5020690000000 1.0
C      1  0.4960510000000  0.5083010000000  0.5912870000000 1.0
C      1  0.4857730000000  0.5053270000000  0.5426740000000 1.0
C      1  0.4571130000000  0.4357150000000  0.5157800000000 1.0
C      1  0.5203070000000  0.5389090000000  0.4784930000000 1.0
C      1  0.4494920000000  0.5314990000000  0.5747710000000 1.0
C      1  0.5212020000000  0.4105510000000  0.4678480000000 1.0
C      1  0.4176110000000  0.4956390000000  0.5198050000000 1.0
C      1  0.5075150000000  0.4611300000000  0.4136810000000 1.0
C      1  0.5140130000000  0.5491800000000  0.5269030000000 1.0
END
