TITL C-950526-5686-171 -1.97674980965235e-06 125000 -758.91970962861 0 0 121 (C1) n - 1
REM
REM in /home/bkarasulu/work/CARBON/AIRSS/Generating-Clusters/EDIP-Nigel-Params/with-SteepDescent/Only-C1/SD-CG/HFTN-CG
REM
REM
REM
REM
REM
REM ./C.cell (11c1c37f851c82e70ff6c80c92926a4b)
REM
REM compiler GCC version 9.2.1 20190827 (Red Hat 9.2.1-1)
REM options -cpp -mtune=generic -march=x86-64 -g -O0 -fpre-include=/usr/include/finclude/math-vector-fortran.h
REM seed 970461727 1158135348 -1659562402 -1129263963 -611336213 2072548770 194084940 1304557399 910932395 -1867183605 -300816004 -2060792267 -725240581 1613490722 2013889171 1925775731 -1701031252 1566279693 1468943929 -1769401597 -169013335 174258136 -1303718959 -548632201 300554917 -163591556 -596980906 -1076435801 -269976896 1613533203 1488470159 -972165755 966639612
REM
CELL 1.54180   50.00000   50.00000   50.00000   90.00000   90.00000   90.00000
LATT -1
SFAC C  
C      1  0.5432760000000  0.5613080000000  0.5618280000000 1.0
C      1  0.5494200000000  0.4381900000000  0.5145260000000 1.0
C      1  0.5693850000000  0.4931770000000  0.5589160000000 1.0
C      1  0.5083120000000  0.5420890000000  0.4869400000000 1.0
C      1  0.5888210000000  0.5264560000000  0.4912220000000 1.0
C      1  0.5080260000000  0.5331550000000  0.5372850000000 1.0
C      1  0.5018110000000  0.4846940000000  0.5393670000000 1.0
C      1  0.5079970000000  0.5511130000000  0.4334720000000 1.0
C      1  0.4966150000000  0.5008170000000  0.4991890000000 1.0
C      1  0.5315950000000  0.5913060000000  0.5264630000000 1.0
C      1  0.4443600000000  0.4797220000000  0.5716660000000 1.0
C      1  0.4963710000000  0.4532800000000  0.4979810000000 1.0
C      1  0.4630230000000  0.5500150000000  0.5547120000000 1.0
C      1  0.4973280000000  0.4846750000000  0.4020460000000 1.0
C      1  0.5142770000000  0.5552230000000  0.5588730000000 1.0
C      1  0.4200190000000  0.5315800000000  0.5176550000000 1.0
C      1  0.5737440000000  0.4798580000000  0.5094600000000 1.0
C      1  0.4817880000000  0.5907640000000  0.4592840000000 1.0
C      1  0.5609840000000  0.4970000000000  0.4649260000000 1.0
C      1  0.5903480000000  0.4576420000000  0.4966240000000 1.0
C      1  0.4517780000000  0.5767530000000  0.4996080000000 1.0
C      1  0.4840640000000  0.4664050000000  0.5228030000000 1.0
C      1  0.5327600000000  0.4858090000000  0.5346420000000 1.0
C      1  0.4726620000000  0.4443720000000  0.5772910000000 1.0
C      1  0.4256910000000  0.4636360000000  0.5292890000000 1.0
C      1  0.5114480000000  0.5915800000000  0.4596380000000 1.0
C      1  0.4292630000000  0.4660700000000  0.4293280000000 1.0
C      1  0.5159930000000  0.5092220000000  0.4074400000000 1.0
C      1  0.4538340000000  0.4673020000000  0.4157070000000 1.0
C      1  0.4890270000000  0.5126920000000  0.5463750000000 1.0
C      1  0.5082550000000  0.5828650000000  0.5440770000000 1.0
C      1  0.4720210000000  0.4422460000000  0.4553720000000 1.0
C      1  0.5344500000000  0.5070520000000  0.4540130000000 1.0
C      1  0.5549270000000  0.5368510000000  0.5726690000000 1.0
C      1  0.4669420000000  0.4710420000000  0.5870370000000 1.0
C      1  0.4373570000000  0.4369530000000  0.5365790000000 1.0
C      1  0.4592540000000  0.5264590000000  0.4948830000000 1.0
C      1  0.5580570000000  0.5530260000000  0.5142430000000 1.0
C      1  0.5541340000000  0.5537180000000  0.4647450000000 1.0
C      1  0.5785360000000  0.5137190000000  0.4460250000000 1.0
C      1  0.5803450000000  0.4362880000000  0.5156140000000 1.0
C      1  0.4516530000000  0.4348560000000  0.5608900000000 1.0
C      1  0.4660190000000  0.4852280000000  0.5078840000000 1.0
C      1  0.5236520000000  0.5746740000000  0.4398890000000 1.0
C      1  0.4297080000000  0.5504250000000  0.4672440000000 1.0
C      1  0.4162630000000  0.4651190000000  0.5015850000000 1.0
C      1  0.5164230000000  0.4614750000000  0.4443810000000 1.0
C      1  0.4579470000000  0.5541420000000  0.4506150000000 1.0
C      1  0.4812540000000  0.5333850000000  0.4742490000000 1.0
C      1  0.5047020000000  0.4215970000000  0.4999490000000 1.0
C      1  0.5864760000000  0.5448320000000  0.5140010000000 1.0
C      1  0.4488420000000  0.5320410000000  0.4315180000000 1.0
C      1  0.4075680000000  0.4908890000000  0.4638230000000 1.0
C      1  0.5437110000000  0.4491640000000  0.4509950000000 1.0
C      1  0.5667210000000  0.5061100000000  0.4946230000000 1.0
C      1  0.4374930000000  0.5488260000000  0.4965160000000 1.0
C      1  0.4891060000000  0.5714710000000  0.5258830000000 1.0
C      1  0.5393870000000  0.4217150000000  0.4649480000000 1.0
C      1  0.5658210000000  0.5177950000000  0.4207550000000 1.0
C      1  0.4619450000000  0.5832460000000  0.5261440000000 1.0
C      1  0.5684410000000  0.5211330000000  0.5526780000000 1.0
C      1  0.4915100000000  0.4878150000000  0.5877790000000 1.0
C      1  0.5826420000000  0.4496870000000  0.5436710000000 1.0
C      1  0.4740310000000  0.4484820000000  0.4250790000000 1.0
C      1  0.5903390000000  0.5321090000000  0.5387340000000 1.0
C      1  0.4460130000000  0.4857630000000  0.5341350000000 1.0
C      1  0.4605200000000  0.4893620000000  0.4642360000000 1.0
C      1  0.4165590000000  0.4643240000000  0.4539840000000 1.0
C      1  0.4643400000000  0.5279100000000  0.5332420000000 1.0
C      1  0.4318120000000  0.5214660000000  0.5680050000000 1.0
C      1  0.5012800000000  0.5700010000000  0.4983840000000 1.0
C      1  0.5397780000000  0.4310140000000  0.5416880000000 1.0
C      1  0.5515980000000  0.5718570000000  0.4422850000000 1.0
C      1  0.5505950000000  0.5682970000000  0.4899910000000 1.0
C      1  0.4855790000000  0.5044580000000  0.4618670000000 1.0
C      1  0.5346730000000  0.5249260000000  0.5886700000000 1.0
C      1  0.5145000000000  0.4695120000000  0.5788080000000 1.0
C      1  0.5155100000000  0.5236400000000  0.5100800000000 1.0
C      1  0.5013290000000  0.4594360000000  0.4179530000000 1.0
C      1  0.4665740000000  0.5795870000000  0.4381900000000 1.0
C      1  0.4700190000000  0.4049820000000  0.5269700000000 1.0
C      1  0.4311580000000  0.4518190000000  0.4788430000000 1.0
C      1  0.5006080000000  0.4425690000000  0.4604730000000 1.0
C      1  0.4970650000000  0.5295740000000  0.4175220000000 1.0
C      1  0.4499480000000  0.4211590000000  0.5158800000000 1.0
C      1  0.5113320000000  0.4286760000000  0.5474010000000 1.0
C      1  0.4683070000000  0.4921430000000  0.4060250000000 1.0
C      1  0.4712760000000  0.5165430000000  0.4220680000000 1.0
C      1  0.4034080000000  0.4896840000000  0.4926020000000 1.0
C      1  0.4270880000000  0.5230340000000  0.4534460000000 1.0
C      1  0.4424660000000  0.4232300000000  0.4872410000000 1.0
C      1  0.4866750000000  0.5166950000000  0.5768100000000 1.0
C      1  0.5441850000000  0.4755860000000  0.5618920000000 1.0
C      1  0.5016350000000  0.4431520000000  0.5714970000000 1.0
C      1  0.5160590000000  0.4762320000000  0.4905920000000 1.0
C      1  0.5286730000000  0.5369790000000  0.4628100000000 1.0
C      1  0.4637340000000  0.4149810000000  0.4673220000000 1.0
C      1  0.5268750000000  0.5869370000000  0.4942660000000 1.0
C      1  0.4023920000000  0.5130980000000  0.5074070000000 1.0
C      1  0.5563180000000  0.4477670000000  0.5586540000000 1.0
C      1  0.4972510000000  0.4118940000000  0.5272310000000 1.0
C      1  0.5448670000000  0.5164990000000  0.5157620000000 1.0
C      1  0.5091860000000  0.5360300000000  0.5833270000000 1.0
C      1  0.5404730000000  0.5056260000000  0.4247280000000 1.0
C      1  0.4466330000000  0.5726100000000  0.5477510000000 1.0
C      1  0.5110890000000  0.4136120000000  0.4566160000000 1.0
C      1  0.5343690000000  0.4213200000000  0.4946970000000 1.0
C      1  0.5643980000000  0.4666580000000  0.4617670000000 1.0
C      1  0.5531070000000  0.5727640000000  0.5362820000000 1.0
C      1  0.4260710000000  0.4978900000000  0.5822060000000 1.0
C      1  0.5130230000000  0.4872580000000  0.4605270000000 1.0
C      1  0.4564970000000  0.5340960000000  0.5788300000000 1.0
C      1  0.4372230000000  0.5161720000000  0.5382190000000 1.0
C      1  0.4904700000000  0.4034480000000  0.4778350000000 1.0
C      1  0.5810160000000  0.5375120000000  0.4640750000000 1.0
C      1  0.4409860000000  0.5060610000000  0.4770550000000 1.0
C      1  0.4598450000000  0.4631100000000  0.4761670000000 1.0
C      1  0.5438260000000  0.4690000000000  0.5107560000000 1.0
C      1  0.4769350000000  0.5765990000000  0.4835000000000 1.0
C      1  0.5851420000000  0.4793030000000  0.5384450000000 1.0
C      1  0.5877580000000  0.4538010000000  0.4693400000000 1.0
END
