TITL C-951348-1603-567 -9.24581297877794e-07 125000 -732.891736108941 0 0 118 (C1) n - 1
REM
REM in /home/bkarasulu/work/CARBON/AIRSS/Generating-Clusters/EDIP-Nigel-Params/with-SteepDescent/Only-C1/SD-CG/HFTN-CG
REM
REM
REM
REM
REM
REM ./C.cell (11c1c37f851c82e70ff6c80c92926a4b)
REM
REM compiler GCC version 9.2.1 20190827 (Red Hat 9.2.1-1)
REM options -cpp -mtune=generic -march=x86-64 -g -O0 -fpre-include=/usr/include/finclude/math-vector-fortran.h
REM seed 215771271 2142118092 -1133409588 736947083 1427835095 2115979869 228602145 -39195109 -195328543 -1612716011 -1491391317 -610622336 -1925293383 -1799775772 -1117304951 1322182779 -528659647 -1251066667 -148106986 -1886358964 -1221187680 -1098725002 1128013010 1070763406 109876742 1406864858 2124220041 1005920362 370628487 970272296 994468077 1783821431 -689429267
REM
CELL 1.54180   50.00000   50.00000   50.00000   90.00000   90.00000   90.00000
LATT -1
SFAC C  
C      1  0.5463380000000  0.4388060000000  0.4937900000000 1.0
C      1  0.4460660000000  0.4736670000000  0.4807540000000 1.0
C      1  0.4585640000000  0.5420430000000  0.5347210000000 1.0
C      1  0.5027330000000  0.5714160000000  0.5008540000000 1.0
C      1  0.4893750000000  0.5154270000000  0.4821160000000 1.0
C      1  0.4006710000000  0.4737520000000  0.4711580000000 1.0
C      1  0.5896980000000  0.5201230000000  0.4890770000000 1.0
C      1  0.4074120000000  0.4990140000000  0.4823570000000 1.0
C      1  0.4237930000000  0.5240570000000  0.5719440000000 1.0
C      1  0.4996030000000  0.5826970000000  0.5287050000000 1.0
C      1  0.5826770000000  0.4716330000000  0.4925570000000 1.0
C      1  0.4936180000000  0.5745610000000  0.4563300000000 1.0
C      1  0.4512270000000  0.4841180000000  0.4513010000000 1.0
C      1  0.5332300000000  0.4862160000000  0.5310940000000 1.0
C      1  0.4193750000000  0.5197970000000  0.4647930000000 1.0
C      1  0.5057400000000  0.4162300000000  0.4792120000000 1.0
C      1  0.5098260000000  0.4686840000000  0.5307890000000 1.0
C      1  0.4579140000000  0.4841520000000  0.5714200000000 1.0
C      1  0.4840540000000  0.4895150000000  0.5010630000000 1.0
C      1  0.5650450000000  0.4553120000000  0.5084030000000 1.0
C      1  0.5767600000000  0.5002290000000  0.5346120000000 1.0
C      1  0.4535730000000  0.4640920000000  0.4271890000000 1.0
C      1  0.4318190000000  0.5054890000000  0.4420760000000 1.0
C      1  0.4856390000000  0.5620700000000  0.5958580000000 1.0
C      1  0.4501840000000  0.5223630000000  0.4264650000000 1.0
C      1  0.4543830000000  0.4215040000000  0.4576830000000 1.0
C      1  0.4794680000000  0.4726580000000  0.5903440000000 1.0
C      1  0.4804190000000  0.5787200000000  0.4825070000000 1.0
C      1  0.5321520000000  0.5045720000000  0.4766230000000 1.0
C      1  0.5408870000000  0.5662530000000  0.4390370000000 1.0
C      1  0.5674260000000  0.5549030000000  0.5474040000000 1.0
C      1  0.5204910000000  0.4294690000000  0.5020670000000 1.0
C      1  0.5036480000000  0.4466240000000  0.4276070000000 1.0
C      1  0.5269100000000  0.4321900000000  0.5532240000000 1.0
C      1  0.4893870000000  0.4630930000000  0.4523320000000 1.0
C      1  0.5158960000000  0.4576840000000  0.4680870000000 1.0
C      1  0.5037930000000  0.5395600000000  0.5055420000000 1.0
C      1  0.4911800000000  0.4943510000000  0.6059570000000 1.0
C      1  0.5281230000000  0.4829340000000  0.4580340000000 1.0
C      1  0.4914940000000  0.5104140000000  0.5453680000000 1.0
C      1  0.5097860000000  0.4384830000000  0.5284630000000 1.0
C      1  0.5893740000000  0.4964060000000  0.5061260000000 1.0
C      1  0.5283100000000  0.4875000000000  0.4274510000000 1.0
C      1  0.4837360000000  0.5536650000000  0.4399600000000 1.0
C      1  0.4746530000000  0.4805130000000  0.4109370000000 1.0
C      1  0.5524890000000  0.5735180000000  0.5033690000000 1.0
C      1  0.4465420000000  0.5015510000000  0.5023980000000 1.0
C      1  0.4106520000000  0.5282520000000  0.5461480000000 1.0
C      1  0.5320710000000  0.4993640000000  0.5584860000000 1.0
C      1  0.5111250000000  0.5653050000000  0.5886840000000 1.0
C      1  0.4679490000000  0.5109900000000  0.5630570000000 1.0
C      1  0.4928820000000  0.4619410000000  0.4911390000000 1.0
C      1  0.4431200000000  0.5410530000000  0.4699150000000 1.0
C      1  0.5628310000000  0.4501980000000  0.4229870000000 1.0
C      1  0.4759010000000  0.5176800000000  0.6052930000000 1.0
C      1  0.5359900000000  0.5268310000000  0.4581090000000 1.0
C      1  0.5585470000000  0.4693380000000  0.5339250000000 1.0
C      1  0.5506650000000  0.4309410000000  0.4665540000000 1.0
C      1  0.5561230000000  0.5141170000000  0.5639580000000 1.0
C      1  0.4670420000000  0.5417300000000  0.5946390000000 1.0
C      1  0.5245260000000  0.4219500000000  0.4574100000000 1.0
C      1  0.4867040000000  0.4972860000000  0.4519780000000 1.0
C      1  0.4850780000000  0.4272610000000  0.4181960000000 1.0
C      1  0.5041900000000  0.4715410000000  0.4119900000000 1.0
C      1  0.5284330000000  0.5788600000000  0.4880540000000 1.0
C      1  0.4996420000000  0.5474300000000  0.4169040000000 1.0
C      1  0.4220300000000  0.4573530000000  0.4788010000000 1.0
C      1  0.3966100000000  0.5046060000000  0.5071740000000 1.0
C      1  0.4609540000000  0.4392310000000  0.5464450000000 1.0
C      1  0.5328110000000  0.5062210000000  0.5067330000000 1.0
C      1  0.4588940000000  0.4295190000000  0.5073650000000 1.0
C      1  0.5753980000000  0.4967250000000  0.4197470000000 1.0
C      1  0.4304080000000  0.4320370000000  0.4692470000000 1.0
C      1  0.5851920000000  0.5438030000000  0.5040860000000 1.0
C      1  0.4879190000000  0.5353010000000  0.5310730000000 1.0
C      1  0.4351420000000  0.4709180000000  0.5297120000000 1.0
C      1  0.5804680000000  0.4708140000000  0.4635200000000 1.0
C      1  0.5245200000000  0.5523590000000  0.5680680000000 1.0
C      1  0.5683160000000  0.4477830000000  0.4503310000000 1.0
C      1  0.4772690000000  0.4118580000000  0.4735980000000 1.0
C      1  0.5504400000000  0.4624320000000  0.5831930000000 1.0
C      1  0.4477140000000  0.5426400000000  0.5720900000000 1.0
C      1  0.4422600000000  0.5132140000000  0.5339500000000 1.0
C      1  0.4281990000000  0.4936700000000  0.5720610000000 1.0
C      1  0.5265920000000  0.4795880000000  0.5812790000000 1.0
C      1  0.5780020000000  0.5684920000000  0.4922770000000 1.0
C      1  0.4717060000000  0.5848080000000  0.5324080000000 1.0
C      1  0.4353040000000  0.4402930000000  0.5257200000000 1.0
C      1  0.5543310000000  0.4761370000000  0.4156110000000 1.0
C      1  0.5488380000000  0.5731810000000  0.5325800000000 1.0
C      1  0.4767740000000  0.5084060000000  0.4220810000000 1.0
C      1  0.5528480000000  0.5424770000000  0.5702550000000 1.0
C      1  0.5196820000000  0.4944870000000  0.6055710000000 1.0
C      1  0.4944360000000  0.5234000000000  0.4045970000000 1.0
C      1  0.4614380000000  0.4352620000000  0.4321810000000 1.0
C      1  0.5030630000000  0.4611700000000  0.5767550000000 1.0
C      1  0.5095750000000  0.4334490000000  0.5759210000000 1.0
C      1  0.4618940000000  0.4703180000000  0.5448710000000 1.0
C      1  0.5673380000000  0.5334920000000  0.5257630000000 1.0
C      1  0.4142710000000  0.4824140000000  0.5476480000000 1.0
C      1  0.3990300000000  0.5046550000000  0.5349480000000 1.0
C      1  0.4538700000000  0.5675720000000  0.4902590000000 1.0
C      1  0.4820820000000  0.4263050000000  0.5296140000000 1.0
C      1  0.5230440000000  0.5763230000000  0.4595430000000 1.0
C      1  0.4604760000000  0.5239650000000  0.4873240000000 1.0
C      1  0.5621220000000  0.5234630000000  0.4185000000000 1.0
C      1  0.5356010000000  0.5345090000000  0.5156520000000 1.0
C      1  0.5318600000000  0.5193120000000  0.4272030000000 1.0
C      1  0.4657570000000  0.4518230000000  0.4876650000000 1.0
C      1  0.5658170000000  0.5382550000000  0.4460450000000 1.0
C      1  0.5879880000000  0.5208280000000  0.4598650000000 1.0
C      1  0.4862130000000  0.4851050000000  0.5305570000000 1.0
C      1  0.5881640000000  0.4942060000000  0.4470860000000 1.0
C      1  0.4521740000000  0.5680700000000  0.5203400000000 1.0
C      1  0.5513230000000  0.4500030000000  0.5573390000000 1.0
C      1  0.5219590000000  0.5619580000000  0.5397340000000 1.0
C      1  0.4560940000000  0.5454350000000  0.4428260000000 1.0
C      1  0.5268350000000  0.5562610000000  0.4162060000000 1.0
END
