TITL C-951345-2650-371 -3.20758704311364e-06 125000 -937.843585810285 0 0 151 (C1) n - 1
REM
REM in /home/bkarasulu/work/CARBON/AIRSS/Generating-Clusters/EDIP-Nigel-Params/with-SteepDescent/Only-C1/SD-CG/HFTN-CG
REM
REM
REM
REM
REM
REM ./C.cell (11c1c37f851c82e70ff6c80c92926a4b)
REM
REM compiler GCC version 9.2.1 20190827 (Red Hat 9.2.1-1)
REM options -cpp -mtune=generic -march=x86-64 -g -O0 -fpre-include=/usr/include/finclude/math-vector-fortran.h
REM seed -572172070 -596386340 2051037265 -1419175569 -1872153915 17572551 -722695687 -1307944971 602018053 1367337040 -1379295864 1510443971 672609816 750084632 -527881275 -198654061 -974600323 1983494100 832768024 1948164490 -294470367 -562905614 178426837 -1909253839 -12275586 -1142494785 1664768590 -2132039192 1610992632 -1277918618 352888395 -911878283 -1570779113
REM
CELL 1.54180   50.00000   50.00000   50.00000   90.00000   90.00000   90.00000
LATT -1
SFAC C  
C      1  0.5173380000000  0.5475830000000  0.5522800000000 1.0
C      1  0.5780730000000  0.5543270000000  0.5409220000000 1.0
C      1  0.5716690000000  0.5104210000000  0.4206280000000 1.0
C      1  0.4928180000000  0.5564510000000  0.5393820000000 1.0
C      1  0.5361360000000  0.4822380000000  0.4634920000000 1.0
C      1  0.4533200000000  0.4715330000000  0.4682400000000 1.0
C      1  0.4951590000000  0.4159550000000  0.5374320000000 1.0
C      1  0.4595230000000  0.5422470000000  0.5778710000000 1.0
C      1  0.5449480000000  0.5785690000000  0.4806450000000 1.0
C      1  0.3984320000000  0.4854170000000  0.4999250000000 1.0
C      1  0.5490110000000  0.4842730000000  0.5434670000000 1.0
C      1  0.4962590000000  0.5893960000000  0.4483480000000 1.0
C      1  0.5464800000000  0.5083480000000  0.5057790000000 1.0
C      1  0.5472870000000  0.4527670000000  0.5804110000000 1.0
C      1  0.4810230000000  0.4641090000000  0.5975630000000 1.0
C      1  0.4512570000000  0.4646650000000  0.5249190000000 1.0
C      1  0.4160680000000  0.4404890000000  0.4900700000000 1.0
C      1  0.5510030000000  0.5692470000000  0.4529170000000 1.0
C      1  0.4814150000000  0.4904990000000  0.4687250000000 1.0
C      1  0.4233420000000  0.5385210000000  0.5053410000000 1.0
C      1  0.5231200000000  0.4536190000000  0.4188960000000 1.0
C      1  0.5150110000000  0.4261160000000  0.4292900000000 1.0
C      1  0.4182590000000  0.4563600000000  0.4351270000000 1.0
C      1  0.4988040000000  0.5383810000000  0.4561820000000 1.0
C      1  0.6095860000000  0.4978590000000  0.5088330000000 1.0
C      1  0.5577050000000  0.5317060000000  0.5509970000000 1.0
C      1  0.5744800000000  0.4414390000000  0.4882620000000 1.0
C      1  0.4316210000000  0.4301770000000  0.4406400000000 1.0
C      1  0.5771000000000  0.5559810000000  0.4479620000000 1.0
C      1  0.4838580000000  0.5642910000000  0.4390840000000 1.0
C      1  0.4658360000000  0.5885120000000  0.4935490000000 1.0
C      1  0.4215530000000  0.5685890000000  0.5055070000000 1.0
C      1  0.4450890000000  0.4127600000000  0.5140830000000 1.0
C      1  0.5341250000000  0.5760450000000  0.4189600000000 1.0
C      1  0.4513130000000  0.5042730000000  0.4981570000000 1.0
C      1  0.4242010000000  0.5116350000000  0.4640650000000 1.0
C      1  0.4194760000000  0.4865490000000  0.5235750000000 1.0
C      1  0.5501180000000  0.4740100000000  0.5987660000000 1.0
C      1  0.4447500000000  0.5004140000000  0.4160760000000 1.0
C      1  0.4466320000000  0.4546910000000  0.5541020000000 1.0
C      1  0.4712470000000  0.4946660000000  0.5641750000000 1.0
C      1  0.4520120000000  0.5346480000000  0.4957930000000 1.0
C      1  0.5934680000000  0.5481080000000  0.5177530000000 1.0
C      1  0.4286150000000  0.4231040000000  0.4696730000000 1.0
C      1  0.5667440000000  0.4160070000000  0.4967840000000 1.0
C      1  0.4065450000000  0.4725110000000  0.5470420000000 1.0
C      1  0.5361090000000  0.5355770000000  0.4967750000000 1.0
C      1  0.3990050000000  0.4639810000000  0.4540610000000 1.0
C      1  0.5341170000000  0.4384340000000  0.5599660000000 1.0
C      1  0.5064760000000  0.4293860000000  0.5615370000000 1.0
C      1  0.4632430000000  0.4917230000000  0.5207660000000 1.0
C      1  0.5324420000000  0.4991920000000  0.3967730000000 1.0
C      1  0.4494660000000  0.5288530000000  0.4608300000000 1.0
C      1  0.4650290000000  0.4378550000000  0.4239840000000 1.0
C      1  0.5927480000000  0.5371820000000  0.4912340000000 1.0
C      1  0.4223560000000  0.4320810000000  0.5177890000000 1.0
C      1  0.5128490000000  0.4007130000000  0.5194010000000 1.0
C      1  0.4461490000000  0.4775280000000  0.5734640000000 1.0
C      1  0.5693810000000  0.4620370000000  0.5354340000000 1.0
C      1  0.5114450000000  0.5209970000000  0.5628570000000 1.0
C      1  0.5927360000000  0.4781600000000  0.5496710000000 1.0
C      1  0.4595790000000  0.5137670000000  0.5405880000000 1.0
C      1  0.4999760000000  0.6013070000000  0.5602200000000 1.0
C      1  0.5584570000000  0.4895460000000  0.4051950000000 1.0
C      1  0.5157210000000  0.5782770000000  0.4909570000000 1.0
C      1  0.4344620000000  0.5308960000000  0.5800130000000 1.0
C      1  0.5203870000000  0.5517660000000  0.4117100000000 1.0
C      1  0.5893320000000  0.4856620000000  0.4918840000000 1.0
C      1  0.5353720000000  0.4240470000000  0.4511290000000 1.0
C      1  0.4188550000000  0.4448040000000  0.5464260000000 1.0
C      1  0.4277470000000  0.5155400000000  0.5343100000000 1.0
C      1  0.4763080000000  0.4602060000000  0.4055820000000 1.0
C      1  0.4172850000000  0.4885720000000  0.5701830000000 1.0
C      1  0.4759030000000  0.5339420000000  0.4008840000000 1.0
C      1  0.5182750000000  0.4776330000000  0.4391470000000 1.0
C      1  0.5788110000000  0.4513910000000  0.4611700000000 1.0
C      1  0.5259040000000  0.4814350000000  0.6084920000000 1.0
C      1  0.4670530000000  0.4876570000000  0.4032710000000 1.0
C      1  0.4734360000000  0.4467890000000  0.5147260000000 1.0
C      1  0.5696880000000  0.5077400000000  0.4877000000000 1.0
C      1  0.5594460000000  0.4406570000000  0.4412730000000 1.0
C      1  0.4770440000000  0.5169390000000  0.4557990000000 1.0
C      1  0.4059690000000  0.5258560000000  0.4832650000000 1.0
C      1  0.5232620000000  0.5927540000000  0.4390670000000 1.0
C      1  0.4664720000000  0.4139560000000  0.5341700000000 1.0
C      1  0.5267340000000  0.5909270000000  0.5651210000000 1.0
C      1  0.5662270000000  0.4975140000000  0.5904400000000 1.0
C      1  0.5383720000000  0.3939960000000  0.5290310000000 1.0
C      1  0.5517880000000  0.5226690000000  0.5800230000000 1.0
C      1  0.5547930000000  0.4153670000000  0.5220160000000 1.0
C      1  0.5264110000000  0.4832520000000  0.4932820000000 1.0
C      1  0.5570750000000  0.5027860000000  0.4612790000000 1.0
C      1  0.3984610000000  0.4613860000000  0.4817920000000 1.0
C      1  0.4477460000000  0.5791480000000  0.5398500000000 1.0
C      1  0.5143970000000  0.4825400000000  0.3809940000000 1.0
C      1  0.4948560000000  0.4698930000000  0.4531220000000 1.0
C      1  0.5942130000000  0.5020990000000  0.5328300000000 1.0
C      1  0.5923930000000  0.5061670000000  0.4445390000000 1.0
C      1  0.4388850000000  0.5821990000000  0.4873680000000 1.0
C      1  0.4971710000000  0.4634640000000  0.5249890000000 1.0
C      1  0.5447430000000  0.4415050000000  0.5321480000000 1.0
C      1  0.4680050000000  0.4422840000000  0.4841230000000 1.0
C      1  0.4965680000000  0.4721220000000  0.5569010000000 1.0
C      1  0.4432260000000  0.5460730000000  0.4374990000000 1.0
C      1  0.5532830000000  0.5269280000000  0.4411190000000 1.0
C      1  0.3849770000000  0.5095060000000  0.4919290000000 1.0
C      1  0.4998080000000  0.4859320000000  0.6020730000000 1.0
C      1  0.5349490000000  0.5418430000000  0.5954910000000 1.0
C      1  0.5093150000000  0.5460790000000  0.4872210000000 1.0
C      1  0.4980480000000  0.4943290000000  0.4936910000000 1.0
C      1  0.5507840000000  0.5625680000000  0.5290230000000 1.0
C      1  0.4889910000000  0.5063970000000  0.3979360000000 1.0
C      1  0.5533640000000  0.4535870000000  0.4151020000000 1.0
C      1  0.4888690000000  0.4421510000000  0.5805290000000 1.0
C      1  0.5781240000000  0.4626910000000  0.5065040000000 1.0
C      1  0.5921980000000  0.5344430000000  0.4609850000000 1.0
C      1  0.5247270000000  0.4861900000000  0.5650950000000 1.0
C      1  0.4555730000000  0.5705360000000  0.4389060000000 1.0
C      1  0.5187900000000  0.4307130000000  0.4758720000000 1.0
C      1  0.4921220000000  0.5917620000000  0.4774860000000 1.0
C      1  0.4925640000000  0.5138180000000  0.6055310000000 1.0
C      1  0.5223350000000  0.5304690000000  0.4334500000000 1.0
C      1  0.4464270000000  0.4689200000000  0.4374720000000 1.0
C      1  0.5162030000000  0.5920920000000  0.5178910000000 1.0
C      1  0.4825580000000  0.5207400000000  0.5783050000000 1.0
C      1  0.4916050000000  0.5573480000000  0.4107530000000 1.0
C      1  0.5625520000000  0.5078760000000  0.5330940000000 1.0
C      1  0.4528070000000  0.4155900000000  0.4845980000000 1.0
C      1  0.5141830000000  0.5037700000000  0.4204060000000 1.0
C      1  0.4176910000000  0.5170190000000  0.5628240000000 1.0
C      1  0.4935880000000  0.5861620000000  0.5353950000000 1.0
C      1  0.5236920000000  0.4563210000000  0.5115830000000 1.0
C      1  0.4532050000000  0.4686900000000  0.6000530000000 1.0
C      1  0.4571110000000  0.5662090000000  0.5631880000000 1.0
C      1  0.5130500000000  0.4091330000000  0.4928260000000 1.0
C      1  0.4326500000000  0.4891410000000  0.4819210000000 1.0
C      1  0.4677310000000  0.5914840000000  0.5226870000000 1.0
C      1  0.4927470000000  0.4419840000000  0.4646250000000 1.0
C      1  0.5225590000000  0.5625400000000  0.5763190000000 1.0
C      1  0.4211160000000  0.5789890000000  0.5314160000000 1.0
C      1  0.4988990000000  0.5182190000000  0.5120460000000 1.0
C      1  0.4758250000000  0.5353500000000  0.5227180000000 1.0
C      1  0.5546350000000  0.5575660000000  0.4994370000000 1.0
C      1  0.4868970000000  0.4252030000000  0.4404180000000 1.0
C      1  0.5117070000000  0.5068050000000  0.5364230000000 1.0
C      1  0.5391730000000  0.5894410000000  0.5366530000000 1.0
C      1  0.5154380000000  0.5293360000000  0.6118670000000 1.0
C      1  0.4489620000000  0.5295120000000  0.4133760000000 1.0
C      1  0.5048950000000  0.4591730000000  0.3955460000000 1.0
C      1  0.5936540000000  0.4784670000000  0.4621720000000 1.0
C      1  0.5874320000000  0.4872420000000  0.5753050000000 1.0
END
