TITL C-951345-2650-597 3.91630764792728e-07 125000 -269.911079722946 0 0 45 (C1) n - 1
REM
REM in /home/bkarasulu/work/CARBON/AIRSS/Generating-Clusters/EDIP-Nigel-Params/with-SteepDescent/Only-C1/SD-CG/HFTN-CG
REM
REM
REM
REM
REM
REM ./C.cell (11c1c37f851c82e70ff6c80c92926a4b)
REM
REM compiler GCC version 9.2.1 20190827 (Red Hat 9.2.1-1)
REM options -cpp -mtune=generic -march=x86-64 -g -O0 -fpre-include=/usr/include/finclude/math-vector-fortran.h
REM seed 1746244545 -1418940994 -1040961139 65341378 680965020 -1412335325 -1176255323 -1226987204 -490057468 1312371064 -1015814045 -489473776 1881995940 1803704573 758945071 5057068 -1536273166 -1555530319 821273382 654129897 162575877 2127874457 1558189780 -1567110326 -1997115697 -1424690484 -1899744558 -2117798607 2094496408 1909082631 -1321402617 1459603422 1508385521
REM
CELL 1.54180   50.00000   50.00000   50.00000   90.00000   90.00000   90.00000
LATT -1
SFAC C  
C      1  0.4713600000000  0.4312920000000  0.5232090000000 1.0
C      1  0.5037340000000  0.4622910000000  0.4671410000000 1.0
C      1  0.5471190000000  0.4886180000000  0.4871750000000 1.0
C      1  0.4439620000000  0.5093520000000  0.4769720000000 1.0
C      1  0.4674980000000  0.5004200000000  0.4613340000000 1.0
C      1  0.5564810000000  0.5146300000000  0.4903610000000 1.0
C      1  0.5250820000000  0.5401110000000  0.4769930000000 1.0
C      1  0.5266660000000  0.5248610000000  0.5302180000000 1.0
C      1  0.5224180000000  0.5436600000000  0.4333140000000 1.0
C      1  0.5082230000000  0.5211460000000  0.4409190000000 1.0
C      1  0.4873700000000  0.5489870000000  0.5172250000000 1.0
C      1  0.4334740000000  0.4604090000000  0.5276240000000 1.0
C      1  0.4708280000000  0.4741310000000  0.5503620000000 1.0
C      1  0.4933440000000  0.5042330000000  0.4967430000000 1.0
C      1  0.5398740000000  0.4941060000000  0.5592400000000 1.0
C      1  0.4885240000000  0.5196910000000  0.5547150000000 1.0
C      1  0.4593220000000  0.4685910000000  0.4927900000000 1.0
C      1  0.5031120000000  0.5398930000000  0.5407550000000 1.0
C      1  0.4396900000000  0.4890980000000  0.4972660000000 1.0
C      1  0.5279130000000  0.4533370000000  0.5180610000000 1.0
C      1  0.4752300000000  0.5442670000000  0.4705980000000 1.0
C      1  0.4971020000000  0.5353260000000  0.4903070000000 1.0
C      1  0.5238270000000  0.4304200000000  0.5021400000000 1.0
C      1  0.4838100000000  0.4502080000000  0.5402720000000 1.0
C      1  0.4607320000000  0.5339720000000  0.5163410000000 1.0
C      1  0.5316780000000  0.5679070000000  0.4408800000000 1.0
C      1  0.5305950000000  0.5690430000000  0.4686370000000 1.0
C      1  0.5157790000000  0.4955550000000  0.4338210000000 1.0
C      1  0.4456500000000  0.4824880000000  0.5401260000000 1.0
C      1  0.5550830000000  0.5404940000000  0.5003180000000 1.0
C      1  0.5131260000000  0.4529960000000  0.5441970000000 1.0
C      1  0.5229530000000  0.4796760000000  0.5027230000000 1.0
C      1  0.5095400000000  0.5002200000000  0.5233640000000 1.0
C      1  0.4902130000000  0.4922110000000  0.5615810000000 1.0
C      1  0.5165660000000  0.4783260000000  0.5605660000000 1.0
C      1  0.4807770000000  0.5239990000000  0.4496420000000 1.0
C      1  0.5104860000000  0.4386090000000  0.4801730000000 1.0
C      1  0.5490140000000  0.4769240000000  0.4616680000000 1.0
C      1  0.4506370000000  0.5368340000000  0.4874220000000 1.0
C      1  0.4688250000000  0.5041520000000  0.5180460000000 1.0
C      1  0.5462530000000  0.5185490000000  0.5496520000000 1.0
C      1  0.4769530000000  0.4736760000000  0.4700970000000 1.0
C      1  0.5539320000000  0.5648550000000  0.4853760000000 1.0
C      1  0.4514470000000  0.4463630000000  0.5100870000000 1.0
C      1  0.5237990000000  0.4740730000000  0.4495490000000 1.0
END
