TITL C-951333-8791-73 -2.01601318111956e-06 125000 -1073.16911890849 0 0 173 (C1) n - 1
REM
REM in /home/bkarasulu/work/CARBON/AIRSS/Generating-Clusters/EDIP-Nigel-Params/with-SteepDescent/Only-C1/SD-CG/HFTN-CG
REM
REM
REM
REM
REM
REM ./C.cell (11c1c37f851c82e70ff6c80c92926a4b)
REM
REM compiler GCC version 9.2.1 20190827 (Red Hat 9.2.1-1)
REM options -cpp -mtune=generic -march=x86-64 -g -O0 -fpre-include=/usr/include/finclude/math-vector-fortran.h
REM seed 829570660 815233455 -953799380 1996506921 1349733728 -352911090 -1714905759 -1956670243 413266507 1065524138 -1575936953 945036329 641873536 -541986806 674549864 1811326241 -1881870779 -43686852 1141380452 411154647 -2001788614 -1998513088 690563716 512922898 635742027 -153341453 -1729827853 -1723492370 -2138699812 1689278597 1737131276 1643455058 1947811634
REM
CELL 1.54180   50.00000   50.00000   50.00000   90.00000   90.00000   90.00000
LATT -1
SFAC C  
C      1  0.4053540000000  0.5605520000000  0.4739710000000 1.0
C      1  0.4709220000000  0.5211000000000  0.5750080000000 1.0
C      1  0.5325180000000  0.4006480000000  0.4654470000000 1.0
C      1  0.4297130000000  0.4811330000000  0.4387810000000 1.0
C      1  0.4008540000000  0.4386510000000  0.5106040000000 1.0
C      1  0.4901230000000  0.5530410000000  0.5241290000000 1.0
C      1  0.4470770000000  0.5723460000000  0.5074930000000 1.0
C      1  0.5002220000000  0.4078620000000  0.4678530000000 1.0
C      1  0.4046250000000  0.4327920000000  0.4626250000000 1.0
C      1  0.5139430000000  0.5271200000000  0.4587800000000 1.0
C      1  0.4428090000000  0.5885000000000  0.5535810000000 1.0
C      1  0.4727020000000  0.4716480000000  0.5540900000000 1.0
C      1  0.4950310000000  0.5750100000000  0.4184430000000 1.0
C      1  0.4866320000000  0.5071010000000  0.3960060000000 1.0
C      1  0.4499350000000  0.4649930000000  0.5302320000000 1.0
C      1  0.5128490000000  0.5300370000000  0.5867530000000 1.0
C      1  0.4896300000000  0.5342540000000  0.4727910000000 1.0
C      1  0.4613160000000  0.4287060000000  0.5692980000000 1.0
C      1  0.4936700000000  0.4457900000000  0.5585110000000 1.0
C      1  0.5958490000000  0.5660550000000  0.4937720000000 1.0
C      1  0.5543430000000  0.4312470000000  0.5598290000000 1.0
C      1  0.6135090000000  0.4995680000000  0.5267640000000 1.0
C      1  0.5404270000000  0.5629090000000  0.4320620000000 1.0
C      1  0.5867190000000  0.5419780000000  0.4410090000000 1.0
C      1  0.4439690000000  0.4218600000000  0.4951550000000 1.0
C      1  0.5558560000000  0.5210070000000  0.4803350000000 1.0
C      1  0.5511310000000  0.4823000000000  0.5984030000000 1.0
C      1  0.3984900000000  0.4671770000000  0.4990220000000 1.0
C      1  0.5583480000000  0.5973880000000  0.4841900000000 1.0
C      1  0.4258370000000  0.5409740000000  0.5691950000000 1.0
C      1  0.6156940000000  0.5271600000000  0.5176640000000 1.0
C      1  0.5065190000000  0.4772150000000  0.4665160000000 1.0
C      1  0.5658130000000  0.5603950000000  0.4501970000000 1.0
C      1  0.5872180000000  0.4247160000000  0.4563910000000 1.0
C      1  0.5501200000000  0.5104630000000  0.6066890000000 1.0
C      1  0.4430670000000  0.5177320000000  0.5613790000000 1.0
C      1  0.4515330000000  0.4757040000000  0.5008020000000 1.0
C      1  0.4750610000000  0.5812540000000  0.5171490000000 1.0
C      1  0.5228460000000  0.5858370000000  0.4885200000000 1.0
C      1  0.4454140000000  0.5635820000000  0.5696820000000 1.0
C      1  0.4820380000000  0.4440950000000  0.4965990000000 1.0
C      1  0.5630620000000  0.4996420000000  0.4483070000000 1.0
C      1  0.5171550000000  0.4003560000000  0.5611760000000 1.0
C      1  0.5161740000000  0.5801200000000  0.4382810000000 1.0
C      1  0.4653780000000  0.5063450000000  0.4402150000000 1.0
C      1  0.4928540000000  0.5034430000000  0.4249400000000 1.0
C      1  0.3971310000000  0.5113880000000  0.4614940000000 1.0
C      1  0.5807660000000  0.4129510000000  0.4806190000000 1.0
C      1  0.4719370000000  0.5525600000000  0.5735860000000 1.0
C      1  0.4285060000000  0.5137940000000  0.5033530000000 1.0
C      1  0.5541140000000  0.4691080000000  0.4106450000000 1.0
C      1  0.4570510000000  0.5762450000000  0.4567350000000 1.0
C      1  0.5526120000000  0.4078760000000  0.4860900000000 1.0
C      1  0.4709930000000  0.4863130000000  0.6028690000000 1.0
C      1  0.4369080000000  0.5970660000000  0.4930700000000 1.0
C      1  0.4777390000000  0.4569540000000  0.4233770000000 1.0
C      1  0.4593800000000  0.5466470000000  0.4096880000000 1.0
C      1  0.5443250000000  0.5201040000000  0.5120620000000 1.0
C      1  0.4197880000000  0.4822900000000  0.5466270000000 1.0
C      1  0.5636120000000  0.4458410000000  0.4218590000000 1.0
C      1  0.5665890000000  0.5478990000000  0.5665920000000 1.0
C      1  0.4363290000000  0.4619870000000  0.4615110000000 1.0
C      1  0.5290970000000  0.4232270000000  0.5724130000000 1.0
C      1  0.5016980000000  0.5389270000000  0.4997240000000 1.0
C      1  0.4236790000000  0.5367680000000  0.4343500000000 1.0
C      1  0.5437720000000  0.4677960000000  0.5067320000000 1.0
C      1  0.4099550000000  0.5611070000000  0.5282180000000 1.0
C      1  0.4702390000000  0.5970200000000  0.5423140000000 1.0
C      1  0.5956970000000  0.4848890000000  0.4795820000000 1.0
C      1  0.4228700000000  0.5853700000000  0.4691060000000 1.0
C      1  0.4668380000000  0.5135520000000  0.6028300000000 1.0
C      1  0.5160360000000  0.4949300000000  0.5596320000000 1.0
C      1  0.5087650000000  0.5264390000000  0.4320510000000 1.0
C      1  0.4759580000000  0.4277380000000  0.4294520000000 1.0
C      1  0.4767180000000  0.5969840000000  0.4659890000000 1.0
C      1  0.4999920000000  0.4830890000000  0.6117710000000 1.0
C      1  0.4454520000000  0.5245530000000  0.4223650000000 1.0
C      1  0.3982440000000  0.5521820000000  0.5030550000000 1.0
C      1  0.5844460000000  0.5324760000000  0.4787700000000 1.0
C      1  0.3925990000000  0.4621760000000  0.4690680000000 1.0
C      1  0.5638950000000  0.5016650000000  0.5269550000000 1.0
C      1  0.5444750000000  0.4092080000000  0.5136580000000 1.0
C      1  0.4406310000000  0.4474940000000  0.5778000000000 1.0
C      1  0.4181690000000  0.4340720000000  0.5347770000000 1.0
C      1  0.5743600000000  0.5752620000000  0.4758230000000 1.0
C      1  0.4535200000000  0.4186490000000  0.4470580000000 1.0
C      1  0.5209820000000  0.4576340000000  0.5207100000000 1.0
C      1  0.4655910000000  0.6071530000000  0.4902850000000 1.0
C      1  0.4769150000000  0.3974410000000  0.5367290000000 1.0
C      1  0.5210300000000  0.5157200000000  0.6113180000000 1.0
C      1  0.4171910000000  0.4532070000000  0.5572990000000 1.0
C      1  0.5056340000000  0.5903980000000  0.4640190000000 1.0
C      1  0.4661200000000  0.5160970000000  0.4699140000000 1.0
C      1  0.4956220000000  0.5929170000000  0.5578210000000 1.0
C      1  0.4636530000000  0.4857840000000  0.3927940000000 1.0
C      1  0.5908700000000  0.4571630000000  0.5186530000000 1.0
C      1  0.6075500000000  0.4777940000000  0.5062260000000 1.0
C      1  0.5227510000000  0.4806160000000  0.5885230000000 1.0
C      1  0.4399180000000  0.5298680000000  0.4787910000000 1.0
C      1  0.4799750000000  0.4724020000000  0.4527050000000 1.0
C      1  0.5277660000000  0.5468160000000  0.5341570000000 1.0
C      1  0.5144910000000  0.4990500000000  0.3845710000000 1.0
C      1  0.4649430000000  0.4541000000000  0.4711350000000 1.0
C      1  0.5642080000000  0.5811530000000  0.5327360000000 1.0
C      1  0.4529400000000  0.5566590000000  0.4824370000000 1.0
C      1  0.5049150000000  0.5548160000000  0.3979240000000 1.0
C      1  0.5016980000000  0.4206450000000  0.4404870000000 1.0
C      1  0.5427960000000  0.4039000000000  0.4396830000000 1.0
C      1  0.4693650000000  0.5657300000000  0.4296820000000 1.0
C      1  0.5162420000000  0.4142030000000  0.5143160000000 1.0
C      1  0.4328680000000  0.4925790000000  0.5705160000000 1.0
C      1  0.5543100000000  0.6029730000000  0.5130370000000 1.0
C      1  0.5631870000000  0.4152950000000  0.5362310000000 1.0
C      1  0.5115440000000  0.4698190000000  0.3917140000000 1.0
C      1  0.4292570000000  0.4371040000000  0.4450780000000 1.0
C      1  0.5185690000000  0.5584840000000  0.5861300000000 1.0
C      1  0.4949940000000  0.4655690000000  0.5121060000000 1.0
C      1  0.4456770000000  0.4328310000000  0.5248300000000 1.0
C      1  0.5555010000000  0.4608610000000  0.5540530000000 1.0
C      1  0.4810250000000  0.5370710000000  0.3915070000000 1.0
C      1  0.5835710000000  0.5032360000000  0.5692770000000 1.0
C      1  0.4011380000000  0.4857370000000  0.4501080000000 1.0
C      1  0.5053230000000  0.4536230000000  0.6128250000000 1.0
C      1  0.5233170000000  0.4525200000000  0.4681590000000 1.0
C      1  0.5142590000000  0.5126310000000  0.5084360000000 1.0
C      1  0.5872850000000  0.5130130000000  0.5402910000000 1.0
C      1  0.4572390000000  0.4150460000000  0.5448570000000 1.0
C      1  0.4150810000000  0.5341760000000  0.4607820000000 1.0
C      1  0.5116640000000  0.4692600000000  0.4229780000000 1.0
C      1  0.5895290000000  0.5130090000000  0.4409780000000 1.0
C      1  0.5807750000000  0.4493320000000  0.4447810000000 1.0
C      1  0.5428240000000  0.5846370000000  0.5518230000000 1.0
C      1  0.5633420000000  0.5214360000000  0.5802820000000 1.0
C      1  0.4145880000000  0.4225700000000  0.4891350000000 1.0
C      1  0.3998710000000  0.5222100000000  0.5090990000000 1.0
C      1  0.5265650000000  0.5562280000000  0.4952360000000 1.0
C      1  0.5010330000000  0.4124830000000  0.5402090000000 1.0
C      1  0.5968360000000  0.4228800000000  0.5019350000000 1.0
C      1  0.5965840000000  0.5487390000000  0.5173750000000 1.0
C      1  0.5373190000000  0.5418210000000  0.4699220000000 1.0
C      1  0.5271420000000  0.5400290000000  0.4134280000000 1.0
C      1  0.6035290000000  0.5103700000000  0.4678460000000 1.0
C      1  0.5299900000000  0.5241110000000  0.5604670000000 1.0
C      1  0.4867220000000  0.4989970000000  0.5567070000000 1.0
C      1  0.5488500000000  0.4215120000000  0.4192010000000 1.0
C      1  0.4991950000000  0.4886760000000  0.4941660000000 1.0
C      1  0.4689330000000  0.5347270000000  0.5293570000000 1.0
C      1  0.5160230000000  0.4374420000000  0.5930370000000 1.0
C      1  0.4242750000000  0.4835150000000  0.4913380000000 1.0
C      1  0.5370650000000  0.5127260000000  0.4009060000000 1.0
C      1  0.4001350000000  0.5138040000000  0.5379590000000 1.0
C      1  0.5228630000000  0.4425430000000  0.4383590000000 1.0
C      1  0.4429260000000  0.4816900000000  0.4126230000000 1.0
C      1  0.5226210000000  0.6021810000000  0.5151860000000 1.0
C      1  0.5437010000000  0.5646530000000  0.5711920000000 1.0
C      1  0.5175140000000  0.5842590000000  0.5385780000000 1.0
C      1  0.5492730000000  0.4613010000000  0.4795970000000 1.0
C      1  0.4818060000000  0.4622830000000  0.3916100000000 1.0
C      1  0.4635720000000  0.4115920000000  0.4740340000000 1.0
C      1  0.5905300000000  0.4199700000000  0.5291010000000 1.0
C      1  0.5230370000000  0.4609040000000  0.5494490000000 1.0
C      1  0.4216930000000  0.5866720000000  0.5334260000000 1.0
C      1  0.5790740000000  0.5558890000000  0.5400080000000 1.0
C      1  0.4471110000000  0.5173050000000  0.5299350000000 1.0
C      1  0.4545620000000  0.4740740000000  0.5789960000000 1.0
C      1  0.5646620000000  0.4713690000000  0.5263440000000 1.0
C      1  0.4048320000000  0.5412000000000  0.5489350000000 1.0
C      1  0.5066250000000  0.4292740000000  0.4887900000000 1.0
C      1  0.5694850000000  0.4773840000000  0.5760040000000 1.0
C      1  0.4933550000000  0.5718940000000  0.5785830000000 1.0
C      1  0.5481500000000  0.4937980000000  0.4214230000000 1.0
C      1  0.5721810000000  0.4724980000000  0.4630240000000 1.0
C      1  0.4710940000000  0.4965110000000  0.4914820000000 1.0
END
