TITL C-951334-9093-714 9.33657943494967e-07 125000 -1204.3963392192 0 0 192 (C1) n - 1
REM
REM in /home/bkarasulu/work/CARBON/AIRSS/Generating-Clusters/EDIP-Nigel-Params/with-SteepDescent/Only-C1/SD-CG/HFTN-CG
REM
REM
REM
REM
REM
REM ./C.cell (11c1c37f851c82e70ff6c80c92926a4b)
REM
REM compiler GCC version 9.2.1 20190827 (Red Hat 9.2.1-1)
REM options -cpp -mtune=generic -march=x86-64 -g -O0 -fpre-include=/usr/include/finclude/math-vector-fortran.h
REM seed 8086530 1217809658 1816865650 -1149871142 1299614124 -2059693391 -851342077 562708246 347359602 239335618 -1867480681 -1677472125 709497157 1949939477 -1349856573 2024871174 -1496066731 -690012259 1797900984 -516198509 1164438826 -1168500279 -943179057 -1457996242 -976979918 918542176 -1960825800 -1271127967 -1928306135 -1824312599 -1698648202 -628193601 1802063604
REM
CELL 1.54180   50.00000   50.00000   50.00000   90.00000   90.00000   90.00000
LATT -1
SFAC C  
C      1  0.5166190000000  0.5580830000000  0.5950990000000 1.0
C      1  0.5680630000000  0.4818360000000  0.5839480000000 1.0
C      1  0.5039340000000  0.4731670000000  0.3875510000000 1.0
C      1  0.4203580000000  0.4951810000000  0.5712970000000 1.0
C      1  0.4921930000000  0.5737190000000  0.5901370000000 1.0
C      1  0.4605370000000  0.5880950000000  0.5557710000000 1.0
C      1  0.5150810000000  0.5647370000000  0.3986900000000 1.0
C      1  0.4879100000000  0.5454090000000  0.4547110000000 1.0
C      1  0.4866300000000  0.4334940000000  0.6033920000000 1.0
C      1  0.5358170000000  0.4360030000000  0.5074470000000 1.0
C      1  0.5113190000000  0.4436130000000  0.5956980000000 1.0
C      1  0.5448920000000  0.4901230000000  0.4063900000000 1.0
C      1  0.5368600000000  0.5243040000000  0.4554560000000 1.0
C      1  0.5153870000000  0.3873040000000  0.4787820000000 1.0
C      1  0.6077170000000  0.5025100000000  0.4583300000000 1.0
C      1  0.5054250000000  0.4404510000000  0.4251780000000 1.0
C      1  0.4296220000000  0.5760480000000  0.4482540000000 1.0
C      1  0.5408500000000  0.6003590000000  0.5430560000000 1.0
C      1  0.3893290000000  0.5067260000000  0.5419360000000 1.0
C      1  0.4735060000000  0.4101550000000  0.4349880000000 1.0
C      1  0.4333900000000  0.4870760000000  0.4861670000000 1.0
C      1  0.4539980000000  0.4823120000000  0.6110970000000 1.0
C      1  0.4763440000000  0.3927280000000  0.5107720000000 1.0
C      1  0.4195190000000  0.5673390000000  0.5372880000000 1.0
C      1  0.4726880000000  0.5636130000000  0.5679300000000 1.0
C      1  0.4335740000000  0.4123100000000  0.4964270000000 1.0
C      1  0.4679680000000  0.4631220000000  0.4538610000000 1.0
C      1  0.5562620000000  0.4649580000000  0.4143900000000 1.0
C      1  0.5888270000000  0.5562810000000  0.4380200000000 1.0
C      1  0.4175850000000  0.4545330000000  0.4619780000000 1.0
C      1  0.5058510000000  0.6030780000000  0.4603090000000 1.0
C      1  0.4979730000000  0.5851680000000  0.4399630000000 1.0
C      1  0.4010340000000  0.4796250000000  0.5541450000000 1.0
C      1  0.5726260000000  0.4417120000000  0.5604270000000 1.0
C      1  0.4758390000000  0.5819500000000  0.4712530000000 1.0
C      1  0.4428920000000  0.5279570000000  0.5272150000000 1.0
C      1  0.5820950000000  0.4333900000000  0.4851800000000 1.0
C      1  0.4334480000000  0.4919070000000  0.5164940000000 1.0
C      1  0.4479630000000  0.4560440000000  0.5837610000000 1.0
C      1  0.4927430000000  0.4809360000000  0.5727430000000 1.0
C      1  0.4584030000000  0.4679670000000  0.4828090000000 1.0
C      1  0.4094600000000  0.5812730000000  0.4906360000000 1.0
C      1  0.5436560000000  0.4508090000000  0.5580710000000 1.0
C      1  0.5139860000000  0.5400600000000  0.4414930000000 1.0
C      1  0.5326760000000  0.3784810000000  0.5021580000000 1.0
C      1  0.4351860000000  0.4336400000000  0.4524090000000 1.0
C      1  0.5007230000000  0.5180240000000  0.4250310000000 1.0
C      1  0.5234550000000  0.5644080000000  0.5245630000000 1.0
C      1  0.5606730000000  0.5689660000000  0.4318970000000 1.0
C      1  0.5409150000000  0.5777500000000  0.5034400000000 1.0
C      1  0.4459990000000  0.5142120000000  0.4737340000000 1.0
C      1  0.5857990000000  0.4671140000000  0.5666070000000 1.0
C      1  0.5061040000000  0.4921760000000  0.4391680000000 1.0
C      1  0.4878820000000  0.4001530000000  0.4839660000000 1.0
C      1  0.4118080000000  0.4418060000000  0.5215480000000 1.0
C      1  0.4824440000000  0.5061460000000  0.5830340000000 1.0
C      1  0.3885840000000  0.5378740000000  0.5014450000000 1.0
C      1  0.4514340000000  0.5116500000000  0.4433810000000 1.0
C      1  0.6144890000000  0.4701170000000  0.4938480000000 1.0
C      1  0.4921450000000  0.5704220000000  0.5209560000000 1.0
C      1  0.5852190000000  0.4615150000000  0.4935940000000 1.0
C      1  0.4398450000000  0.5585730000000  0.4268810000000 1.0
C      1  0.5378060000000  0.3897200000000  0.5510310000000 1.0
C      1  0.5420650000000  0.5708580000000  0.5842170000000 1.0
C      1  0.4672540000000  0.3974860000000  0.4614930000000 1.0
C      1  0.4420200000000  0.4112950000000  0.4693050000000 1.0
C      1  0.5826710000000  0.5499010000000  0.5104530000000 1.0
C      1  0.5593150000000  0.3903300000000  0.4942000000000 1.0
C      1  0.4964280000000  0.5239370000000  0.5388470000000 1.0
C      1  0.5143770000000  0.5389400000000  0.6161710000000 1.0
C      1  0.5397940000000  0.5477670000000  0.5432230000000 1.0
C      1  0.5165360000000  0.5669890000000  0.4278420000000 1.0
C      1  0.5622930000000  0.5613920000000  0.5567830000000 1.0
C      1  0.4357930000000  0.5419040000000  0.4826950000000 1.0
C      1  0.5376780000000  0.4440070000000  0.4276020000000 1.0
C      1  0.4724860000000  0.6191490000000  0.5097330000000 1.0
C      1  0.3910660000000  0.4876560000000  0.4916400000000 1.0
C      1  0.5015640000000  0.4112850000000  0.4242070000000 1.0
C      1  0.4635780000000  0.4420000000000  0.5286360000000 1.0
C      1  0.3904240000000  0.5432510000000  0.4704050000000 1.0
C      1  0.4036370000000  0.4587930000000  0.4884140000000 1.0
C      1  0.4074190000000  0.5223040000000  0.5619880000000 1.0
C      1  0.4441970000000  0.4118140000000  0.5451330000000 1.0
C      1  0.4943660000000  0.4479610000000  0.4569530000000 1.0
C      1  0.5521290000000  0.5423660000000  0.4183070000000 1.0
C      1  0.5522450000000  0.4767720000000  0.4571030000000 1.0
C      1  0.5060170000000  0.4896410000000  0.6167610000000 1.0
C      1  0.5120350000000  0.5204680000000  0.3963270000000 1.0
C      1  0.5332600000000  0.4530100000000  0.4571970000000 1.0
C      1  0.5140300000000  0.4726620000000  0.5915010000000 1.0
C      1  0.3952400000000  0.5206740000000  0.4521470000000 1.0
C      1  0.5789250000000  0.5353600000000  0.4847090000000 1.0
C      1  0.5729460000000  0.4136230000000  0.4404400000000 1.0
C      1  0.4639460000000  0.4311380000000  0.5875620000000 1.0
C      1  0.4486200000000  0.5936760000000  0.4638650000000 1.0
C      1  0.5227450000000  0.3877040000000  0.5274020000000 1.0
C      1  0.4497040000000  0.4017770000000  0.5174400000000 1.0
C      1  0.5314720000000  0.4854480000000  0.5059320000000 1.0
C      1  0.5061710000000  0.4738110000000  0.4984670000000 1.0
C      1  0.4099790000000  0.4765630000000  0.4458500000000 1.0
C      1  0.5026210000000  0.5977290000000  0.5757610000000 1.0
C      1  0.4947210000000  0.3871290000000  0.5324250000000 1.0
C      1  0.4445570000000  0.5835250000000  0.5309450000000 1.0
C      1  0.5759370000000  0.5082090000000  0.5885570000000 1.0
C      1  0.5905810000000  0.4880710000000  0.5353330000000 1.0
C      1  0.4666270000000  0.5305620000000  0.4007630000000 1.0
C      1  0.6079610000000  0.4963390000000  0.5094720000000 1.0
C      1  0.5535560000000  0.5810320000000  0.4607830000000 1.0
C      1  0.4595220000000  0.5154840000000  0.5689720000000 1.0
C      1  0.3964960000000  0.4948170000000  0.4635960000000 1.0
C      1  0.5852370000000  0.5390520000000  0.5531030000000 1.0
C      1  0.5191390000000  0.4028000000000  0.5687390000000 1.0
C      1  0.5892010000000  0.4296410000000  0.4569520000000 1.0
C      1  0.4937780000000  0.6142600000000  0.5276190000000 1.0
C      1  0.4885240000000  0.4315990000000  0.4853550000000 1.0
C      1  0.4578560000000  0.5049190000000  0.3938670000000 1.0
C      1  0.5759840000000  0.4625200000000  0.5215150000000 1.0
C      1  0.6173660000000  0.4740910000000  0.4636750000000 1.0
C      1  0.4773370000000  0.5005820000000  0.6114740000000 1.0
C      1  0.4904690000000  0.3969580000000  0.5597360000000 1.0
C      1  0.5727950000000  0.5128700000000  0.5446140000000 1.0
C      1  0.4603630000000  0.4399790000000  0.4973460000000 1.0
C      1  0.5250580000000  0.5123000000000  0.6166530000000 1.0
C      1  0.5797480000000  0.5831670000000  0.4774500000000 1.0
C      1  0.4740880000000  0.4894310000000  0.4381090000000 1.0
C      1  0.4152510000000  0.5604790000000  0.4702080000000 1.0
C      1  0.5267710000000  0.3985190000000  0.4323770000000 1.0
C      1  0.5380300000000  0.5616710000000  0.4790230000000 1.0
C      1  0.5236080000000  0.5088680000000  0.5577960000000 1.0
C      1  0.5922860000000  0.5574880000000  0.4675910000000 1.0
C      1  0.4279950000000  0.5413180000000  0.5507310000000 1.0
C      1  0.4185230000000  0.5448910000000  0.4147150000000 1.0
C      1  0.5682760000000  0.4842840000000  0.4816120000000 1.0
C      1  0.5823510000000  0.4339920000000  0.5333040000000 1.0
C      1  0.4904340000000  0.5384060000000  0.3861370000000 1.0
C      1  0.5352770000000  0.6153570000000  0.4960910000000 1.0
C      1  0.5311480000000  0.5945380000000  0.5699990000000 1.0
C      1  0.4895410000000  0.4738640000000  0.5445410000000 1.0
C      1  0.5056860000000  0.4453650000000  0.5071220000000 1.0
C      1  0.5809330000000  0.4732910000000  0.4307720000000 1.0
C      1  0.4539400000000  0.4336460000000  0.4296940000000 1.0
C      1  0.5668410000000  0.5863360000000  0.5385180000000 1.0
C      1  0.5355590000000  0.5190170000000  0.5879250000000 1.0
C      1  0.5344280000000  0.5154380000000  0.5077920000000 1.0
C      1  0.4283570000000  0.4864110000000  0.5981620000000 1.0
C      1  0.4802650000000  0.4854810000000  0.4920930000000 1.0
C      1  0.5336120000000  0.5417420000000  0.3957490000000 1.0
C      1  0.4663410000000  0.5132680000000  0.5405310000000 1.0
C      1  0.5439330000000  0.5197140000000  0.5373690000000 1.0
C      1  0.5489600000000  0.4163240000000  0.4265760000000 1.0
C      1  0.4838880000000  0.6064440000000  0.5543350000000 1.0
C      1  0.4403850000000  0.4596040000000  0.5542390000000 1.0
C      1  0.4628700000000  0.4840920000000  0.5325150000000 1.0
C      1  0.5232940000000  0.6129390000000  0.5225220000000 1.0
C      1  0.4764920000000  0.5601930000000  0.4974450000000 1.0
C      1  0.4113680000000  0.4721950000000  0.5270910000000 1.0
C      1  0.5387090000000  0.4322590000000  0.4770380000000 1.0
C      1  0.4622860000000  0.5382390000000  0.4317250000000 1.0
C      1  0.4452570000000  0.4833870000000  0.4058830000000 1.0
C      1  0.5455530000000  0.4626820000000  0.5209680000000 1.0
C      1  0.4622210000000  0.4587350000000  0.4121080000000 1.0
C      1  0.4898180000000  0.5353060000000  0.4861760000000 1.0
C      1  0.5908630000000  0.5063310000000  0.4836690000000 1.0
C      1  0.3934360000000  0.5103160000000  0.5121920000000 1.0
C      1  0.5797710000000  0.5294200000000  0.4248650000000 1.0
C      1  0.4470150000000  0.6070000000000  0.5126460000000 1.0
C      1  0.5227690000000  0.4934670000000  0.3878590000000 1.0
C      1  0.5364010000000  0.4975430000000  0.4424100000000 1.0
C      1  0.4247290000000  0.4347870000000  0.5461470000000 1.0
C      1  0.5620230000000  0.5316500000000  0.5901130000000 1.0
C      1  0.5897420000000  0.5026330000000  0.4348000000000 1.0
C      1  0.5401290000000  0.4775570000000  0.5736040000000 1.0
C      1  0.5477860000000  0.5334080000000  0.4817540000000 1.0
C      1  0.4008620000000  0.5643520000000  0.5141540000000 1.0
C      1  0.5717500000000  0.5777160000000  0.5087510000000 1.0
C      1  0.6004080000000  0.4550540000000  0.4454240000000 1.0
C      1  0.5331940000000  0.6045870000000  0.4690380000000 1.0
C      1  0.4674650000000  0.4151370000000  0.5635420000000 1.0
C      1  0.4323320000000  0.6011610000000  0.4881580000000 1.0
C      1  0.4925330000000  0.4465620000000  0.5341700000000 1.0
C      1  0.4227660000000  0.4930450000000  0.4244270000000 1.0
C      1  0.4928050000000  0.5531370000000  0.5461610000000 1.0
C      1  0.4724510000000  0.5123010000000  0.4859310000000 1.0
C      1  0.5401620000000  0.4038440000000  0.4676540000000 1.0
C      1  0.4903350000000  0.4548780000000  0.4031830000000 1.0
C      1  0.5245580000000  0.4314810000000  0.5732020000000 1.0
C      1  0.4483180000000  0.5521230000000  0.5077520000000 1.0
C      1  0.5671260000000  0.4176560000000  0.5075060000000 1.0
C      1  0.4113600000000  0.5211170000000  0.4275220000000 1.0
C      1  0.5073910000000  0.5271930000000  0.5103020000000 1.0
C      1  0.6014600000000  0.5442810000000  0.5307770000000 1.0
C      1  0.4502710000000  0.5434880000000  0.5728130000000 1.0
END
