TITL C-950521-2237-664 -6.00025296086932e-06 125000 -635.972495793454 0 0 104 (C1) n - 1
REM
REM in /home/bkarasulu/work/CARBON/AIRSS/Generating-Clusters/EDIP-Nigel-Params/with-SteepDescent/Only-C1/SD-CG/HFTN-CG
REM
REM
REM
REM
REM
REM ./C.cell (11c1c37f851c82e70ff6c80c92926a4b)
REM
REM compiler GCC version 9.2.1 20190827 (Red Hat 9.2.1-1)
REM options -cpp -mtune=generic -march=x86-64 -g -O0 -fpre-include=/usr/include/finclude/math-vector-fortran.h
REM seed -136928646 866524348 1594773191 1326166907 175356876 1909265404 377035147 1798753228 180303002 -1885870174 -1929392728 822832174 -1559057988 -1877640247 832387384 -1685846223 -2020940027 2088402972 -876760452 -2142005697 -1856386654 1277263031 972907420 18791366 1128487866 426722369 209380053 1852330371 -1911859266 -1225642448 -960159725 1612133259 418284127
REM
CELL 1.54180   50.00000   50.00000   50.00000   90.00000   90.00000   90.00000
LATT -1
SFAC C  
C      1  0.4332860000000  0.4718510000000  0.5745840000000 1.0
C      1  0.5349360000000  0.4585480000000  0.5591380000000 1.0
C      1  0.4848330000000  0.5739820000000  0.5151170000000 1.0
C      1  0.5296420000000  0.4170810000000  0.4987530000000 1.0
C      1  0.4378910000000  0.4420890000000  0.4473630000000 1.0
C      1  0.5403040000000  0.4634510000000  0.4724320000000 1.0
C      1  0.4569540000000  0.5346820000000  0.4542140000000 1.0
C      1  0.5134090000000  0.4582030000000  0.4139420000000 1.0
C      1  0.4805150000000  0.4332540000000  0.5338370000000 1.0
C      1  0.4792170000000  0.5251830000000  0.5709580000000 1.0
C      1  0.5597000000000  0.5625890000000  0.4925710000000 1.0
C      1  0.4924180000000  0.4800570000000  0.4591320000000 1.0
C      1  0.4531090000000  0.5596590000000  0.4681120000000 1.0
C      1  0.4121600000000  0.5209790000000  0.4664250000000 1.0
C      1  0.4787720000000  0.5735490000000  0.4653370000000 1.0
C      1  0.4586750000000  0.4397970000000  0.5167220000000 1.0
C      1  0.5159190000000  0.5295750000000  0.4598180000000 1.0
C      1  0.5825960000000  0.4959120000000  0.4582850000000 1.0
C      1  0.5237730000000  0.5549630000000  0.5066240000000 1.0
C      1  0.5305480000000  0.5880290000000  0.5283050000000 1.0
C      1  0.5201340000000  0.4882140000000  0.5943240000000 1.0
C      1  0.4277610000000  0.4535020000000  0.5540950000000 1.0
C      1  0.5493110000000  0.5670400000000  0.5217950000000 1.0
C      1  0.4938330000000  0.5814910000000  0.4885770000000 1.0
C      1  0.4152290000000  0.5167470000000  0.5191280000000 1.0
C      1  0.5652960000000  0.5204360000000  0.4688000000000 1.0
C      1  0.4045050000000  0.4906610000000  0.5189030000000 1.0
C      1  0.5349140000000  0.5135620000000  0.4759000000000 1.0
C      1  0.5472450000000  0.4826250000000  0.5241560000000 1.0
C      1  0.4582430000000  0.5074700000000  0.5826380000000 1.0
C      1  0.4582480000000  0.5595950000000  0.5169650000000 1.0
C      1  0.5117400000000  0.5067420000000  0.5474710000000 1.0
C      1  0.4333960000000  0.4791780000000  0.4776320000000 1.0
C      1  0.4104360000000  0.4634150000000  0.5216360000000 1.0
C      1  0.5341240000000  0.4929410000000  0.4323930000000 1.0
C      1  0.4319800000000  0.5248320000000  0.4416510000000 1.0
C      1  0.4952860000000  0.5157020000000  0.4435630000000 1.0
C      1  0.5541950000000  0.5294760000000  0.5447410000000 1.0
C      1  0.5416640000000  0.4667930000000  0.4184770000000 1.0
C      1  0.5729710000000  0.4948790000000  0.4307910000000 1.0
C      1  0.4317120000000  0.5243960000000  0.5426180000000 1.0
C      1  0.4377880000000  0.4954380000000  0.4301100000000 1.0
C      1  0.5097650000000  0.5064210000000  0.4191330000000 1.0
C      1  0.5277980000000  0.4234210000000  0.4486650000000 1.0
C      1  0.5592020000000  0.4607080000000  0.4469100000000 1.0
C      1  0.4392710000000  0.4603260000000  0.5279450000000 1.0
C      1  0.5454560000000  0.4338860000000  0.5166590000000 1.0
C      1  0.5079410000000  0.4359680000000  0.4323420000000 1.0
C      1  0.4785900000000  0.5386010000000  0.4349440000000 1.0
C      1  0.5238950000000  0.5544550000000  0.4470330000000 1.0
C      1  0.5287820000000  0.4577740000000  0.5298460000000 1.0
C      1  0.5713100000000  0.4396080000000  0.5061850000000 1.0
C      1  0.4544230000000  0.4938700000000  0.4944800000000 1.0
C      1  0.4487670000000  0.4882750000000  0.5238190000000 1.0
C      1  0.4977850000000  0.4798580000000  0.5368940000000 1.0
C      1  0.5804100000000  0.4642940000000  0.4959130000000 1.0
C      1  0.5607960000000  0.4727000000000  0.5591540000000 1.0
C      1  0.5706580000000  0.4975690000000  0.5694640000000 1.0
C      1  0.5865870000000  0.5257790000000  0.5136430000000 1.0
C      1  0.5391450000000  0.5712300000000  0.4695010000000 1.0
C      1  0.4321660000000  0.5093820000000  0.5681970000000 1.0
C      1  0.5510760000000  0.5200770000000  0.5729460000000 1.0
C      1  0.5091470000000  0.5588560000000  0.5828780000000 1.0
C      1  0.5021180000000  0.5764600000000  0.5638050000000 1.0
C      1  0.5032390000000  0.5320640000000  0.5867900000000 1.0
C      1  0.5129380000000  0.4679880000000  0.5766060000000 1.0
C      1  0.4977850000000  0.5131250000000  0.5043480000000 1.0
C      1  0.4845110000000  0.4601840000000  0.5735880000000 1.0
C      1  0.5652880000000  0.5383080000000  0.4454490000000 1.0
C      1  0.4666250000000  0.4477860000000  0.4891440000000 1.0
C      1  0.4926630000000  0.4818330000000  0.4146660000000 1.0
C      1  0.5808200000000  0.5200250000000  0.5400070000000 1.0
C      1  0.4412550000000  0.4516250000000  0.4733620000000 1.0
C      1  0.5041050000000  0.5809470000000  0.5363670000000 1.0
C      1  0.4788350000000  0.4352530000000  0.5609780000000 1.0
C      1  0.4709780000000  0.4974610000000  0.5422480000000 1.0
C      1  0.4219380000000  0.5301240000000  0.4934320000000 1.0
C      1  0.5002900000000  0.4830460000000  0.5074250000000 1.0
C      1  0.5357610000000  0.5110570000000  0.5295930000000 1.0
C      1  0.5556740000000  0.4794600000000  0.4956180000000 1.0
C      1  0.5104760000000  0.4028670000000  0.5131780000000 1.0
C      1  0.4612380000000  0.4779930000000  0.5805330000000 1.0
C      1  0.4868100000000  0.4485190000000  0.4483270000000 1.0
C      1  0.5889830000000  0.4689880000000  0.4686700000000 1.0
C      1  0.5242860000000  0.4859270000000  0.4614130000000 1.0
C      1  0.4933660000000  0.4093230000000  0.5333000000000 1.0
C      1  0.4635030000000  0.4791220000000  0.4261430000000 1.0
C      1  0.4178870000000  0.4915070000000  0.4557840000000 1.0
C      1  0.4679860000000  0.5488490000000  0.5602460000000 1.0
C      1  0.4789760000000  0.4762740000000  0.4878850000000 1.0
C      1  0.5204480000000  0.5884440000000  0.4823270000000 1.0
C      1  0.5759390000000  0.5372380000000  0.4905740000000 1.0
C      1  0.4803530000000  0.5242130000000  0.5278990000000 1.0
C      1  0.5220340000000  0.5114380000000  0.5769060000000 1.0
C      1  0.4396360000000  0.5553320000000  0.4940010000000 1.0
C      1  0.5201540000000  0.4338560000000  0.4752830000000 1.0
C      1  0.4878440000000  0.4325930000000  0.4741580000000 1.0
C      1  0.5649690000000  0.5224060000000  0.4214790000000 1.0
C      1  0.4474820000000  0.5492800000000  0.5418100000000 1.0
C      1  0.4651140000000  0.5242910000000  0.4919360000000 1.0
C      1  0.5360700000000  0.5350080000000  0.4210240000000 1.0
C      1  0.4942280000000  0.5636420000000  0.4415430000000 1.0
C      1  0.5251980000000  0.5240720000000  0.5042230000000 1.0
C      1  0.4605570000000  0.4504450000000  0.4333450000000 1.0
END
