TITL C-951348-1603-436 -1.02338283538616e-06 125000 -670.888888036168 0 0 108 (C1) n - 1
REM
REM in /home/bkarasulu/work/CARBON/AIRSS/Generating-Clusters/EDIP-Nigel-Params/with-SteepDescent/Only-C1/SD-CG/HFTN-CG
REM
REM
REM
REM
REM
REM ./C.cell (11c1c37f851c82e70ff6c80c92926a4b)
REM
REM compiler GCC version 9.2.1 20190827 (Red Hat 9.2.1-1)
REM options -cpp -mtune=generic -march=x86-64 -g -O0 -fpre-include=/usr/include/finclude/math-vector-fortran.h
REM seed 1768079533 -649028881 -1193457265 531631172 1085106859 -1881350176 902586541 2119367098 -683359035 2135350595 1695768003 -1983222221 -2017020084 -1136454654 -284970872 -1055895718 1205235239 476202914 942886317 -1575738599 1700504592 -33377726 -505278586 -1496533126 -1206571912 -937004252 -1849119838 -1768620718 -215672285 287399404 -1785523915 1292671609 1457315573
REM
CELL 1.54180   50.00000   50.00000   50.00000   90.00000   90.00000   90.00000
LATT -1
SFAC C  
C      1  0.4623520000000  0.4584970000000  0.5544400000000 1.0
C      1  0.4746670000000  0.4115480000000  0.5338270000000 1.0
C      1  0.4781080000000  0.4464270000000  0.4183860000000 1.0
C      1  0.4096410000000  0.5370820000000  0.5038550000000 1.0
C      1  0.4383480000000  0.5011740000000  0.5528430000000 1.0
C      1  0.5587830000000  0.5104260000000  0.5312580000000 1.0
C      1  0.5679270000000  0.4612130000000  0.4465180000000 1.0
C      1  0.4598810000000  0.5736910000000  0.5440230000000 1.0
C      1  0.4599870000000  0.4122990000000  0.5102480000000 1.0
C      1  0.4710930000000  0.5252930000000  0.5766230000000 1.0
C      1  0.4652650000000  0.5763400000000  0.5714820000000 1.0
C      1  0.5336980000000  0.5776450000000  0.5271230000000 1.0
C      1  0.4986980000000  0.4983170000000  0.5387750000000 1.0
C      1  0.5125000000000  0.5254750000000  0.4136370000000 1.0
C      1  0.5727270000000  0.4514550000000  0.4748250000000 1.0
C      1  0.5935810000000  0.4780870000000  0.4912470000000 1.0
C      1  0.4350010000000  0.4240210000000  0.5080430000000 1.0
C      1  0.4629960000000  0.5332030000000  0.4338500000000 1.0
C      1  0.4578210000000  0.5164190000000  0.4594760000000 1.0
C      1  0.4673540000000  0.4792460000000  0.4757490000000 1.0
C      1  0.5773530000000  0.5246230000000  0.4836000000000 1.0
C      1  0.5429890000000  0.5260760000000  0.4237310000000 1.0
C      1  0.5252400000000  0.4873000000000  0.5810270000000 1.0
C      1  0.4567940000000  0.4682150000000  0.5251250000000 1.0
C      1  0.5471950000000  0.4822090000000  0.5215980000000 1.0
C      1  0.4879560000000  0.4956490000000  0.4086230000000 1.0
C      1  0.5029910000000  0.4721160000000  0.4966210000000 1.0
C      1  0.4968710000000  0.5413550000000  0.5711210000000 1.0
C      1  0.4706130000000  0.4969990000000  0.5223660000000 1.0
C      1  0.4666570000000  0.4312200000000  0.4645330000000 1.0
C      1  0.5488330000000  0.4378640000000  0.4867150000000 1.0
C      1  0.5518710000000  0.5592590000000  0.5413820000000 1.0
C      1  0.5265710000000  0.5334880000000  0.5772230000000 1.0
C      1  0.4185820000000  0.4649140000000  0.5273240000000 1.0
C      1  0.4344840000000  0.4999630000000  0.4554800000000 1.0
C      1  0.5385190000000  0.5323940000000  0.5490500000000 1.0
C      1  0.4488640000000  0.5586870000000  0.4748850000000 1.0
C      1  0.5184680000000  0.4103210000000  0.5145360000000 1.0
C      1  0.4665970000000  0.4535100000000  0.4956760000000 1.0
C      1  0.5214010000000  0.4376730000000  0.4756800000000 1.0
C      1  0.4251460000000  0.4917770000000  0.4811530000000 1.0
C      1  0.4622450000000  0.5334460000000  0.4851320000000 1.0
C      1  0.4511180000000  0.4815260000000  0.5705420000000 1.0
C      1  0.5255200000000  0.4817890000000  0.4787670000000 1.0
C      1  0.4830780000000  0.4942640000000  0.4960180000000 1.0
C      1  0.4977290000000  0.4858990000000  0.5683450000000 1.0
C      1  0.4178780000000  0.5538580000000  0.5266560000000 1.0
C      1  0.5423830000000  0.4546760000000  0.4320900000000 1.0
C      1  0.4235620000000  0.4489540000000  0.5040580000000 1.0
C      1  0.5018000000000  0.4180490000000  0.5372820000000 1.0
C      1  0.5232390000000  0.4614160000000  0.4105480000000 1.0
C      1  0.5850610000000  0.4988980000000  0.5409910000000 1.0
C      1  0.5504440000000  0.5454080000000  0.4464220000000 1.0
C      1  0.4767100000000  0.4154300000000  0.4864910000000 1.0
C      1  0.5299900000000  0.5797830000000  0.4829380000000 1.0
C      1  0.4685340000000  0.5819030000000  0.4766040000000 1.0
C      1  0.5745800000000  0.5409490000000  0.4606930000000 1.0
C      1  0.5078650000000  0.5423950000000  0.5095760000000 1.0
C      1  0.5453550000000  0.4233190000000  0.5129370000000 1.0
C      1  0.5140950000000  0.5946300000000  0.4668110000000 1.0
C      1  0.4470040000000  0.5280900000000  0.5589670000000 1.0
C      1  0.5497970000000  0.4849450000000  0.4925440000000 1.0
C      1  0.5099380000000  0.4466780000000  0.5439680000000 1.0
C      1  0.4211480000000  0.4933910000000  0.5304380000000 1.0
C      1  0.5564580000000  0.4339750000000  0.5384560000000 1.0
C      1  0.4414990000000  0.4761350000000  0.4392370000000 1.0
C      1  0.5313520000000  0.5383820000000  0.4682260000000 1.0
C      1  0.4911250000000  0.5367850000000  0.4865310000000 1.0
C      1  0.5656740000000  0.5312690000000  0.5096040000000 1.0
C      1  0.5261450000000  0.5054130000000  0.4607370000000 1.0
C      1  0.5098700000000  0.5282470000000  0.5365920000000 1.0
C      1  0.5156200000000  0.4887250000000  0.4049490000000 1.0
C      1  0.5735620000000  0.4958950000000  0.4777040000000 1.0
C      1  0.5985030000000  0.4881270000000  0.5176630000000 1.0
C      1  0.4820920000000  0.5829370000000  0.5275990000000 1.0
C      1  0.5017330000000  0.4446610000000  0.4031950000000 1.0
C      1  0.4870430000000  0.4771990000000  0.4520330000000 1.0
C      1  0.4523980000000  0.5222200000000  0.5121410000000 1.0
C      1  0.5441950000000  0.4988710000000  0.4370970000000 1.0
C      1  0.4250330000000  0.5103600000000  0.5057710000000 1.0
C      1  0.4713400000000  0.4750530000000  0.4264670000000 1.0
C      1  0.4993920000000  0.5043300000000  0.4503950000000 1.0
C      1  0.4914700000000  0.5695350000000  0.5783300000000 1.0
C      1  0.5740090000000  0.4755890000000  0.5563540000000 1.0
C      1  0.4927260000000  0.5778380000000  0.4596560000000 1.0
C      1  0.5325420000000  0.5584020000000  0.5019980000000 1.0
C      1  0.5722350000000  0.4572800000000  0.5332100000000 1.0
C      1  0.4742310000000  0.4967760000000  0.5831170000000 1.0
C      1  0.5087480000000  0.5859750000000  0.5410210000000 1.0
C      1  0.4933160000000  0.5313210000000  0.4375480000000 1.0
C      1  0.5363850000000  0.4456510000000  0.5568300000000 1.0
C      1  0.5320440000000  0.5113310000000  0.5926670000000 1.0
C      1  0.4861200000000  0.4334060000000  0.4433180000000 1.0
C      1  0.4454840000000  0.5475860000000  0.5359900000000 1.0
C      1  0.4467980000000  0.5536000000000  0.4460810000000 1.0
C      1  0.5155060000000  0.4748140000000  0.5248790000000 1.0
C      1  0.5094910000000  0.4511240000000  0.4514140000000 1.0
C      1  0.4906110000000  0.4575820000000  0.5632220000000 1.0
C      1  0.5056300000000  0.4182060000000  0.4897930000000 1.0
C      1  0.4221960000000  0.5601640000000  0.4891150000000 1.0
C      1  0.5022990000000  0.5487250000000  0.4614490000000 1.0
C      1  0.4760410000000  0.5906960000000  0.5017120000000 1.0
C      1  0.5708240000000  0.4904220000000  0.4475430000000 1.0
C      1  0.5718490000000  0.5554450000000  0.5218620000000 1.0
C      1  0.5106130000000  0.5876250000000  0.5692090000000 1.0
C      1  0.4268830000000  0.4632310000000  0.4792740000000 1.0
C      1  0.5449940000000  0.4726280000000  0.5647720000000 1.0
C      1  0.4304220000000  0.4533030000000  0.4527390000000 1.0
END
