TITL C-950536-5891-155 1.24776910328542e-06 125000 -284.258461175137 0 0 47 (C1) n - 1
REM
REM in /home/bkarasulu/work/CARBON/AIRSS/Generating-Clusters/EDIP-Nigel-Params/with-SteepDescent/Only-C1/SD-CG/HFTN-CG
REM
REM
REM
REM
REM
REM ./C.cell (11c1c37f851c82e70ff6c80c92926a4b)
REM
REM compiler GCC version 9.2.1 20190827 (Red Hat 9.2.1-1)
REM options -cpp -mtune=generic -march=x86-64 -g -O0 -fpre-include=/usr/include/finclude/math-vector-fortran.h
REM seed 1490653659 -1042002556 979726780 -252834841 85289871 442145583 871303998 -167350927 2009841174 -802269473 -612570082 140271045 1705476972 985505017 1167533578 -1514639271 711302940 -255735636 1138489303 1501498338 956985598 -160724775 1780362848 -1349499438 1169552474 -1462672583 -386771432 -282329195 1049707367 1776242424 2047972943 -732132172 -292965164
REM
CELL 1.54180   50.00000   50.00000   50.00000   90.00000   90.00000   90.00000
LATT -1
SFAC C  
C      1  0.5227090000000  0.4630510000000  0.4717740000000 1.0
C      1  0.4921400000000  0.4392010000000  0.5241680000000 1.0
C      1  0.5434250000000  0.5146390000000  0.5341020000000 1.0
C      1  0.5321360000000  0.5457070000000  0.4986620000000 1.0
C      1  0.4764210000000  0.5037870000000  0.5045480000000 1.0
C      1  0.4714370000000  0.4995230000000  0.5345250000000 1.0
C      1  0.5061900000000  0.5455060000000  0.5129260000000 1.0
C      1  0.5443550000000  0.4573180000000  0.4910630000000 1.0
C      1  0.5285480000000  0.4944040000000  0.5179240000000 1.0
C      1  0.5372020000000  0.4410250000000  0.5125540000000 1.0
C      1  0.4427810000000  0.4879510000000  0.4716850000000 1.0
C      1  0.5123460000000  0.5060130000000  0.5700250000000 1.0
C      1  0.4671880000000  0.5521610000000  0.5316080000000 1.0
C      1  0.4606180000000  0.5255170000000  0.5458900000000 1.0
C      1  0.4769620000000  0.4491980000000  0.5031520000000 1.0
C      1  0.4635900000000  0.4815090000000  0.4519710000000 1.0
C      1  0.5387120000000  0.5317410000000  0.4497310000000 1.0
C      1  0.5303580000000  0.4830290000000  0.4508930000000 1.0
C      1  0.5233850000000  0.5290760000000  0.5533250000000 1.0
C      1  0.4490360000000  0.4598150000000  0.5084970000000 1.0
C      1  0.4349980000000  0.5305530000000  0.5334990000000 1.0
C      1  0.5355360000000  0.4836840000000  0.5648030000000 1.0
C      1  0.5184470000000  0.4749690000000  0.5391600000000 1.0
C      1  0.4337190000000  0.4648320000000  0.4849340000000 1.0
C      1  0.4501660000000  0.5100840000000  0.4918720000000 1.0
C      1  0.4947170000000  0.4944920000000  0.4833760000000 1.0
C      1  0.5584220000000  0.4974180000000  0.5532220000000 1.0
C      1  0.5177150000000  0.4461280000000  0.5316010000000 1.0
C      1  0.4309240000000  0.5076810000000  0.5162060000000 1.0
C      1  0.5158370000000  0.5266190000000  0.4310090000000 1.0
C      1  0.5552920000000  0.5283770000000  0.5086240000000 1.0
C      1  0.5226930000000  0.5041020000000  0.4885010000000 1.0
C      1  0.5648710000000  0.5056010000000  0.4873210000000 1.0
C      1  0.5239900000000  0.5395160000000  0.4726440000000 1.0
C      1  0.5043760000000  0.5470790000000  0.5412720000000 1.0
C      1  0.4942630000000  0.5446520000000  0.4383340000000 1.0
C      1  0.4617400000000  0.5375370000000  0.4798080000000 1.0
C      1  0.4907520000000  0.4565410000000  0.4764950000000 1.0
C      1  0.4456470000000  0.4826970000000  0.5289060000000 1.0
C      1  0.4931890000000  0.4870070000000  0.5521600000000 1.0
C      1  0.5630810000000  0.4781800000000  0.4956970000000 1.0
C      1  0.4732610000000  0.4550950000000  0.4533250000000 1.0
C      1  0.5489010000000  0.5056550000000  0.4600350000000 1.0
C      1  0.4760590000000  0.5296220000000  0.4541670000000 1.0
C      1  0.4849930000000  0.5012650000000  0.4555820000000 1.0
C      1  0.4787440000000  0.5528690000000  0.5017030000000 1.0
C      1  0.5081300000000  0.4975730000000  0.4367190000000 1.0
END
