TITL C-951335-1172-667 -2.76665728143348e-06 125000 -826.433170644699 0 0 131 (C1) n - 1
REM
REM in /home/bkarasulu/work/CARBON/AIRSS/Generating-Clusters/EDIP-Nigel-Params/with-SteepDescent/Only-C1/SD-CG/HFTN-CG
REM
REM
REM
REM
REM
REM ./C.cell (11c1c37f851c82e70ff6c80c92926a4b)
REM
REM compiler GCC version 9.2.1 20190827 (Red Hat 9.2.1-1)
REM options -cpp -mtune=generic -march=x86-64 -g -O0 -fpre-include=/usr/include/finclude/math-vector-fortran.h
REM seed -605867237 401238371 -2103074690 1274973888 786133589 1943417483 276870433 1327893586 1745518098 -1379036038 -523236078 1634175567 1924968470 -1377603001 -1814409951 -89207595 1316084166 99405728 -127933081 1346537997 -2118578246 1825253269 -310346567 1331148124 773618672 578662732 -1935388242 -443036064 -539157249 -611789188 -1995314054 1698634398 1959267648
REM
CELL 1.54180   50.00000   50.00000   50.00000   90.00000   90.00000   90.00000
LATT -1
SFAC C  
C      1  0.5502440000000  0.4404870000000  0.4613070000000 1.0
C      1  0.4719290000000  0.5223310000000  0.4419420000000 1.0
C      1  0.4937290000000  0.4166150000000  0.5514510000000 1.0
C      1  0.4496490000000  0.4879250000000  0.4161520000000 1.0
C      1  0.5603740000000  0.5701500000000  0.5110350000000 1.0
C      1  0.5083010000000  0.3991050000000  0.4656260000000 1.0
C      1  0.4401860000000  0.4382660000000  0.5149490000000 1.0
C      1  0.4705210000000  0.4640790000000  0.5646800000000 1.0
C      1  0.4840890000000  0.5812510000000  0.4555430000000 1.0
C      1  0.4331780000000  0.4922720000000  0.4408370000000 1.0
C      1  0.5189660000000  0.5210080000000  0.3968040000000 1.0
C      1  0.4794380000000  0.4378890000000  0.4816330000000 1.0
C      1  0.4620960000000  0.4619330000000  0.4226780000000 1.0
C      1  0.5321760000000  0.5677190000000  0.4443120000000 1.0
C      1  0.4994910000000  0.4462020000000  0.4557410000000 1.0
C      1  0.4068510000000  0.5013040000000  0.5019000000000 1.0
C      1  0.5430500000000  0.5149340000000  0.4807860000000 1.0
C      1  0.4672690000000  0.5348020000000  0.5283700000000 1.0
C      1  0.4776150000000  0.3939690000000  0.4735300000000 1.0
C      1  0.5294770000000  0.5158530000000  0.5435750000000 1.0
C      1  0.4430830000000  0.5164670000000  0.4557330000000 1.0
C      1  0.5219820000000  0.4176830000000  0.5551240000000 1.0
C      1  0.4519310000000  0.5554560000000  0.5494390000000 1.0
C      1  0.4839580000000  0.3937470000000  0.5026060000000 1.0
C      1  0.5325710000000  0.4366580000000  0.5755420000000 1.0
C      1  0.4268450000000  0.5424010000000  0.5600590000000 1.0
C      1  0.5510810000000  0.4823560000000  0.5129150000000 1.0
C      1  0.4593890000000  0.4573340000000  0.4970080000000 1.0
C      1  0.4810640000000  0.5583930000000  0.4109200000000 1.0
C      1  0.4811400000000  0.5139990000000  0.5524320000000 1.0
C      1  0.4700290000000  0.5064500000000  0.5086720000000 1.0
C      1  0.4338430000000  0.4251750000000  0.4824480000000 1.0
C      1  0.5808350000000  0.4751840000000  0.5172270000000 1.0
C      1  0.5005310000000  0.5025690000000  0.5032080000000 1.0
C      1  0.5117300000000  0.5863870000000  0.4522540000000 1.0
C      1  0.5948870000000  0.4895770000000  0.4970770000000 1.0
C      1  0.5401100000000  0.4415610000000  0.4145050000000 1.0
C      1  0.5107100000000  0.4717200000000  0.5441090000000 1.0
C      1  0.4830140000000  0.4611560000000  0.5383830000000 1.0
C      1  0.4717590000000  0.5946700000000  0.5325020000000 1.0
C      1  0.4237400000000  0.4861240000000  0.5439440000000 1.0
C      1  0.5469440000000  0.5953220000000  0.5091950000000 1.0
C      1  0.5057140000000  0.5012400000000  0.5379870000000 1.0
C      1  0.5385890000000  0.4268350000000  0.4382630000000 1.0
C      1  0.5916400000000  0.5337860000000  0.5055720000000 1.0
C      1  0.4867630000000  0.5537130000000  0.5117720000000 1.0
C      1  0.5560020000000  0.4898690000000  0.5847910000000 1.0
C      1  0.4360980000000  0.4956850000000  0.5698360000000 1.0
C      1  0.5108310000000  0.4201340000000  0.4449550000000 1.0
C      1  0.4699830000000  0.5114810000000  0.4135430000000 1.0
C      1  0.4968790000000  0.4786770000000  0.4854130000000 1.0
C      1  0.5818330000000  0.5593270000000  0.4938880000000 1.0
C      1  0.5587920000000  0.4813480000000  0.4306490000000 1.0
C      1  0.5844310000000  0.4472790000000  0.5117580000000 1.0
C      1  0.4877570000000  0.4544850000000  0.5862370000000 1.0
C      1  0.4795210000000  0.4955020000000  0.6002100000000 1.0
C      1  0.5376460000000  0.4692700000000  0.4129490000000 1.0
C      1  0.5285000000000  0.4031550000000  0.4876730000000 1.0
C      1  0.5636980000000  0.5179670000000  0.5773530000000 1.0
C      1  0.5638880000000  0.4658940000000  0.4556890000000 1.0
C      1  0.4568040000000  0.4229410000000  0.5347560000000 1.0
C      1  0.5438030000000  0.4364280000000  0.5331000000000 1.0
C      1  0.5580290000000  0.4433740000000  0.5611260000000 1.0
C      1  0.5152790000000  0.4614350000000  0.5752970000000 1.0
C      1  0.5139220000000  0.5231870000000  0.4840390000000 1.0
C      1  0.5013950000000  0.5189010000000  0.4551200000000 1.0
C      1  0.5194020000000  0.4954840000000  0.4461740000000 1.0
C      1  0.4921610000000  0.4223010000000  0.5044440000000 1.0
C      1  0.4210080000000  0.4608140000000  0.5259230000000 1.0
C      1  0.5499910000000  0.4232060000000  0.4855550000000 1.0
C      1  0.5397180000000  0.5605200000000  0.5547580000000 1.0
C      1  0.5846650000000  0.5142010000000  0.5543870000000 1.0
C      1  0.5314240000000  0.4621290000000  0.5249000000000 1.0
C      1  0.4576970000000  0.5071690000000  0.4810930000000 1.0
C      1  0.5493130000000  0.5110510000000  0.5241950000000 1.0
C      1  0.5132460000000  0.5325320000000  0.5871640000000 1.0
C      1  0.5728860000000  0.5535220000000  0.4667630000000 1.0
C      1  0.4261320000000  0.4554310000000  0.4760840000000 1.0
C      1  0.4283380000000  0.5211150000000  0.5779270000000 1.0
C      1  0.5368600000000  0.5325850000000  0.5674500000000 1.0
C      1  0.4597590000000  0.4187370000000  0.4683300000000 1.0
C      1  0.5670890000000  0.4715050000000  0.5647680000000 1.0
C      1  0.5234460000000  0.5746410000000  0.4868310000000 1.0
C      1  0.4333960000000  0.5711030000000  0.5089250000000 1.0
C      1  0.4744440000000  0.5620860000000  0.5687290000000 1.0
C      1  0.5463610000000  0.4854770000000  0.4828300000000 1.0
C      1  0.4868900000000  0.5845870000000  0.5078030000000 1.0
C      1  0.5087190000000  0.5055360000000  0.5996060000000 1.0
C      1  0.5033990000000  0.3748420000000  0.5106940000000 1.0
C      1  0.5207720000000  0.5966790000000  0.5213970000000 1.0
C      1  0.5529560000000  0.5725060000000  0.4620230000000 1.0
C      1  0.4660080000000  0.4926890000000  0.5719310000000 1.0
C      1  0.4440070000000  0.5773360000000  0.4826140000000 1.0
C      1  0.5676250000000  0.5234230000000  0.4653240000000 1.0
C      1  0.4352310000000  0.5480850000000  0.4113090000000 1.0
C      1  0.5291790000000  0.3831080000000  0.5076040000000 1.0
C      1  0.5207260000000  0.4728660000000  0.4686390000000 1.0
C      1  0.4066620000000  0.5060790000000  0.5309920000000 1.0
C      1  0.4894730000000  0.5847460000000  0.5557940000000 1.0
C      1  0.5731170000000  0.5288130000000  0.5302850000000 1.0
C      1  0.4739810000000  0.4867310000000  0.4680740000000 1.0
C      1  0.4982470000000  0.5025350000000  0.4046010000000 1.0
C      1  0.4805910000000  0.4686710000000  0.6098640000000 1.0
C      1  0.5486330000000  0.5090020000000  0.4375210000000 1.0
C      1  0.5426260000000  0.5277390000000  0.4131030000000 1.0
C      1  0.5104720000000  0.5492680000000  0.4961340000000 1.0
C      1  0.4485010000000  0.4708930000000  0.4570810000000 1.0
C      1  0.4899860000000  0.4602530000000  0.4302280000000 1.0
C      1  0.4310950000000  0.5636020000000  0.4593770000000 1.0
C      1  0.4204680000000  0.5360810000000  0.4633890000000 1.0
C      1  0.4139510000000  0.5494180000000  0.5113910000000 1.0
C      1  0.4126430000000  0.4714460000000  0.4992080000000 1.0
C      1  0.4709630000000  0.5890830000000  0.4807460000000 1.0
C      1  0.5633990000000  0.4291510000000  0.5112980000000 1.0
C      1  0.4423930000000  0.5659570000000  0.4322710000000 1.0
C      1  0.5867430000000  0.4841100000000  0.5468940000000 1.0
C      1  0.5914300000000  0.5137280000000  0.4839460000000 1.0
C      1  0.5173930000000  0.5793120000000  0.5451310000000 1.0
C      1  0.4691390000000  0.5768510000000  0.4307350000000 1.0
C      1  0.4603860000000  0.5385690000000  0.4022720000000 1.0
C      1  0.4106020000000  0.5294190000000  0.4904670000000 1.0
C      1  0.4827650000000  0.4316560000000  0.5312080000000 1.0
C      1  0.5622640000000  0.5569460000000  0.5364350000000 1.0
C      1  0.4107730000000  0.5349110000000  0.5366460000000 1.0
C      1  0.4456190000000  0.5802410000000  0.5341370000000 1.0
C      1  0.5101040000000  0.4810790000000  0.4213920000000 1.0
C      1  0.5383630000000  0.5560990000000  0.4189910000000 1.0
C      1  0.4671880000000  0.4771150000000  0.5183550000000 1.0
C      1  0.5275750000000  0.4842180000000  0.5906490000000 1.0
C      1  0.5026720000000  0.5419200000000  0.4244270000000 1.0
C      1  0.4893360000000  0.5366910000000  0.5706540000000 1.0
END
