TITL C-950533-5798-379 -1.74644037937231e-06 125000 -1079.21930632513 0 0 171 (C1) n - 1
REM
REM in /home/bkarasulu/work/CARBON/AIRSS/Generating-Clusters/EDIP-Nigel-Params/with-SteepDescent/Only-C1/SD-CG/HFTN-CG
REM
REM
REM
REM
REM
REM ./C.cell (11c1c37f851c82e70ff6c80c92926a4b)
REM
REM compiler GCC version 9.2.1 20190827 (Red Hat 9.2.1-1)
REM options -cpp -mtune=generic -march=x86-64 -g -O0 -fpre-include=/usr/include/finclude/math-vector-fortran.h
REM seed 1435764645 -390542505 -251316920 -1363398872 270608080 2623798 199259213 -295923796 -2047987347 -1374863203 -448331889 1042375374 1251164898 -1996332398 231824085 -1901930364 -1833599397 124996868 389074479 1139778902 1911524967 384895762 -967379646 1610594899 -639582792 550047845 -1515258 -603563542 1465033317 -1714277042 -1945978259 -541429636 1434523164
REM
CELL 1.54180   50.00000   50.00000   50.00000   90.00000   90.00000   90.00000
LATT -1
SFAC C  
C      1  0.5855740000000  0.4752440000000  0.4676350000000 1.0
C      1  0.5427410000000  0.4508560000000  0.4090950000000 1.0
C      1  0.4838710000000  0.5172460000000  0.3911400000000 1.0
C      1  0.5053950000000  0.5239430000000  0.5260060000000 1.0
C      1  0.5323230000000  0.5150610000000  0.4634060000000 1.0
C      1  0.5059020000000  0.4504830000000  0.4550910000000 1.0
C      1  0.4308460000000  0.5327490000000  0.4268400000000 1.0
C      1  0.5038900000000  0.4097080000000  0.5408110000000 1.0
C      1  0.6035870000000  0.4902050000000  0.4902440000000 1.0
C      1  0.4746000000000  0.4867580000000  0.4376030000000 1.0
C      1  0.5606800000000  0.5216840000000  0.5080600000000 1.0
C      1  0.4394850000000  0.4314170000000  0.4408350000000 1.0
C      1  0.5398370000000  0.5944430000000  0.5545490000000 1.0
C      1  0.4225500000000  0.4859490000000  0.4441280000000 1.0
C      1  0.4880040000000  0.3861570000000  0.5401720000000 1.0
C      1  0.4640490000000  0.4726150000000  0.4646060000000 1.0
C      1  0.4303200000000  0.5741770000000  0.5103950000000 1.0
C      1  0.5579420000000  0.5083910000000  0.4794230000000 1.0
C      1  0.4019600000000  0.4702120000000  0.5437130000000 1.0
C      1  0.4102640000000  0.4655520000000  0.4633430000000 1.0
C      1  0.5371070000000  0.4934240000000  0.6115370000000 1.0
C      1  0.4440920000000  0.4797330000000  0.5865210000000 1.0
C      1  0.5110130000000  0.5075850000000  0.4812850000000 1.0
C      1  0.5725840000000  0.4683350000000  0.5133860000000 1.0
C      1  0.5725760000000  0.4389580000000  0.5189760000000 1.0
C      1  0.4014100000000  0.5231270000000  0.4675980000000 1.0
C      1  0.4559070000000  0.6128290000000  0.5273530000000 1.0
C      1  0.5500050000000  0.4314220000000  0.5399150000000 1.0
C      1  0.5175810000000  0.5501460000000  0.5869350000000 1.0
C      1  0.5728650000000  0.5409520000000  0.5631440000000 1.0
C      1  0.4738350000000  0.5163070000000  0.4740980000000 1.0
C      1  0.5392990000000  0.5626090000000  0.4894000000000 1.0
C      1  0.5049420000000  0.4762310000000  0.4353500000000 1.0
C      1  0.5120570000000  0.4952020000000  0.5691650000000 1.0
C      1  0.4534800000000  0.6011480000000  0.4804350000000 1.0
C      1  0.5644970000000  0.5515390000000  0.5013160000000 1.0
C      1  0.4376130000000  0.5918750000000  0.5341610000000 1.0
C      1  0.4776670000000  0.5719270000000  0.5151770000000 1.0
C      1  0.5090660000000  0.5029590000000  0.3889280000000 1.0
C      1  0.5324250000000  0.5459910000000  0.4629730000000 1.0
C      1  0.5899780000000  0.5744670000000  0.4666820000000 1.0
C      1  0.5166900000000  0.6063620000000  0.5387210000000 1.0
C      1  0.5715360000000  0.4350980000000  0.4454720000000 1.0
C      1  0.5174230000000  0.4802040000000  0.4925050000000 1.0
C      1  0.5071500000000  0.5316540000000  0.4984730000000 1.0
C      1  0.6127280000000  0.4815390000000  0.5375750000000 1.0
C      1  0.4513520000000  0.4512110000000  0.4240770000000 1.0
C      1  0.4688950000000  0.4854560000000  0.6009380000000 1.0
C      1  0.5205540000000  0.5995800000000  0.5069140000000 1.0
C      1  0.5511870000000  0.5574540000000  0.4425100000000 1.0
C      1  0.4283030000000  0.4580660000000  0.5452400000000 1.0
C      1  0.6026860000000  0.4712800000000  0.5132640000000 1.0
C      1  0.5938370000000  0.5145290000000  0.5106130000000 1.0
C      1  0.5661310000000  0.4864740000000  0.6109700000000 1.0
C      1  0.4844280000000  0.4443830000000  0.5817910000000 1.0
C      1  0.3881020000000  0.5036290000000  0.5132670000000 1.0
C      1  0.4706750000000  0.6001760000000  0.5052310000000 1.0
C      1  0.4900910000000  0.4323790000000  0.5246980000000 1.0
C      1  0.5508420000000  0.4150210000000  0.4545650000000 1.0
C      1  0.4486640000000  0.5730850000000  0.5543330000000 1.0
C      1  0.5889290000000  0.5597500000000  0.5437840000000 1.0
C      1  0.4440960000000  0.4140390000000  0.4865000000000 1.0
C      1  0.5464870000000  0.5897940000000  0.4793310000000 1.0
C      1  0.4690640000000  0.4913060000000  0.5440100000000 1.0
C      1  0.3951270000000  0.4744970000000  0.5147650000000 1.0
C      1  0.5641440000000  0.5093060000000  0.4232760000000 1.0
C      1  0.4731090000000  0.5161300000000  0.4451570000000 1.0
C      1  0.4954630000000  0.4747780000000  0.5098910000000 1.0
C      1  0.4911300000000  0.4258970000000  0.4943870000000 1.0
C      1  0.5355080000000  0.5210230000000  0.5332830000000 1.0
C      1  0.5347570000000  0.4022780000000  0.5033490000000 1.0
C      1  0.5712310000000  0.5337880000000  0.4380310000000 1.0
C      1  0.4295900000000  0.5506280000000  0.5609760000000 1.0
C      1  0.5641560000000  0.5810640000000  0.4573640000000 1.0
C      1  0.4387030000000  0.4548740000000  0.5727700000000 1.0
C      1  0.4062520000000  0.5568580000000  0.5125200000000 1.0
C      1  0.4626190000000  0.3958550000000  0.5324580000000 1.0
C      1  0.4151680000000  0.5380030000000  0.5348330000000 1.0
C      1  0.4800450000000  0.4062760000000  0.4457640000000 1.0
C      1  0.5010710000000  0.5718080000000  0.4351910000000 1.0
C      1  0.4526230000000  0.5606490000000  0.4587590000000 1.0
C      1  0.4622080000000  0.4545340000000  0.5102210000000 1.0
C      1  0.4697980000000  0.4444900000000  0.4023760000000 1.0
C      1  0.4917770000000  0.4733770000000  0.5578320000000 1.0
C      1  0.5033390000000  0.4239850000000  0.4369300000000 1.0
C      1  0.4589390000000  0.4339870000000  0.5721070000000 1.0
C      1  0.5344910000000  0.4527650000000  0.5852180000000 1.0
C      1  0.4274370000000  0.5021690000000  0.5776760000000 1.0
C      1  0.4712470000000  0.5283740000000  0.5900670000000 1.0
C      1  0.5036100000000  0.4748100000000  0.3853910000000 1.0
C      1  0.4562140000000  0.5178590000000  0.5475480000000 1.0
C      1  0.4970370000000  0.4356360000000  0.4099910000000 1.0
C      1  0.4145740000000  0.4629430000000  0.4934410000000 1.0
C      1  0.5235310000000  0.5007060000000  0.4374410000000 1.0
C      1  0.4981150000000  0.5289030000000  0.5748970000000 1.0
C      1  0.5328040000000  0.4076370000000  0.5324420000000 1.0
C      1  0.5786760000000  0.4892110000000  0.5822660000000 1.0
C      1  0.4786850000000  0.4460680000000  0.4703360000000 1.0
C      1  0.5866240000000  0.4444070000000  0.4692680000000 1.0
C      1  0.4394260000000  0.4963270000000  0.5065760000000 1.0
C      1  0.5717210000000  0.4295530000000  0.4913430000000 1.0
C      1  0.5691160000000  0.5693230000000  0.5251830000000 1.0
C      1  0.4876580000000  0.4996770000000  0.5223850000000 1.0
C      1  0.4965780000000  0.5899110000000  0.5573060000000 1.0
C      1  0.4943150000000  0.5963030000000  0.4635140000000 1.0
C      1  0.4603970000000  0.4904110000000  0.4054600000000 1.0
C      1  0.4530470000000  0.5527120000000  0.5088460000000 1.0
C      1  0.4159790000000  0.4404410000000  0.4525040000000 1.0
C      1  0.4782280000000  0.5587700000000  0.4181800000000 1.0
C      1  0.4278260000000  0.5888590000000  0.4847570000000 1.0
C      1  0.4080750000000  0.5160090000000  0.4957860000000 1.0
C      1  0.5706130000000  0.4666910000000  0.5634180000000 1.0
C      1  0.5540860000000  0.4769150000000  0.5402280000000 1.0
C      1  0.5352650000000  0.4976650000000  0.5493030000000 1.0
C      1  0.6108780000000  0.5531680000000  0.5273530000000 1.0
C      1  0.4357780000000  0.4755430000000  0.4197240000000 1.0
C      1  0.5802700000000  0.5253510000000  0.4647030000000 1.0
C      1  0.5604130000000  0.4769050000000  0.4845790000000 1.0
C      1  0.5313080000000  0.5123200000000  0.4100340000000 1.0
C      1  0.5559150000000  0.4417200000000  0.5704060000000 1.0
C      1  0.4354050000000  0.4389240000000  0.5026250000000 1.0
C      1  0.4303190000000  0.4318070000000  0.5316200000000 1.0
C      1  0.4943800000000  0.3962950000000  0.4864240000000 1.0
C      1  0.5292080000000  0.4555550000000  0.4769660000000 1.0
C      1  0.5842460000000  0.5131320000000  0.5625840000000 1.0
C      1  0.4621030000000  0.4922570000000  0.4867180000000 1.0
C      1  0.4904560000000  0.4656440000000  0.6009730000000 1.0
C      1  0.4037480000000  0.4960590000000  0.5584480000000 1.0
C      1  0.5191250000000  0.4759910000000  0.5940570000000 1.0
C      1  0.4543840000000  0.3951320000000  0.5052080000000 1.0
C      1  0.5428900000000  0.5437700000000  0.5523480000000 1.0
C      1  0.4595270000000  0.4224110000000  0.4604620000000 1.0
C      1  0.4644890000000  0.5450820000000  0.4817890000000 1.0
C      1  0.4536790000000  0.4204260000000  0.5452970000000 1.0
C      1  0.5307930000000  0.4116290000000  0.4328060000000 1.0
C      1  0.5880160000000  0.5495720000000  0.4818830000000 1.0
C      1  0.4232630000000  0.5678540000000  0.4648590000000 1.0
C      1  0.5219000000000  0.5701060000000  0.5139600000000 1.0
C      1  0.4738540000000  0.4698530000000  0.3870860000000 1.0
C      1  0.4963800000000  0.6073090000000  0.4910890000000 1.0
C      1  0.4666920000000  0.5885960000000  0.4574330000000 1.0
C      1  0.4723580000000  0.5109530000000  0.6119010000000 1.0
C      1  0.4028620000000  0.5515500000000  0.4805490000000 1.0
C      1  0.6090790000000  0.5400190000000  0.5026100000000 1.0
C      1  0.4933070000000  0.5413170000000  0.5479170000000 1.0
C      1  0.5167840000000  0.3824010000000  0.4957330000000 1.0
C      1  0.5154920000000  0.5785350000000  0.5778400000000 1.0
C      1  0.5481890000000  0.5114370000000  0.5882860000000 1.0
C      1  0.4934150000000  0.5433320000000  0.3984720000000 1.0
C      1  0.5341740000000  0.4556600000000  0.5341780000000 1.0
C      1  0.5458750000000  0.5413450000000  0.5913570000000 1.0
C      1  0.4484950000000  0.4751970000000  0.5283720000000 1.0
C      1  0.5601610000000  0.4584360000000  0.4314200000000 1.0
C      1  0.5424110000000  0.5699030000000  0.5373350000000 1.0
C      1  0.4182370000000  0.5147140000000  0.4452170000000 1.0
C      1  0.5043770000000  0.4583500000000  0.5331020000000 1.0
C      1  0.4867660000000  0.3853660000000  0.4616940000000 1.0
C      1  0.5438650000000  0.4244590000000  0.4829370000000 1.0
C      1  0.5136380000000  0.4602420000000  0.4089680000000 1.0
C      1  0.4414530000000  0.5256100000000  0.5232320000000 1.0
C      1  0.4792210000000  0.5685020000000  0.5450750000000 1.0
C      1  0.5419920000000  0.4223900000000  0.4088490000000 1.0
C      1  0.4450540000000  0.5265100000000  0.5728390000000 1.0
C      1  0.4932190000000  0.5543640000000  0.4852080000000 1.0
C      1  0.5221850000000  0.5420660000000  0.4055820000000 1.0
C      1  0.4579380000000  0.5414000000000  0.4347250000000 1.0
C      1  0.5292750000000  0.5650030000000  0.4224650000000 1.0
C      1  0.5053150000000  0.5538000000000  0.4582130000000 1.0
C      1  0.5741870000000  0.4838880000000  0.4364410000000 1.0
C      1  0.3944170000000  0.5166850000000  0.5395440000000 1.0
C      1  0.6010400000000  0.5069290000000  0.5392780000000 1.0
END
