TITL C-950529-3362-363 -2.30896831094534e-06 125000 -640.307659608136 0 0 104 (C1) n - 1
REM
REM in /home/bkarasulu/work/CARBON/AIRSS/Generating-Clusters/EDIP-Nigel-Params/with-SteepDescent/Only-C1/SD-CG/HFTN-CG
REM
REM
REM
REM
REM
REM ./C.cell (11c1c37f851c82e70ff6c80c92926a4b)
REM
REM compiler GCC version 9.2.1 20190827 (Red Hat 9.2.1-1)
REM options -cpp -mtune=generic -march=x86-64 -g -O0 -fpre-include=/usr/include/finclude/math-vector-fortran.h
REM seed -402073059 313383430 -717653855 -2074553173 -270732550 988202199 -444968376 -1191501695 1395961477 -37767780 -1866118479 717735718 453301610 1482251677 -1656002168 -1797934026 -636934083 1174352190 1045955702 -1993088315 2056615042 -61782409 619044240 1961606044 2118569193 1692883501 927042987 1423042473 448297720 922988039 -2099753534 -1367902657 1596749750
REM
CELL 1.54180   50.00000   50.00000   50.00000   90.00000   90.00000   90.00000
LATT -1
SFAC C  
C      1  0.5417130000000  0.5663450000000  0.5101260000000 1.0
C      1  0.4995770000000  0.5003040000000  0.4057670000000 1.0
C      1  0.4581170000000  0.4688720000000  0.5741000000000 1.0
C      1  0.5467150000000  0.4898250000000  0.4998090000000 1.0
C      1  0.5024350000000  0.5370360000000  0.4600360000000 1.0
C      1  0.4243860000000  0.4351200000000  0.5140000000000 1.0
C      1  0.5196990000000  0.4785360000000  0.4929830000000 1.0
C      1  0.4951550000000  0.5896510000000  0.5110500000000 1.0
C      1  0.4735460000000  0.4778520000000  0.5397350000000 1.0
C      1  0.4760510000000  0.5816820000000  0.4781880000000 1.0
C      1  0.5647280000000  0.4801490000000  0.5715650000000 1.0
C      1  0.4844050000000  0.4234880000000  0.4807920000000 1.0
C      1  0.5477250000000  0.4857110000000  0.4335570000000 1.0
C      1  0.5135620000000  0.4880810000000  0.5829650000000 1.0
C      1  0.4484870000000  0.5710890000000  0.5246580000000 1.0
C      1  0.4636800000000  0.5263190000000  0.4351990000000 1.0
C      1  0.4785580000000  0.5179400000000  0.4615500000000 1.0
C      1  0.4888080000000  0.5100860000000  0.5158520000000 1.0
C      1  0.4721700000000  0.5160490000000  0.5739290000000 1.0
C      1  0.4355000000000  0.4216350000000  0.4909530000000 1.0
C      1  0.4569670000000  0.4247140000000  0.4715580000000 1.0
C      1  0.5504990000000  0.4895760000000  0.5306240000000 1.0
C      1  0.4478860000000  0.4582860000000  0.4317380000000 1.0
C      1  0.5438010000000  0.5787360000000  0.4816910000000 1.0
C      1  0.5180010000000  0.5883120000000  0.4739590000000 1.0
C      1  0.4630110000000  0.4743340000000  0.4939210000000 1.0
C      1  0.4848940000000  0.5446930000000  0.4190670000000 1.0
C      1  0.4589420000000  0.5029000000000  0.5079060000000 1.0
C      1  0.5418770000000  0.4948340000000  0.5816500000000 1.0
C      1  0.5316010000000  0.5385480000000  0.5554230000000 1.0
C      1  0.4697540000000  0.4652160000000  0.4121920000000 1.0
C      1  0.4971860000000  0.5125860000000  0.5885890000000 1.0
C      1  0.5077660000000  0.5526250000000  0.4849750000000 1.0
C      1  0.4336450000000  0.5279910000000  0.5340570000000 1.0
C      1  0.4280800000000  0.4977960000000  0.4592680000000 1.0
C      1  0.5094350000000  0.5555580000000  0.5434630000000 1.0
C      1  0.5368720000000  0.4223500000000  0.5066320000000 1.0
C      1  0.5108170000000  0.5388670000000  0.5865150000000 1.0
C      1  0.4888170000000  0.4168720000000  0.5084440000000 1.0
C      1  0.5318860000000  0.5391400000000  0.5012640000000 1.0
C      1  0.5918960000000  0.4655390000000  0.4902630000000 1.0
C      1  0.5568890000000  0.5521350000000  0.5535080000000 1.0
C      1  0.4201790000000  0.4966680000000  0.5054830000000 1.0
C      1  0.4773470000000  0.4588210000000  0.5159920000000 1.0
C      1  0.5706870000000  0.4936070000000  0.4517350000000 1.0
C      1  0.4503200000000  0.4967570000000  0.5713910000000 1.0
C      1  0.4416280000000  0.5446950000000  0.4497550000000 1.0
C      1  0.5092510000000  0.5267150000000  0.4149080000000 1.0
C      1  0.5787040000000  0.5223020000000  0.5126310000000 1.0
C      1  0.5119590000000  0.4308560000000  0.5219520000000 1.0
C      1  0.5331840000000  0.4253240000000  0.4774240000000 1.0
C      1  0.5802320000000  0.4976140000000  0.5316720000000 1.0
C      1  0.4532900000000  0.4855960000000  0.4462220000000 1.0
C      1  0.5550320000000  0.5197770000000  0.4934720000000 1.0
C      1  0.4359030000000  0.4551900000000  0.5316110000000 1.0
C      1  0.5666390000000  0.5210860000000  0.4639340000000 1.0
C      1  0.4514180000000  0.4346070000000  0.4461170000000 1.0
C      1  0.4239470000000  0.4815470000000  0.5309180000000 1.0
C      1  0.5521290000000  0.5630650000000  0.4601430000000 1.0
C      1  0.4963570000000  0.4571900000000  0.4545660000000 1.0
C      1  0.5539470000000  0.4635070000000  0.5483120000000 1.0
C      1  0.4968300000000  0.4581600000000  0.4236220000000 1.0
C      1  0.4940880000000  0.5572630000000  0.5689860000000 1.0
C      1  0.5072190000000  0.4591470000000  0.5124600000000 1.0
C      1  0.5171240000000  0.5768760000000  0.5253050000000 1.0
C      1  0.4486300000000  0.4467340000000  0.5576000000000 1.0
C      1  0.5003220000000  0.4374340000000  0.5536850000000 1.0
C      1  0.4657990000000  0.4238300000000  0.5234530000000 1.0
C      1  0.5266760000000  0.4950720000000  0.4509320000000 1.0
C      1  0.5910590000000  0.4696050000000  0.5200280000000 1.0
C      1  0.5037000000000  0.5015660000000  0.4938590000000 1.0
C      1  0.4607500000000  0.5257770000000  0.4852980000000 1.0
C      1  0.4478570000000  0.5666210000000  0.4733920000000 1.0
C      1  0.4676440000000  0.5439130000000  0.5663710000000 1.0
C      1  0.5673280000000  0.4789860000000  0.4784540000000 1.0
C      1  0.5506490000000  0.5386390000000  0.4468460000000 1.0
C      1  0.5742080000000  0.4482880000000  0.5332940000000 1.0
C      1  0.4696080000000  0.5886040000000  0.5210480000000 1.0
C      1  0.4339680000000  0.5618910000000  0.5004400000000 1.0
C      1  0.4772420000000  0.5530550000000  0.4967600000000 1.0
C      1  0.5846750000000  0.4980750000000  0.5608210000000 1.0
C      1  0.5074800000000  0.4222740000000  0.4647810000000 1.0
C      1  0.4991370000000  0.5001530000000  0.5429930000000 1.0
C      1  0.4173440000000  0.4811350000000  0.4807250000000 1.0
C      1  0.5782490000000  0.4415920000000  0.4778430000000 1.0
C      1  0.4320620000000  0.5254610000000  0.4711550000000 1.0
C      1  0.5238070000000  0.5245960000000  0.4428330000000 1.0
C      1  0.4713250000000  0.4276000000000  0.5516040000000 1.0
C      1  0.5654520000000  0.5617850000000  0.5287780000000 1.0
C      1  0.4706690000000  0.4958840000000  0.4121210000000 1.0
C      1  0.4518480000000  0.5481710000000  0.5420300000000 1.0
C      1  0.4214580000000  0.5354160000000  0.5074760000000 1.0
C      1  0.4370480000000  0.5018600000000  0.5459390000000 1.0
C      1  0.5008210000000  0.4666960000000  0.5643460000000 1.0
C      1  0.5166490000000  0.4772280000000  0.4124300000000 1.0
C      1  0.4368780000000  0.4603810000000  0.4878540000000 1.0
C      1  0.4922340000000  0.5593470000000  0.4437580000000 1.0
C      1  0.4765580000000  0.4795370000000  0.4665740000000 1.0
C      1  0.5873210000000  0.5479350000000  0.5188500000000 1.0
C      1  0.5523110000000  0.4416960000000  0.4640890000000 1.0
C      1  0.5300250000000  0.5080190000000  0.5477000000000 1.0
C      1  0.5621310000000  0.4289050000000  0.5169410000000 1.0
C      1  0.5238540000000  0.4668750000000  0.4648000000000 1.0
C      1  0.5022730000000  0.5856210000000  0.4499640000000 1.0
END
