TITL C-950531-5884-547 -3.41137598715495e-07 125000 -250.462987169006 0 0 42 (C1) n - 1
REM
REM in /home/bkarasulu/work/CARBON/AIRSS/Generating-Clusters/EDIP-Nigel-Params/with-SteepDescent/Only-C1/SD-CG/HFTN-CG
REM
REM
REM
REM
REM
REM ./C.cell (11c1c37f851c82e70ff6c80c92926a4b)
REM
REM compiler GCC version 9.2.1 20190827 (Red Hat 9.2.1-1)
REM options -cpp -mtune=generic -march=x86-64 -g -O0 -fpre-include=/usr/include/finclude/math-vector-fortran.h
REM seed 834948918 1929663241 -934174384 -790845490 1132402747 -749521673 -873015072 -408405996 -1610123988 1739552872 -1899809278 -1201711522 -786428426 1399816392 608573660 553376031 1520781770 1110534726 -1855807361 907870073 1593612525 -45564109 -958907669 599308547 -2106438093 1109431294 -1081441579 589663739 -321834879 -309642333 696751264 1675888356 325348389
REM
CELL 1.54180   50.00000   50.00000   50.00000   90.00000   90.00000   90.00000
LATT -1
SFAC C  
C      1  0.4866170000000  0.5381940000000  0.5428680000000 1.0
C      1  0.4593890000000  0.4765660000000  0.4774970000000 1.0
C      1  0.4851830000000  0.4522900000000  0.5443180000000 1.0
C      1  0.5167260000000  0.4858430000000  0.5512900000000 1.0
C      1  0.4667510000000  0.5208900000000  0.5522110000000 1.0
C      1  0.4563860000000  0.5248340000000  0.4665840000000 1.0
C      1  0.5007190000000  0.5104920000000  0.4786440000000 1.0
C      1  0.4423170000000  0.5212280000000  0.5394310000000 1.0
C      1  0.4764680000000  0.5260060000000  0.4892690000000 1.0
C      1  0.5397120000000  0.5261570000000  0.5373900000000 1.0
C      1  0.4734560000000  0.4972880000000  0.5653210000000 1.0
C      1  0.4928470000000  0.5012050000000  0.4504890000000 1.0
C      1  0.5012460000000  0.5482770000000  0.5208640000000 1.0
C      1  0.4237940000000  0.5043010000000  0.4950970000000 1.0
C      1  0.5030110000000  0.4854890000000  0.4981430000000 1.0
C      1  0.5705520000000  0.4961980000000  0.5082770000000 1.0
C      1  0.4811850000000  0.4742820000000  0.4553460000000 1.0
C      1  0.5515430000000  0.4778790000000  0.5176200000000 1.0
C      1  0.5219480000000  0.4421040000000  0.5110330000000 1.0
C      1  0.5567610000000  0.4895560000000  0.4627540000000 1.0
C      1  0.5298990000000  0.4632510000000  0.4526990000000 1.0
C      1  0.5260150000000  0.5335990000000  0.5142190000000 1.0
C      1  0.5016930000000  0.4473110000000  0.4912090000000 1.0
C      1  0.4839230000000  0.5538180000000  0.4976090000000 1.0
C      1  0.4777380000000  0.4705250000000  0.5643680000000 1.0
C      1  0.5541680000000  0.4611100000000  0.4676630000000 1.0
C      1  0.4702360000000  0.4568830000000  0.5213010000000 1.0
C      1  0.4735200000000  0.4789180000000  0.5042420000000 1.0
C      1  0.5135640000000  0.4500980000000  0.5381320000000 1.0
C      1  0.5481550000000  0.4530970000000  0.5031680000000 1.0
C      1  0.5586840000000  0.5074510000000  0.4853230000000 1.0
C      1  0.4256970000000  0.5135800000000  0.5200770000000 1.0
C      1  0.4879960000000  0.5457280000000  0.4362870000000 1.0
C      1  0.4399040000000  0.4999730000000  0.4724070000000 1.0
C      1  0.5041930000000  0.4572790000000  0.4643060000000 1.0
C      1  0.4970250000000  0.5675870000000  0.4766890000000 1.0
C      1  0.5261060000000  0.5345020000000  0.4624660000000 1.0
C      1  0.5249540000000  0.4903370000000  0.5224150000000 1.0
C      1  0.5077750000000  0.5551120000000  0.4542180000000 1.0
C      1  0.4733200000000  0.5219080000000  0.4415420000000 1.0
C      1  0.5386530000000  0.5289820000000  0.4877570000000 1.0
C      1  0.5301720000000  0.5098770000000  0.5574590000000 1.0
END
