TITL C-950536-5891-511 -1.92864496537968e-06 125000 -855.231023442604 0 0 136 (C1) n - 1
REM
REM in /home/bkarasulu/work/CARBON/AIRSS/Generating-Clusters/EDIP-Nigel-Params/with-SteepDescent/Only-C1/SD-CG/HFTN-CG
REM
REM
REM
REM
REM
REM ./C.cell (11c1c37f851c82e70ff6c80c92926a4b)
REM
REM compiler GCC version 9.2.1 20190827 (Red Hat 9.2.1-1)
REM options -cpp -mtune=generic -march=x86-64 -g -O0 -fpre-include=/usr/include/finclude/math-vector-fortran.h
REM seed -1902597259 -654573925 990641201 -180905509 2001184186 -396864889 -2056120837 -1640943332 -1390933757 2131755949 1096166908 -1683220102 -575383431 -245510534 -55351021 -867648738 -631179922 723692862 1850768707 1626995375 1270248839 1455728977 -1909270772 938232514 1853602095 1548509669 910471855 -969530856 1816280927 1418600786 -1737857072 1356477198 2085027177
REM
CELL 1.54180   50.00000   50.00000   50.00000   90.00000   90.00000   90.00000
LATT -1
SFAC C  
C      1  0.4810460000000  0.4933430000000  0.4235130000000 1.0
C      1  0.4917630000000  0.5199040000000  0.4440100000000 1.0
C      1  0.5270880000000  0.4771300000000  0.4027560000000 1.0
C      1  0.5478250000000  0.4368730000000  0.5512930000000 1.0
C      1  0.5097670000000  0.5559460000000  0.5225790000000 1.0
C      1  0.5389100000000  0.5491170000000  0.5603060000000 1.0
C      1  0.4815210000000  0.5074900000000  0.6007120000000 1.0
C      1  0.5382730000000  0.5444800000000  0.4313900000000 1.0
C      1  0.5478460000000  0.5911890000000  0.4978110000000 1.0
C      1  0.4918910000000  0.5985060000000  0.5019780000000 1.0
C      1  0.5367860000000  0.5212200000000  0.5189720000000 1.0
C      1  0.4244430000000  0.4271720000000  0.5219580000000 1.0
C      1  0.4498960000000  0.4137060000000  0.5202110000000 1.0
C      1  0.4303670000000  0.4997410000000  0.4481450000000 1.0
C      1  0.4221900000000  0.4498240000000  0.5413470000000 1.0
C      1  0.5340610000000  0.4423540000000  0.4517560000000 1.0
C      1  0.5075170000000  0.5184920000000  0.5951250000000 1.0
C      1  0.4871250000000  0.5132870000000  0.5291620000000 1.0
C      1  0.5706950000000  0.5557740000000  0.4700470000000 1.0
C      1  0.4324260000000  0.5194510000000  0.4274480000000 1.0
C      1  0.3999580000000  0.5195820000000  0.5159450000000 1.0
C      1  0.5561700000000  0.5062000000000  0.5826280000000 1.0
C      1  0.4109200000000  0.4621540000000  0.4489500000000 1.0
C      1  0.5055280000000  0.6023820000000  0.4754550000000 1.0
C      1  0.4927190000000  0.5668950000000  0.4269040000000 1.0
C      1  0.5713290000000  0.4280050000000  0.5394050000000 1.0
C      1  0.4510670000000  0.5761600000000  0.5200000000000 1.0
C      1  0.5921030000000  0.4689500000000  0.5216160000000 1.0
C      1  0.5233210000000  0.4738720000000  0.5785920000000 1.0
C      1  0.4284280000000  0.5449920000000  0.4861460000000 1.0
C      1  0.4018740000000  0.4757050000000  0.4721490000000 1.0
C      1  0.4480840000000  0.5429500000000  0.4363200000000 1.0
C      1  0.5039750000000  0.5480170000000  0.5962400000000 1.0
C      1  0.4150610000000  0.4647120000000  0.4959310000000 1.0
C      1  0.4382580000000  0.4568780000000  0.4423210000000 1.0
C      1  0.4371820000000  0.5487330000000  0.5150830000000 1.0
C      1  0.4804950000000  0.5302880000000  0.3982480000000 1.0
C      1  0.5921000000000  0.5160920000000  0.5395140000000 1.0
C      1  0.5527050000000  0.4874460000000  0.4862830000000 1.0
C      1  0.4932870000000  0.4032630000000  0.5352960000000 1.0
C      1  0.5390260000000  0.4295260000000  0.4805150000000 1.0
C      1  0.5084610000000  0.5866170000000  0.5248130000000 1.0
C      1  0.5099530000000  0.4546330000000  0.4087710000000 1.0
C      1  0.5691670000000  0.5717210000000  0.4952550000000 1.0
C      1  0.5131960000000  0.5535900000000  0.4705430000000 1.0
C      1  0.4538050000000  0.4789670000000  0.5677320000000 1.0
C      1  0.5603400000000  0.4549300000000  0.4450760000000 1.0
C      1  0.4863920000000  0.4656480000000  0.4196570000000 1.0
C      1  0.4407990000000  0.4237400000000  0.4763290000000 1.0
C      1  0.5036250000000  0.4059310000000  0.5077460000000 1.0
C      1  0.4599560000000  0.4760850000000  0.4567510000000 1.0
C      1  0.5104500000000  0.5122280000000  0.5078030000000 1.0
C      1  0.4586860000000  0.5085850000000  0.4886280000000 1.0
C      1  0.4621000000000  0.4274030000000  0.5676590000000 1.0
C      1  0.4465570000000  0.5319910000000  0.5672590000000 1.0
C      1  0.4663510000000  0.5723150000000  0.4706210000000 1.0
C      1  0.5922730000000  0.5362820000000  0.4676490000000 1.0
C      1  0.4652340000000  0.5765870000000  0.5494360000000 1.0
C      1  0.4759420000000  0.4651620000000  0.5050990000000 1.0
C      1  0.5887920000000  0.5165120000000  0.4482770000000 1.0
C      1  0.4765680000000  0.4628490000000  0.5345090000000 1.0
C      1  0.5401970000000  0.5487010000000  0.5299580000000 1.0
C      1  0.6049460000000  0.4798760000000  0.4971620000000 1.0
C      1  0.4775710000000  0.5542430000000  0.6046350000000 1.0
C      1  0.4452690000000  0.4291580000000  0.4472860000000 1.0
C      1  0.4194270000000  0.4754250000000  0.5248550000000 1.0
C      1  0.4826640000000  0.5181620000000  0.4737510000000 1.0
C      1  0.5853910000000  0.4878620000000  0.5437640000000 1.0
C      1  0.5254950000000  0.4441810000000  0.5318440000000 1.0
C      1  0.5689870000000  0.4825090000000  0.5683670000000 1.0
C      1  0.5753240000000  0.4446820000000  0.5172950000000 1.0
C      1  0.4480700000000  0.5508320000000  0.4648490000000 1.0
C      1  0.4571940000000  0.4064100000000  0.4928890000000 1.0
C      1  0.4953690000000  0.5844830000000  0.5528370000000 1.0
C      1  0.5157460000000  0.4849640000000  0.5516520000000 1.0
C      1  0.4693960000000  0.5811770000000  0.4978990000000 1.0
C      1  0.4970910000000  0.4396240000000  0.5440370000000 1.0
C      1  0.5664360000000  0.4366660000000  0.4893560000000 1.0
C      1  0.5146090000000  0.5627550000000  0.5724950000000 1.0
C      1  0.5007760000000  0.4603130000000  0.4911800000000 1.0
C      1  0.5459790000000  0.5907300000000  0.4489630000000 1.0
C      1  0.4477840000000  0.4880600000000  0.5304260000000 1.0
C      1  0.5317120000000  0.5881080000000  0.4737340000000 1.0
C      1  0.4557080000000  0.4791670000000  0.4876080000000 1.0
C      1  0.4975500000000  0.5382670000000  0.4905700000000 1.0
C      1  0.4766900000000  0.5413590000000  0.4261740000000 1.0
C      1  0.4925600000000  0.5389500000000  0.5425070000000 1.0
C      1  0.5882000000000  0.4764000000000  0.4749620000000 1.0
C      1  0.5569240000000  0.5650060000000  0.4456160000000 1.0
C      1  0.4918290000000  0.4356090000000  0.5744490000000 1.0
C      1  0.4682250000000  0.5040150000000  0.3992250000000 1.0
C      1  0.4656860000000  0.4083490000000  0.5436310000000 1.0
C      1  0.5195940000000  0.5328130000000  0.4511730000000 1.0
C      1  0.4186370000000  0.5286550000000  0.5583470000000 1.0
C      1  0.5851260000000  0.5327920000000  0.5606670000000 1.0
C      1  0.5298140000000  0.4993150000000  0.5932590000000 1.0
C      1  0.5358010000000  0.5958480000000  0.5229460000000 1.0
C      1  0.4192410000000  0.4357040000000  0.4939690000000 1.0
C      1  0.4576960000000  0.5157970000000  0.5178200000000 1.0
C      1  0.4932340000000  0.5743680000000  0.4570590000000 1.0
C      1  0.5504260000000  0.5196050000000  0.4186460000000 1.0
C      1  0.5166660000000  0.4680320000000  0.4503690000000 1.0
C      1  0.5180590000000  0.5561460000000  0.4118840000000 1.0
C      1  0.5507690000000  0.4835880000000  0.4538870000000 1.0
C      1  0.3994870000000  0.4961840000000  0.5345540000000 1.0
C      1  0.5181860000000  0.4322480000000  0.5019180000000 1.0
C      1  0.5823070000000  0.5282790000000  0.5136180000000 1.0
C      1  0.5106210000000  0.5300860000000  0.3963320000000 1.0
C      1  0.4746050000000  0.4808360000000  0.5893620000000 1.0
C      1  0.4441800000000  0.4512480000000  0.5615540000000 1.0
C      1  0.4682450000000  0.4216070000000  0.4326660000000 1.0
C      1  0.5502530000000  0.4583310000000  0.5728120000000 1.0
C      1  0.6040960000000  0.5285780000000  0.4935840000000 1.0
C      1  0.4034100000000  0.5049410000000  0.5613630000000 1.0
C      1  0.5581800000000  0.5133200000000  0.5018750000000 1.0
C      1  0.6184940000000  0.5045200000000  0.4959860000000 1.0
C      1  0.5180730000000  0.4304950000000  0.4271410000000 1.0
C      1  0.4964650000000  0.3997310000000  0.4605340000000 1.0
C      1  0.4851190000000  0.3993670000000  0.4862880000000 1.0
C      1  0.4650160000000  0.5464280000000  0.5490780000000 1.0
C      1  0.5275070000000  0.5058520000000  0.4061700000000 1.0
C      1  0.5665210000000  0.5036420000000  0.4370740000000 1.0
C      1  0.4086350000000  0.5033700000000  0.4671080000000 1.0
C      1  0.4946190000000  0.4132290000000  0.4363220000000 1.0
C      1  0.4407870000000  0.5083680000000  0.4028680000000 1.0
C      1  0.5281530000000  0.4728450000000  0.5281530000000 1.0
C      1  0.4910370000000  0.4643740000000  0.4633210000000 1.0
C      1  0.4132580000000  0.5408830000000  0.5320190000000 1.0
C      1  0.4154880000000  0.5187960000000  0.4905010000000 1.0
C      1  0.4869590000000  0.4892700000000  0.5480590000000 1.0
C      1  0.5611170000000  0.5344640000000  0.5748840000000 1.0
C      1  0.5791830000000  0.4510010000000  0.4670270000000 1.0
C      1  0.5701760000000  0.5557050000000  0.5196700000000 1.0
C      1  0.4633560000000  0.5301740000000  0.6002300000000 1.0
C      1  0.5215790000000  0.4826820000000  0.5006990000000 1.0
C      1  0.4973500000000  0.4608570000000  0.5895530000000 1.0
END
