TITL C-951339-9237-98 7.16376411233394e-07 125000 -422.830193820395 0 0 69 (C1) n - 1
REM
REM in /home/bkarasulu/work/CARBON/AIRSS/Generating-Clusters/EDIP-Nigel-Params/with-SteepDescent/Only-C1/SD-CG/HFTN-CG
REM
REM
REM
REM
REM
REM ./C.cell (11c1c37f851c82e70ff6c80c92926a4b)
REM
REM compiler GCC version 9.2.1 20190827 (Red Hat 9.2.1-1)
REM options -cpp -mtune=generic -march=x86-64 -g -O0 -fpre-include=/usr/include/finclude/math-vector-fortran.h
REM seed -1853613149 1775945966 1599142043 -1837641796 281059292 415795700 993623487 -334598039 414969684 492566068 197257501 -807833 -1738838356 596250782 -22364476 1601055570 1618506257 1737087117 2126000890 -1071812497 -1715246956 324785846 751873910 1870451441 -772360221 -2022572409 -710070093 -1109302140 29770255 -1735529206 -1421874282 531758214 -1374200454
REM
CELL 1.54180   50.00000   50.00000   50.00000   90.00000   90.00000   90.00000
LATT -1
SFAC C  
C      1  0.4825670000000  0.4472660000000  0.4428800000000 1.0
C      1  0.4492320000000  0.5015090000000  0.4413630000000 1.0
C      1  0.5890700000000  0.5159890000000  0.4858370000000 1.0
C      1  0.4796270000000  0.5728540000000  0.5064220000000 1.0
C      1  0.5403610000000  0.4846340000000  0.4558100000000 1.0
C      1  0.4307450000000  0.5257450000000  0.4961730000000 1.0
C      1  0.4325930000000  0.4836330000000  0.4543550000000 1.0
C      1  0.5401480000000  0.4421440000000  0.5178900000000 1.0
C      1  0.5137640000000  0.4471000000000  0.4796220000000 1.0
C      1  0.4521150000000  0.4606710000000  0.5348360000000 1.0
C      1  0.4659320000000  0.5449500000000  0.4418320000000 1.0
C      1  0.5945260000000  0.5128360000000  0.5145220000000 1.0
C      1  0.5330200000000  0.4715620000000  0.4818040000000 1.0
C      1  0.5127270000000  0.4874600000000  0.5753800000000 1.0
C      1  0.4349570000000  0.4777880000000  0.4813850000000 1.0
C      1  0.5606040000000  0.4517870000000  0.4998960000000 1.0
C      1  0.5289560000000  0.4447830000000  0.4337410000000 1.0
C      1  0.5342500000000  0.4755140000000  0.5596310000000 1.0
C      1  0.4963100000000  0.5563580000000  0.5217120000000 1.0
C      1  0.4435390000000  0.4895640000000  0.5290120000000 1.0
C      1  0.4956080000000  0.4259810000000  0.5205830000000 1.0
C      1  0.4406710000000  0.5510950000000  0.4912730000000 1.0
C      1  0.4650260000000  0.5053910000000  0.5705730000000 1.0
C      1  0.4694920000000  0.5223630000000  0.5144180000000 1.0
C      1  0.5715610000000  0.4775600000000  0.5014130000000 1.0
C      1  0.5085150000000  0.5661480000000  0.4531210000000 1.0
C      1  0.5270040000000  0.5718000000000  0.4736940000000 1.0
C      1  0.5241480000000  0.4729390000000  0.4330070000000 1.0
C      1  0.4797280000000  0.5591870000000  0.4638820000000 1.0
C      1  0.5886100000000  0.4858960000000  0.5223160000000 1.0
C      1  0.5816980000000  0.4908100000000  0.4780910000000 1.0
C      1  0.5656380000000  0.4987140000000  0.4574290000000 1.0
C      1  0.5426150000000  0.5505810000000  0.5328520000000 1.0
C      1  0.4760980000000  0.4575270000000  0.5548440000000 1.0
C      1  0.5147280000000  0.4973830000000  0.4897610000000 1.0
C      1  0.5177740000000  0.5118380000000  0.5165710000000 1.0
C      1  0.4683710000000  0.5116900000000  0.4796260000000 1.0
C      1  0.4937230000000  0.4744090000000  0.4355890000000 1.0
C      1  0.4840110000000  0.4827960000000  0.5673150000000 1.0
C      1  0.4920130000000  0.5068030000000  0.5304980000000 1.0
C      1  0.4449460000000  0.5102290000000  0.5496700000000 1.0
C      1  0.5835580000000  0.5301660000000  0.5332570000000 1.0
C      1  0.4600930000000  0.5564940000000  0.5521400000000 1.0
C      1  0.4703660000000  0.4194280000000  0.5105700000000 1.0
C      1  0.5596880000000  0.5342030000000  0.5468880000000 1.0
C      1  0.4461630000000  0.5272620000000  0.4522640000000 1.0
C      1  0.4873930000000  0.5267780000000  0.4311690000000 1.0
C      1  0.5155050000000  0.5260210000000  0.4717730000000 1.0
C      1  0.4945930000000  0.5243010000000  0.5576260000000 1.0
C      1  0.4342220000000  0.4980950000000  0.5026580000000 1.0
C      1  0.4864510000000  0.4874760000000  0.4876810000000 1.0
C      1  0.4608030000000  0.5703150000000  0.4858650000000 1.0
C      1  0.5187890000000  0.4278620000000  0.5020430000000 1.0
C      1  0.4877220000000  0.5521580000000  0.5490810000000 1.0
C      1  0.4782330000000  0.4994590000000  0.4384260000000 1.0
C      1  0.4827320000000  0.4787810000000  0.5167040000000 1.0
C      1  0.4971130000000  0.4533680000000  0.5328030000000 1.0
C      1  0.5309300000000  0.5469420000000  0.4861960000000 1.0
C      1  0.4484690000000  0.4528190000000  0.4841610000000 1.0
C      1  0.4487190000000  0.5362890000000  0.5354690000000 1.0
C      1  0.5087520000000  0.4358680000000  0.4520280000000 1.0
C      1  0.4563410000000  0.4436730000000  0.5101120000000 1.0
C      1  0.5130560000000  0.5371820000000  0.4424530000000 1.0
C      1  0.5223180000000  0.5421930000000  0.5145640000000 1.0
C      1  0.5460750000000  0.5121740000000  0.5595950000000 1.0
C      1  0.5258090000000  0.4602330000000  0.5367320000000 1.0
C      1  0.4607190000000  0.4433110000000  0.4607160000000 1.0
C      1  0.5203000000000  0.5158870000000  0.5729050000000 1.0
C      1  0.4880700000000  0.5359780000000  0.4834920000000 1.0
END
