TITL C-951342-2639-173 1.19010613879788e-07 125000 -697.852181668556 0 0 113 (C1) n - 1
REM
REM in /home/bkarasulu/work/CARBON/AIRSS/Generating-Clusters/EDIP-Nigel-Params/with-SteepDescent/Only-C1/SD-CG/HFTN-CG
REM
REM
REM
REM
REM
REM ./C.cell (11c1c37f851c82e70ff6c80c92926a4b)
REM
REM compiler GCC version 9.2.1 20190827 (Red Hat 9.2.1-1)
REM options -cpp -mtune=generic -march=x86-64 -g -O0 -fpre-include=/usr/include/finclude/math-vector-fortran.h
REM seed -83527019 649482765 677637436 231133157 -1205698001 -359906031 -1859104389 941748649 -131958896 880810346 -1010890965 -177965127 -777469276 654168073 526400881 325927643 -458896887 703597422 -91637983 133611987 4325457 -1083523718 -1701014300 -961793236 -1244658891 -1397012908 -1084148287 -2045001501 -1017142248 -1795425388 -1245106632 1204241028 1612404031
REM
CELL 1.54180   50.00000   50.00000   50.00000   90.00000   90.00000   90.00000
LATT -1
SFAC C  
C      1  0.4882810000000  0.5554210000000  0.5788390000000 1.0
C      1  0.4997420000000  0.5490560000000  0.4826050000000 1.0
C      1  0.4841470000000  0.5510510000000  0.5353020000000 1.0
C      1  0.5411740000000  0.4750860000000  0.4395750000000 1.0
C      1  0.5489300000000  0.5178790000000  0.4348220000000 1.0
C      1  0.5370610000000  0.5651580000000  0.4464550000000 1.0
C      1  0.4438500000000  0.4628030000000  0.4231610000000 1.0
C      1  0.4277050000000  0.4625090000000  0.4489460000000 1.0
C      1  0.5584450000000  0.4238860000000  0.5048930000000 1.0
C      1  0.5474740000000  0.4886790000000  0.5144900000000 1.0
C      1  0.5892080000000  0.4853100000000  0.5369530000000 1.0
C      1  0.4836640000000  0.5737270000000  0.4509240000000 1.0
C      1  0.5535200000000  0.5657740000000  0.5397530000000 1.0
C      1  0.4687710000000  0.4833250000000  0.4247390000000 1.0
C      1  0.3989420000000  0.5343030000000  0.4515000000000 1.0
C      1  0.5873680000000  0.5296150000000  0.5355630000000 1.0
C      1  0.5175480000000  0.4839040000000  0.4103170000000 1.0
C      1  0.4864030000000  0.4183950000000  0.5487250000000 1.0
C      1  0.4390290000000  0.4411210000000  0.4654590000000 1.0
C      1  0.5111740000000  0.4248810000000  0.5372580000000 1.0
C      1  0.5222810000000  0.5116650000000  0.4234670000000 1.0
C      1  0.5201180000000  0.4837900000000  0.5905880000000 1.0
C      1  0.4448190000000  0.4963070000000  0.5733490000000 1.0
C      1  0.5137790000000  0.5133550000000  0.5901680000000 1.0
C      1  0.5406890000000  0.4543330000000  0.4179630000000 1.0
C      1  0.5565350000000  0.5063890000000  0.5691740000000 1.0
C      1  0.5064800000000  0.4777760000000  0.4940910000000 1.0
C      1  0.4391910000000  0.5555760000000  0.4754980000000 1.0
C      1  0.4544040000000  0.5397410000000  0.4305180000000 1.0
C      1  0.5459960000000  0.4794830000000  0.5747420000000 1.0
C      1  0.5217280000000  0.5341220000000  0.4987480000000 1.0
C      1  0.4603200000000  0.4272480000000  0.4512620000000 1.0
C      1  0.4736000000000  0.5671990000000  0.5129930000000 1.0
C      1  0.4243910000000  0.5038150000000  0.5518610000000 1.0
C      1  0.4199040000000  0.4632450000000  0.5051460000000 1.0
C      1  0.4550630000000  0.4819000000000  0.5313190000000 1.0
C      1  0.5838730000000  0.4891460000000  0.4555840000000 1.0
C      1  0.4675980000000  0.4610950000000  0.5499460000000 1.0
C      1  0.5688350000000  0.5536710000000  0.4748030000000 1.0
C      1  0.5505410000000  0.5796350000000  0.4704090000000 1.0
C      1  0.4169270000000  0.5365080000000  0.4722010000000 1.0
C      1  0.4985270000000  0.4641290000000  0.5854210000000 1.0
C      1  0.5114120000000  0.5163500000000  0.4657360000000 1.0
C      1  0.4627830000000  0.5144190000000  0.5862120000000 1.0
C      1  0.5013420000000  0.5316130000000  0.4262400000000 1.0
C      1  0.5499170000000  0.4380450000000  0.4614360000000 1.0
C      1  0.5626840000000  0.5424430000000  0.5260870000000 1.0
C      1  0.4965230000000  0.4683800000000  0.5564770000000 1.0
C      1  0.5078640000000  0.5550460000000  0.4451570000000 1.0
C      1  0.4097080000000  0.4861820000000  0.4897930000000 1.0
C      1  0.5240200000000  0.5679160000000  0.5368470000000 1.0
C      1  0.4713790000000  0.5349650000000  0.4830840000000 1.0
C      1  0.4452440000000  0.5620490000000  0.5057290000000 1.0
C      1  0.5190830000000  0.4551920000000  0.5400140000000 1.0
C      1  0.5352460000000  0.4321140000000  0.4355040000000 1.0
C      1  0.5700870000000  0.5107720000000  0.4731700000000 1.0
C      1  0.4879510000000  0.5271940000000  0.5859280000000 1.0
C      1  0.4597600000000  0.4363360000000  0.4232190000000 1.0
C      1  0.5530530000000  0.5378810000000  0.4979900000000 1.0
C      1  0.5131640000000  0.5685330000000  0.5733630000000 1.0
C      1  0.4055440000000  0.5095040000000  0.5054510000000 1.0
C      1  0.4991200000000  0.4559170000000  0.4559470000000 1.0
C      1  0.5648270000000  0.4925250000000  0.4339310000000 1.0
C      1  0.4903970000000  0.4711780000000  0.4084590000000 1.0
C      1  0.5094480000000  0.4132900000000  0.5110000000000 1.0
C      1  0.4442420000000  0.5493720000000  0.5549990000000 1.0
C      1  0.5829820000000  0.5078760000000  0.5553970000000 1.0
C      1  0.5363480000000  0.5899210000000  0.4921120000000 1.0
C      1  0.4411080000000  0.4461690000000  0.4936840000000 1.0
C      1  0.5383250000000  0.5556650000000  0.5798940000000 1.0
C      1  0.4944660000000  0.4119450000000  0.4620980000000 1.0
C      1  0.4157230000000  0.4864550000000  0.4613230000000 1.0
C      1  0.5470710000000  0.4594210000000  0.5519350000000 1.0
C      1  0.4670800000000  0.5259450000000  0.5349140000000 1.0
C      1  0.4715390000000  0.4673160000000  0.4528650000000 1.0
C      1  0.5178400000000  0.5861950000000  0.5124900000000 1.0
C      1  0.5235170000000  0.4889360000000  0.4713280000000 1.0
C      1  0.5034480000000  0.4513690000000  0.4841190000000 1.0
C      1  0.4803300000000  0.5143950000000  0.4625790000000 1.0
C      1  0.5209630000000  0.4009010000000  0.4766900000000 1.0
C      1  0.4570780000000  0.5597460000000  0.4501560000000 1.0
C      1  0.4301520000000  0.5483660000000  0.5291280000000 1.0
C      1  0.5710010000000  0.4493770000000  0.5047630000000 1.0
C      1  0.5457730000000  0.4168100000000  0.4804510000000 1.0
C      1  0.4650690000000  0.4334070000000  0.5384450000000 1.0
C      1  0.4624030000000  0.4318910000000  0.5086560000000 1.0
C      1  0.5986150000000  0.5138400000000  0.5140480000000 1.0
C      1  0.5509160000000  0.4887140000000  0.4851870000000 1.0
C      1  0.4732860000000  0.4664430000000  0.5978510000000 1.0
C      1  0.4908060000000  0.5871100000000  0.5015160000000 1.0
C      1  0.4893390000000  0.4266170000000  0.4937280000000 1.0
C      1  0.5579400000000  0.5433490000000  0.4461470000000 1.0
C      1  0.4652600000000  0.5660000000000  0.5653000000000 1.0
C      1  0.5193790000000  0.4824730000000  0.5207430000000 1.0
C      1  0.4880510000000  0.4412570000000  0.4147130000000 1.0
C      1  0.4879560000000  0.5897350000000  0.4737420000000 1.0
C      1  0.4262080000000  0.4716520000000  0.5317080000000 1.0
C      1  0.4660000000000  0.5176010000000  0.5067940000000 1.0
C      1  0.5667570000000  0.4619830000000  0.4765190000000 1.0
C      1  0.5083110000000  0.5061000000000  0.5367420000000 1.0
C      1  0.5050450000000  0.4323430000000  0.4396610000000 1.0
C      1  0.4646830000000  0.4894550000000  0.5021960000000 1.0
C      1  0.4544570000000  0.4680320000000  0.5766080000000 1.0
C      1  0.5384120000000  0.5264410000000  0.5817880000000 1.0
C      1  0.4098610000000  0.5095960000000  0.4455140000000 1.0
C      1  0.4693760000000  0.4892010000000  0.4727350000000 1.0
C      1  0.5917740000000  0.5246040000000  0.4883020000000 1.0
C      1  0.5651590000000  0.4693550000000  0.5280100000000 1.0
C      1  0.4177960000000  0.5211580000000  0.5283360000000 1.0
C      1  0.5128750000000  0.5356420000000  0.5282040000000 1.0
C      1  0.4813930000000  0.5034980000000  0.5497980000000 1.0
C      1  0.5607770000000  0.5670420000000  0.5669630000000 1.0
C      1  0.4745230000000  0.5194280000000  0.4328190000000 1.0
END
