TITL C-951335-1172-537 -1.74437368980901e-06 125000 -405.077558828749 0 0 68 (C1) n - 1
REM
REM in /home/bkarasulu/work/CARBON/AIRSS/Generating-Clusters/EDIP-Nigel-Params/with-SteepDescent/Only-C1/SD-CG/HFTN-CG
REM
REM
REM
REM
REM
REM ./C.cell (11c1c37f851c82e70ff6c80c92926a4b)
REM
REM compiler GCC version 9.2.1 20190827 (Red Hat 9.2.1-1)
REM options -cpp -mtune=generic -march=x86-64 -g -O0 -fpre-include=/usr/include/finclude/math-vector-fortran.h
REM seed 808173555 1466300161 -2128798108 -2036875722 901727837 -517052862 -1802827885 1922903009 -1276298653 -1486724462 -458203426 -1954210559 1014969293 -1455601497 281869134 -1535094423 -1625529601 -560771575 435274545 -1274117763 1827301854 46726431 753076678 674448350 -2140499532 1578288191 1677782857 142300770 710160649 -2090208713 679984354 -1180065409 15068096
REM
CELL 1.54180   50.00000   50.00000   50.00000   90.00000   90.00000   90.00000
LATT -1
SFAC C  
C      1  0.5412170000000  0.4769630000000  0.4467490000000 1.0
C      1  0.4392820000000  0.4853200000000  0.5438430000000 1.0
C      1  0.4938990000000  0.4236650000000  0.4682650000000 1.0
C      1  0.4216940000000  0.4637640000000  0.4722320000000 1.0
C      1  0.5174140000000  0.5146380000000  0.4228350000000 1.0
C      1  0.5341120000000  0.5502260000000  0.5382260000000 1.0
C      1  0.5500970000000  0.5517680000000  0.4598160000000 1.0
C      1  0.5033740000000  0.5549960000000  0.4385200000000 1.0
C      1  0.4445030000000  0.4576570000000  0.5428900000000 1.0
C      1  0.4721280000000  0.4578730000000  0.5329580000000 1.0
C      1  0.5561890000000  0.4906000000000  0.5339270000000 1.0
C      1  0.5382440000000  0.5408340000000  0.5100850000000 1.0
C      1  0.4495110000000  0.5015120000000  0.5653340000000 1.0
C      1  0.4790770000000  0.4886760000000  0.5100370000000 1.0
C      1  0.4472440000000  0.5530070000000  0.4717470000000 1.0
C      1  0.5068410000000  0.4286540000000  0.5175530000000 1.0
C      1  0.4946440000000  0.5793360000000  0.5217360000000 1.0
C      1  0.5291830000000  0.5021960000000  0.4813050000000 1.0
C      1  0.4329840000000  0.4362430000000  0.4775220000000 1.0
C      1  0.4651980000000  0.4840290000000  0.4742280000000 1.0
C      1  0.4948590000000  0.5301130000000  0.5611240000000 1.0
C      1  0.4268170000000  0.4851360000000  0.4961650000000 1.0
C      1  0.4787760000000  0.4325610000000  0.5167230000000 1.0
C      1  0.4537710000000  0.5686810000000  0.4498770000000 1.0
C      1  0.5215220000000  0.4767580000000  0.4863850000000 1.0
C      1  0.5143060000000  0.5701220000000  0.5391270000000 1.0
C      1  0.4929930000000  0.4757730000000  0.4371490000000 1.0
C      1  0.5401950000000  0.5311670000000  0.4201210000000 1.0
C      1  0.4528840000000  0.5514730000000  0.5104810000000 1.0
C      1  0.4377370000000  0.5005250000000  0.5194860000000 1.0
C      1  0.4928090000000  0.5587200000000  0.4756930000000 1.0
C      1  0.4889320000000  0.4582580000000  0.5578670000000 1.0
C      1  0.5565360000000  0.5018820000000  0.4682810000000 1.0
C      1  0.4705620000000  0.5160200000000  0.4372680000000 1.0
C      1  0.5154320000000  0.4674810000000  0.5530380000000 1.0
C      1  0.5182650000000  0.4866900000000  0.4312200000000 1.0
C      1  0.5285930000000  0.4354290000000  0.5007130000000 1.0
C      1  0.4696070000000  0.5421580000000  0.4860460000000 1.0
C      1  0.5013680000000  0.5779230000000  0.4948980000000 1.0
C      1  0.4680590000000  0.5707270000000  0.5272780000000 1.0
C      1  0.5658760000000  0.5316890000000  0.4716430000000 1.0
C      1  0.5222850000000  0.4318050000000  0.4722000000000 1.0
C      1  0.4603650000000  0.4896720000000  0.5882050000000 1.0
C      1  0.4934700000000  0.5160170000000  0.5128530000000 1.0
C      1  0.4866420000000  0.5376020000000  0.5333760000000 1.0
C      1  0.5554400000000  0.4468340000000  0.5090140000000 1.0
C      1  0.5241460000000  0.5280370000000  0.5553460000000 1.0
C      1  0.4812400000000  0.5739690000000  0.4518220000000 1.0
C      1  0.5212980000000  0.5176640000000  0.5041290000000 1.0
C      1  0.5378250000000  0.4502940000000  0.5531750000000 1.0
C      1  0.5416910000000  0.5031870000000  0.5575140000000 1.0
C      1  0.5341670000000  0.5530710000000  0.4370530000000 1.0
C      1  0.4440910000000  0.5284640000000  0.5277990000000 1.0
C      1  0.4562770000000  0.5281840000000  0.5554490000000 1.0
C      1  0.5664130000000  0.5331340000000  0.5020690000000 1.0
C      1  0.5363500000000  0.4498820000000  0.4548400000000 1.0
C      1  0.4928170000000  0.5296000000000  0.4271350000000 1.0
C      1  0.5283570000000  0.4828340000000  0.5729980000000 1.0
C      1  0.4708390000000  0.4899160000000  0.4466120000000 1.0
C      1  0.5756740000000  0.4876430000000  0.4871530000000 1.0
C      1  0.5725240000000  0.5041000000000  0.5121540000000 1.0
C      1  0.4821490000000  0.4596540000000  0.4768230000000 1.0
C      1  0.4984380000000  0.4679390000000  0.4990390000000 1.0
C      1  0.4342150000000  0.4555750000000  0.4999310000000 1.0
C      1  0.5573460000000  0.4605920000000  0.5351490000000 1.0
C      1  0.5718650000000  0.4599820000000  0.4905070000000 1.0
C      1  0.4773730000000  0.4704220000000  0.5801060000000 1.0
C      1  0.4699690000000  0.4326840000000  0.4871550000000 1.0
END
