TITL C-951333-8791-464 8.56331426448628e-07 125000 -685.027999754177 0 0 111 (C1) n - 1
REM
REM in /home/bkarasulu/work/CARBON/AIRSS/Generating-Clusters/EDIP-Nigel-Params/with-SteepDescent/Only-C1/SD-CG/HFTN-CG
REM
REM
REM
REM
REM
REM ./C.cell (11c1c37f851c82e70ff6c80c92926a4b)
REM
REM compiler GCC version 9.2.1 20190827 (Red Hat 9.2.1-1)
REM options -cpp -mtune=generic -march=x86-64 -g -O0 -fpre-include=/usr/include/finclude/math-vector-fortran.h
REM seed 1785376360 -1406386859 1114834363 212680949 711231725 -2098240770 590898587 -776780751 614256001 -2058384635 1987213690 -1388088606 1083553353 1970609379 -503237360 -709734495 189614573 1086291414 -1710911424 -143738605 -909050018 1140366686 682678609 -1480619507 1545259668 1044530620 303591229 -518067512 1292894885 -230840453 1619094975 -861033790 -1876812096
REM
CELL 1.54180   50.00000   50.00000   50.00000   90.00000   90.00000   90.00000
LATT -1
SFAC C  
C      1  0.5018810000000  0.4394670000000  0.4190380000000 1.0
C      1  0.5954540000000  0.4884240000000  0.5547320000000 1.0
C      1  0.4250800000000  0.5235600000000  0.4801140000000 1.0
C      1  0.4815860000000  0.5068890000000  0.5274630000000 1.0
C      1  0.4218880000000  0.4319680000000  0.5094730000000 1.0
C      1  0.4166640000000  0.5409270000000  0.5501620000000 1.0
C      1  0.5770920000000  0.4508230000000  0.4780050000000 1.0
C      1  0.4192140000000  0.5109630000000  0.5514020000000 1.0
C      1  0.4437750000000  0.5038490000000  0.5661370000000 1.0
C      1  0.5096730000000  0.5550720000000  0.4756360000000 1.0
C      1  0.6028970000000  0.5327370000000  0.4752250000000 1.0
C      1  0.4222430000000  0.4738080000000  0.4848080000000 1.0
C      1  0.4448900000000  0.4547640000000  0.5467390000000 1.0
C      1  0.5490980000000  0.4998160000000  0.4167110000000 1.0
C      1  0.4646180000000  0.4210150000000  0.4885160000000 1.0
C      1  0.5487140000000  0.5482670000000  0.5675790000000 1.0
C      1  0.4464920000000  0.4336740000000  0.4675970000000 1.0
C      1  0.4812220000000  0.5374210000000  0.5788090000000 1.0
C      1  0.5134850000000  0.4905780000000  0.5802090000000 1.0
C      1  0.5904210000000  0.4752150000000  0.4725560000000 1.0
C      1  0.5679480000000  0.4387090000000  0.4543810000000 1.0
C      1  0.4472370000000  0.5482920000000  0.4425800000000 1.0
C      1  0.4825040000000  0.5634770000000  0.5646030000000 1.0
C      1  0.4686920000000  0.5285250000000  0.4394010000000 1.0
C      1  0.4696190000000  0.4670700000000  0.5046880000000 1.0
C      1  0.5484340000000  0.4684280000000  0.5514040000000 1.0
C      1  0.5571580000000  0.5379460000000  0.4505210000000 1.0
C      1  0.5364910000000  0.4345460000000  0.5030590000000 1.0
C      1  0.5058750000000  0.5762480000000  0.5532700000000 1.0
C      1  0.5844120000000  0.4905140000000  0.4489090000000 1.0
C      1  0.5114420000000  0.4389960000000  0.4846070000000 1.0
C      1  0.4472150000000  0.4161150000000  0.5142740000000 1.0
C      1  0.4519910000000  0.4754360000000  0.5700970000000 1.0
C      1  0.5176190000000  0.4155750000000  0.4444380000000 1.0
C      1  0.4971590000000  0.5859570000000  0.5171990000000 1.0
C      1  0.5157590000000  0.4759400000000  0.5181940000000 1.0
C      1  0.5667670000000  0.5036860000000  0.4862780000000 1.0
C      1  0.4301190000000  0.4926150000000  0.4417010000000 1.0
C      1  0.5135690000000  0.5401690000000  0.5288440000000 1.0
C      1  0.5736370000000  0.5476870000000  0.5254570000000 1.0
C      1  0.5573400000000  0.5112790000000  0.5757250000000 1.0
C      1  0.5920640000000  0.4801570000000  0.5278620000000 1.0
C      1  0.4339640000000  0.5499030000000  0.4679010000000 1.0
C      1  0.4133890000000  0.4787660000000  0.5129510000000 1.0
C      1  0.5134850000000  0.5981620000000  0.4960760000000 1.0
C      1  0.4197780000000  0.4549810000000  0.5292000000000 1.0
C      1  0.4135960000000  0.4981010000000  0.4654520000000 1.0
C      1  0.5378720000000  0.5235340000000  0.4318150000000 1.0
C      1  0.5799130000000  0.5187760000000  0.4618300000000 1.0
C      1  0.4530030000000  0.5283810000000  0.5806270000000 1.0
C      1  0.4718800000000  0.5855560000000  0.4796180000000 1.0
C      1  0.5271160000000  0.4473390000000  0.5502970000000 1.0
C      1  0.4732880000000  0.4774630000000  0.5328220000000 1.0
C      1  0.4579880000000  0.5006790000000  0.4458260000000 1.0
C      1  0.5445240000000  0.5235500000000  0.4908040000000 1.0
C      1  0.4193390000000  0.5050190000000  0.5232290000000 1.0
C      1  0.5600080000000  0.4806910000000  0.4357390000000 1.0
C      1  0.5015850000000  0.5849180000000  0.4734730000000 1.0
C      1  0.5405780000000  0.5474870000000  0.4746920000000 1.0
C      1  0.5149820000000  0.5138860000000  0.4491000000000 1.0
C      1  0.4828010000000  0.4987170000000  0.4077920000000 1.0
C      1  0.4377930000000  0.5514670000000  0.5681460000000 1.0
C      1  0.4960090000000  0.5249560000000  0.5471240000000 1.0
C      1  0.5307850000000  0.4892650000000  0.3984820000000 1.0
C      1  0.5311010000000  0.5739870000000  0.5668870000000 1.0
C      1  0.5704360000000  0.5611790000000  0.5506310000000 1.0
C      1  0.5850630000000  0.5047250000000  0.5106230000000 1.0
C      1  0.5598630000000  0.4519820000000  0.5015120000000 1.0
C      1  0.5417520000000  0.4871370000000  0.5752040000000 1.0
C      1  0.4124280000000  0.5280320000000  0.5069840000000 1.0
C      1  0.5536820000000  0.4516100000000  0.4341010000000 1.0
C      1  0.4798990000000  0.4716350000000  0.5771270000000 1.0
C      1  0.5674340000000  0.5186110000000  0.5302640000000 1.0
C      1  0.4630410000000  0.5563040000000  0.4775730000000 1.0
C      1  0.5707900000000  0.4600400000000  0.5278860000000 1.0
C      1  0.4312440000000  0.4654130000000  0.4351420000000 1.0
C      1  0.5147140000000  0.4601460000000  0.4620280000000 1.0
C      1  0.5544140000000  0.5851200000000  0.5535830000000 1.0
C      1  0.4884030000000  0.4344250000000  0.5286390000000 1.0
C      1  0.4606990000000  0.4286010000000  0.5388570000000 1.0
C      1  0.4955030000000  0.4799110000000  0.5984290000000 1.0
C      1  0.5789770000000  0.5113700000000  0.5567280000000 1.0
C      1  0.5322470000000  0.4281060000000  0.5302490000000 1.0
C      1  0.4675800000000  0.5488440000000  0.5079150000000 1.0
C      1  0.5240040000000  0.4444510000000  0.4389150000000 1.0
C      1  0.4522580000000  0.4487000000000  0.4430700000000 1.0
C      1  0.4947930000000  0.5347100000000  0.4569110000000 1.0
C      1  0.4979560000000  0.5559600000000  0.5087300000000 1.0
C      1  0.4523510000000  0.5119760000000  0.4879630000000 1.0
C      1  0.5005020000000  0.4861960000000  0.4535170000000 1.0
C      1  0.5267190000000  0.5186910000000  0.5132870000000 1.0
C      1  0.4741940000000  0.4454580000000  0.4242430000000 1.0
C      1  0.4679970000000  0.5932520000000  0.5095370000000 1.0
C      1  0.5048410000000  0.4915970000000  0.3928980000000 1.0
C      1  0.5026400000000  0.5001380000000  0.5063740000000 1.0
C      1  0.5977030000000  0.5500010000000  0.5093330000000 1.0
C      1  0.4527890000000  0.4810220000000  0.4842720000000 1.0
C      1  0.4562410000000  0.5695640000000  0.5534230000000 1.0
C      1  0.4507070000000  0.5704230000000  0.5234270000000 1.0
C      1  0.5009100000000  0.4598710000000  0.5399960000000 1.0
C      1  0.4818670000000  0.4006620000000  0.4766450000000 1.0
C      1  0.5068090000000  0.4128010000000  0.4709040000000 1.0
C      1  0.4870580000000  0.4976280000000  0.4789050000000 1.0
C      1  0.6070880000000  0.5235730000000  0.5024420000000 1.0
C      1  0.5396820000000  0.4909640000000  0.5312070000000 1.0
C      1  0.4222080000000  0.4432160000000  0.4812960000000 1.0
C      1  0.4778340000000  0.4827780000000  0.4325260000000 1.0
C      1  0.4180990000000  0.5521550000000  0.5226110000000 1.0
C      1  0.4840110000000  0.4414280000000  0.5000540000000 1.0
C      1  0.4598470000000  0.5213360000000  0.5144630000000 1.0
C      1  0.4765120000000  0.5260690000000  0.4112860000000 1.0
END
