TITL C-950530-3293-171 6.55374287068322e-08 125000 -1176.44910940274 0 0 185 (C1) n - 1
REM
REM in /home/bkarasulu/work/CARBON/AIRSS/Generating-Clusters/EDIP-Nigel-Params/with-SteepDescent/Only-C1/SD-CG/HFTN-CG
REM
REM
REM
REM
REM
REM ./C.cell (11c1c37f851c82e70ff6c80c92926a4b)
REM
REM compiler GCC version 9.2.1 20190827 (Red Hat 9.2.1-1)
REM options -cpp -mtune=generic -march=x86-64 -g -O0 -fpre-include=/usr/include/finclude/math-vector-fortran.h
REM seed -278345408 -1463366092 -1235443098 -690489279 1462979410 -1234619614 2127694526 851596595 1212102014 -558880057 -825446725 -86131885 -1709494889 208040041 -768700421 801221606 46592869 -1342202727 1512998307 -1435223539 -1031972 535596828 340913676 1305476691 -1159126112 -1278938392 446298952 -870951325 1776759531 1534727959 -1482553312 2092617077 1307132975
REM
CELL 1.54180   50.00000   50.00000   50.00000   90.00000   90.00000   90.00000
LATT -1
SFAC C  
C      1  0.5478520000000  0.4876230000000  0.3938510000000 1.0
C      1  0.5602060000000  0.4010230000000  0.4772170000000 1.0
C      1  0.4346950000000  0.5857760000000  0.5257080000000 1.0
C      1  0.5288390000000  0.6001940000000  0.4528380000000 1.0
C      1  0.4350100000000  0.4852390000000  0.5573570000000 1.0
C      1  0.5000880000000  0.4105370000000  0.5700670000000 1.0
C      1  0.4835970000000  0.4572530000000  0.6128280000000 1.0
C      1  0.5223910000000  0.4497840000000  0.4732460000000 1.0
C      1  0.5172070000000  0.4334510000000  0.5236110000000 1.0
C      1  0.5657420000000  0.4944760000000  0.4885490000000 1.0
C      1  0.5145850000000  0.3949950000000  0.5511090000000 1.0
C      1  0.4925450000000  0.5245060000000  0.5010470000000 1.0
C      1  0.5372360000000  0.5647660000000  0.5644280000000 1.0
C      1  0.5071570000000  0.6036080000000  0.5435840000000 1.0
C      1  0.5677250000000  0.5901710000000  0.4820150000000 1.0
C      1  0.5912340000000  0.5154370000000  0.4339900000000 1.0
C      1  0.5010320000000  0.4490160000000  0.5692960000000 1.0
C      1  0.4126000000000  0.5220040000000  0.5672600000000 1.0
C      1  0.4362810000000  0.5139050000000  0.4495410000000 1.0
C      1  0.5351810000000  0.5912180000000  0.5504650000000 1.0
C      1  0.5846460000000  0.4523880000000  0.5493130000000 1.0
C      1  0.4183740000000  0.5519950000000  0.4313880000000 1.0
C      1  0.4889070000000  0.5602760000000  0.5658240000000 1.0
C      1  0.4645340000000  0.5865080000000  0.5233150000000 1.0
C      1  0.4569930000000  0.5359700000000  0.5297330000000 1.0
C      1  0.4439530000000  0.4350620000000  0.5127950000000 1.0
C      1  0.4667280000000  0.4860000000000  0.4058970000000 1.0
C      1  0.3994360000000  0.4878210000000  0.4295240000000 1.0
C      1  0.4402700000000  0.5427560000000  0.5572920000000 1.0
C      1  0.4608340000000  0.5347470000000  0.4109430000000 1.0
C      1  0.6146440000000  0.5188010000000  0.5236800000000 1.0
C      1  0.5457670000000  0.5206440000000  0.5956080000000 1.0
C      1  0.4009170000000  0.4550820000000  0.5198880000000 1.0
C      1  0.4581100000000  0.4879770000000  0.5742740000000 1.0
C      1  0.5708190000000  0.4995510000000  0.4509180000000 1.0
C      1  0.6019140000000  0.5589370000000  0.4966650000000 1.0
C      1  0.5894110000000  0.5712930000000  0.4721700000000 1.0
C      1  0.4409040000000  0.4703260000000  0.4064860000000 1.0
C      1  0.5003020000000  0.5378710000000  0.5495560000000 1.0
C      1  0.5852850000000  0.5548540000000  0.5444520000000 1.0
C      1  0.4043110000000  0.4845500000000  0.4790570000000 1.0
C      1  0.4665390000000  0.5345220000000  0.6018450000000 1.0
C      1  0.5673170000000  0.4298720000000  0.4681640000000 1.0
C      1  0.4266310000000  0.5891250000000  0.4965080000000 1.0
C      1  0.3948260000000  0.4510960000000  0.4895530000000 1.0
C      1  0.5322210000000  0.5318430000000  0.4590920000000 1.0
C      1  0.5338100000000  0.4949530000000  0.5616910000000 1.0
C      1  0.5282790000000  0.5435300000000  0.5441570000000 1.0
C      1  0.5480310000000  0.5570120000000  0.4548990000000 1.0
C      1  0.5638970000000  0.4426460000000  0.4971140000000 1.0
C      1  0.4543000000000  0.4273500000000  0.5781580000000 1.0
C      1  0.6005840000000  0.5276220000000  0.4989360000000 1.0
C      1  0.5416240000000  0.4374890000000  0.4513990000000 1.0
C      1  0.4668690000000  0.5604320000000  0.5080950000000 1.0
C      1  0.5030530000000  0.6086040000000  0.4636810000000 1.0
C      1  0.5783990000000  0.5411060000000  0.4267580000000 1.0
C      1  0.4841990000000  0.5854590000000  0.5476440000000 1.0
C      1  0.4591060000000  0.5635780000000  0.4184190000000 1.0
C      1  0.4532450000000  0.4895550000000  0.4517380000000 1.0
C      1  0.4752190000000  0.4823130000000  0.4343200000000 1.0
C      1  0.5042350000000  0.5651900000000  0.4732130000000 1.0
C      1  0.4913490000000  0.4485220000000  0.4725880000000 1.0
C      1  0.4771790000000  0.4855980000000  0.6172980000000 1.0
C      1  0.5707570000000  0.4385590000000  0.5690040000000 1.0
C      1  0.4782420000000  0.4038080000000  0.5123520000000 1.0
C      1  0.5269200000000  0.4451030000000  0.5507650000000 1.0
C      1  0.4982120000000  0.5549130000000  0.5012160000000 1.0
C      1  0.5457450000000  0.4917120000000  0.5982760000000 1.0
C      1  0.5970000000000  0.4333970000000  0.5322990000000 1.0
C      1  0.3899880000000  0.5013180000000  0.4992530000000 1.0
C      1  0.5099040000000  0.4761050000000  0.4067280000000 1.0
C      1  0.4441900000000  0.5184890000000  0.6091640000000 1.0
C      1  0.3969510000000  0.4603430000000  0.4341590000000 1.0
C      1  0.5284550000000  0.5226330000000  0.4875130000000 1.0
C      1  0.4310830000000  0.4295670000000  0.5624890000000 1.0
C      1  0.4335200000000  0.5246910000000  0.4210540000000 1.0
C      1  0.5353050000000  0.5134070000000  0.3985430000000 1.0
C      1  0.5464260000000  0.4594810000000  0.4033080000000 1.0
C      1  0.5167950000000  0.6062310000000  0.5130420000000 1.0
C      1  0.5905150000000  0.5163620000000  0.5681700000000 1.0
C      1  0.5464180000000  0.4264660000000  0.5633630000000 1.0
C      1  0.4105400000000  0.5675210000000  0.4830540000000 1.0
C      1  0.4691780000000  0.6062270000000  0.5014030000000 1.0
C      1  0.5670430000000  0.5578380000000  0.5684290000000 1.0
C      1  0.5429590000000  0.5096070000000  0.4417970000000 1.0
C      1  0.6044430000000  0.5327790000000  0.5484190000000 1.0
C      1  0.5285330000000  0.5617200000000  0.4154610000000 1.0
C      1  0.4909720000000  0.4897870000000  0.3869140000000 1.0
C      1  0.4299280000000  0.4634270000000  0.5142260000000 1.0
C      1  0.6145390000000  0.5188940000000  0.4493650000000 1.0
C      1  0.5757630000000  0.5510770000000  0.4552110000000 1.0
C      1  0.4836930000000  0.4736040000000  0.4872770000000 1.0
C      1  0.5179340000000  0.4837720000000  0.6010770000000 1.0
C      1  0.6062850000000  0.4717210000000  0.5056030000000 1.0
C      1  0.4622340000000  0.4025890000000  0.5381940000000 1.0
C      1  0.5440450000000  0.5178910000000  0.5468240000000 1.0
C      1  0.3951870000000  0.5252200000000  0.5440050000000 1.0
C      1  0.4002070000000  0.5506530000000  0.5305260000000 1.0
C      1  0.5185900000000  0.5343900000000  0.5984490000000 1.0
C      1  0.5757620000000  0.4717870000000  0.4419510000000 1.0
C      1  0.4024760000000  0.5530490000000  0.4563750000000 1.0
C      1  0.4206880000000  0.4936940000000  0.4100470000000 1.0
C      1  0.5433700000000  0.3986320000000  0.5544250000000 1.0
C      1  0.5299890000000  0.5559880000000  0.5169170000000 1.0
C      1  0.5061040000000  0.5165700000000  0.3905360000000 1.0
C      1  0.4798970000000  0.5785220000000  0.4599500000000 1.0
C      1  0.4416860000000  0.4464530000000  0.4276140000000 1.0
C      1  0.5028330000000  0.5507950000000  0.4270840000000 1.0
C      1  0.5057360000000  0.4981210000000  0.5765870000000 1.0
C      1  0.6090740000000  0.4780870000000  0.4771150000000 1.0
C      1  0.5236530000000  0.4785060000000  0.4685650000000 1.0
C      1  0.4948020000000  0.5035980000000  0.4373750000000 1.0
C      1  0.4851020000000  0.4802220000000  0.5635050000000 1.0
C      1  0.5146180000000  0.5605940000000  0.5849650000000 1.0
C      1  0.4531590000000  0.5635750000000  0.4730820000000 1.0
C      1  0.5890480000000  0.5716600000000  0.5204270000000 1.0
C      1  0.4747180000000  0.4343010000000  0.5053710000000 1.0
C      1  0.4596400000000  0.4030010000000  0.4788310000000 1.0
C      1  0.4924770000000  0.5194150000000  0.6060590000000 1.0
C      1  0.5327540000000  0.5877110000000  0.4273510000000 1.0
C      1  0.4064840000000  0.5035270000000  0.4543340000000 1.0
C      1  0.5707200000000  0.5326870000000  0.5835340000000 1.0
C      1  0.5239880000000  0.4826890000000  0.5162230000000 1.0
C      1  0.4626660000000  0.5507380000000  0.5776850000000 1.0
C      1  0.4431380000000  0.5162870000000  0.5139130000000 1.0
C      1  0.5256820000000  0.3860500000000  0.5058920000000 1.0
C      1  0.3972650000000  0.5498840000000  0.5014780000000 1.0
C      1  0.4397480000000  0.5696930000000  0.4389810000000 1.0
C      1  0.4230810000000  0.5645470000000  0.5429350000000 1.0
C      1  0.5508420000000  0.3834490000000  0.5207720000000 1.0
C      1  0.5486480000000  0.5382010000000  0.5016060000000 1.0
C      1  0.5083960000000  0.4030360000000  0.5228060000000 1.0
C      1  0.5717570000000  0.3969450000000  0.5052250000000 1.0
C      1  0.5401390000000  0.5805380000000  0.4717200000000 1.0
C      1  0.5915220000000  0.4587550000000  0.4620230000000 1.0
C      1  0.5385010000000  0.4726960000000  0.5410830000000 1.0
C      1  0.5488350000000  0.5392650000000  0.4102050000000 1.0
C      1  0.4692080000000  0.4298780000000  0.4336290000000 1.0
C      1  0.5757270000000  0.4703250000000  0.5053170000000 1.0
C      1  0.3999590000000  0.5004530000000  0.5270380000000 1.0
C      1  0.5084950000000  0.4041550000000  0.4590720000000 1.0
C      1  0.4832750000000  0.5723030000000  0.4303960000000 1.0
C      1  0.5400630000000  0.5852770000000  0.5204910000000 1.0
C      1  0.5215850000000  0.4896430000000  0.4408880000000 1.0
C      1  0.4467350000000  0.6051240000000  0.4836740000000 1.0
C      1  0.5173680000000  0.4478170000000  0.3990370000000 1.0
C      1  0.5341660000000  0.4430030000000  0.4999670000000 1.0
C      1  0.5517180000000  0.4585350000000  0.4325290000000 1.0
C      1  0.3905310000000  0.4756450000000  0.5410810000000 1.0
C      1  0.5757280000000  0.4240140000000  0.5162160000000 1.0
C      1  0.4738390000000  0.4153530000000  0.5618280000000 1.0
C      1  0.6072000000000  0.5083690000000  0.4744800000000 1.0
C      1  0.4155310000000  0.4365340000000  0.4721950000000 1.0
C      1  0.3886080000000  0.5274760000000  0.4600810000000 1.0
C      1  0.5237330000000  0.4171220000000  0.4378230000000 1.0
C      1  0.4534860000000  0.4923410000000  0.6028300000000 1.0
C      1  0.4320870000000  0.4746160000000  0.4876910000000 1.0
C      1  0.4919740000000  0.4480250000000  0.5233190000000 1.0
C      1  0.5689330000000  0.4748690000000  0.5349110000000 1.0
C      1  0.4964480000000  0.6045390000000  0.4918230000000 1.0
C      1  0.4952610000000  0.4752350000000  0.5152120000000 1.0
C      1  0.4582710000000  0.4871320000000  0.4801360000000 1.0
C      1  0.4500560000000  0.5330980000000  0.4694290000000 1.0
C      1  0.4096860000000  0.4919050000000  0.5695030000000 1.0
C      1  0.5682410000000  0.5906750000000  0.5113090000000 1.0
C      1  0.5049610000000  0.4294600000000  0.4187900000000 1.0
C      1  0.5355320000000  0.4938050000000  0.4904550000000 1.0
C      1  0.4843030000000  0.5211700000000  0.5312550000000 1.0
C      1  0.4610920000000  0.5153480000000  0.4901750000000 1.0
C      1  0.5302950000000  0.3970920000000  0.4794540000000 1.0
C      1  0.5708260000000  0.5076940000000  0.5370470000000 1.0
C      1  0.3832610000000  0.5275960000000  0.4888720000000 1.0
C      1  0.6175720000000  0.4909060000000  0.5231050000000 1.0
C      1  0.4304560000000  0.4925790000000  0.5282660000000 1.0
C      1  0.4164110000000  0.4422390000000  0.4427190000000 1.0
C      1  0.4630140000000  0.4425220000000  0.5999850000000 1.0
C      1  0.4779310000000  0.4096310000000  0.4569410000000 1.0
C      1  0.5061450000000  0.5425080000000  0.4546230000000 1.0
C      1  0.5718620000000  0.5187920000000  0.5068930000000 1.0
C      1  0.4365910000000  0.4207340000000  0.4871200000000 1.0
C      1  0.4371820000000  0.4178390000000  0.5369910000000 1.0
C      1  0.4862500000000  0.4536390000000  0.4424540000000 1.0
C      1  0.4904200000000  0.5256250000000  0.4153460000000 1.0
C      1  0.4822570000000  0.4913090000000  0.5359210000000 1.0
C      1  0.5090520000000  0.4556780000000  0.5981510000000 1.0
END
