TITL C-950532-2784-309 -6.82128976722938e-07 125000 -682.782728845281 0 0 112 (C1) n - 1
REM
REM in /home/bkarasulu/work/CARBON/AIRSS/Generating-Clusters/EDIP-Nigel-Params/with-SteepDescent/Only-C1/SD-CG/HFTN-CG
REM
REM
REM
REM
REM
REM ./C.cell (11c1c37f851c82e70ff6c80c92926a4b)
REM
REM compiler GCC version 9.2.1 20190827 (Red Hat 9.2.1-1)
REM options -cpp -mtune=generic -march=x86-64 -g -O0 -fpre-include=/usr/include/finclude/math-vector-fortran.h
REM seed -688925120 354364073 1426224309 498911614 -1949169427 -835641431 -664826274 1017028126 -1442486767 -975837422 404615422 -357587524 -200005378 -335997487 797555302 -2133317183 788317026 -722535937 1057556338 -1679718598 -946137947 -278938447 618132078 370993451 -1219214622 1104728807 576862033 2097856440 -2135487057 -62016587 1499695550 -289068762 523978463
REM
CELL 1.54180   50.00000   50.00000   50.00000   90.00000   90.00000   90.00000
LATT -1
SFAC C  
C      1  0.5106660000000  0.4644720000000  0.4019900000000 1.0
C      1  0.5768600000000  0.4764250000000  0.5034480000000 1.0
C      1  0.5469450000000  0.4416940000000  0.5329140000000 1.0
C      1  0.4561610000000  0.5472320000000  0.5614300000000 1.0
C      1  0.5003220000000  0.4635860000000  0.4784770000000 1.0
C      1  0.5625040000000  0.5292380000000  0.4821250000000 1.0
C      1  0.4356920000000  0.5497230000000  0.5118530000000 1.0
C      1  0.4536860000000  0.4202010000000  0.5246420000000 1.0
C      1  0.5443400000000  0.4472150000000  0.5047250000000 1.0
C      1  0.4057930000000  0.5113000000000  0.5310520000000 1.0
C      1  0.4432200000000  0.4664140000000  0.4526240000000 1.0
C      1  0.4876110000000  0.5232320000000  0.5942960000000 1.0
C      1  0.4888870000000  0.5722510000000  0.5171020000000 1.0
C      1  0.5497400000000  0.5809060000000  0.4783360000000 1.0
C      1  0.5535260000000  0.5539900000000  0.4401280000000 1.0
C      1  0.4324600000000  0.4273410000000  0.5074320000000 1.0
C      1  0.5156870000000  0.4377240000000  0.5737590000000 1.0
C      1  0.4343380000000  0.4269900000000  0.4782520000000 1.0
C      1  0.5137220000000  0.4469370000000  0.4995340000000 1.0
C      1  0.4369750000000  0.5168470000000  0.4479050000000 1.0
C      1  0.4540390000000  0.4815130000000  0.4760660000000 1.0
C      1  0.5294830000000  0.4097640000000  0.5189590000000 1.0
C      1  0.4895670000000  0.5342920000000  0.4103710000000 1.0
C      1  0.5295700000000  0.5067560000000  0.4105120000000 1.0
C      1  0.4479870000000  0.4793170000000  0.5191080000000 1.0
C      1  0.5443740000000  0.4691960000000  0.4375270000000 1.0
C      1  0.4706440000000  0.5058140000000  0.4639800000000 1.0
C      1  0.5672330000000  0.5140530000000  0.5367110000000 1.0
C      1  0.4932850000000  0.5241890000000  0.5027900000000 1.0
C      1  0.4189070000000  0.4915220000000  0.4878030000000 1.0
C      1  0.5009730000000  0.5747530000000  0.4379020000000 1.0
C      1  0.4638860000000  0.4317320000000  0.4848260000000 1.0
C      1  0.4417080000000  0.4846620000000  0.4275480000000 1.0
C      1  0.4773080000000  0.4045010000000  0.5205980000000 1.0
C      1  0.5642040000000  0.5352840000000  0.5571030000000 1.0
C      1  0.5692640000000  0.4853850000000  0.5301320000000 1.0
C      1  0.5560710000000  0.4225940000000  0.4936290000000 1.0
C      1  0.4509010000000  0.5724350000000  0.5500300000000 1.0
C      1  0.4268340000000  0.5161430000000  0.4764530000000 1.0
C      1  0.5231350000000  0.5558500000000  0.5829650000000 1.0
C      1  0.5714570000000  0.5348450000000  0.4534450000000 1.0
C      1  0.4690740000000  0.4608380000000  0.5321640000000 1.0
C      1  0.4936530000000  0.5682300000000  0.4647540000000 1.0
C      1  0.4148110000000  0.5390110000000  0.5302180000000 1.0
C      1  0.5366220000000  0.5965850000000  0.5190920000000 1.0
C      1  0.4645320000000  0.4703300000000  0.4140620000000 1.0
C      1  0.4816270000000  0.4723020000000  0.5798830000000 1.0
C      1  0.4514670000000  0.5040790000000  0.5712950000000 1.0
C      1  0.5272670000000  0.4959960000000  0.5062490000000 1.0
C      1  0.5769410000000  0.5872210000000  0.4835660000000 1.0
C      1  0.5412870000000  0.5563070000000  0.5573100000000 1.0
C      1  0.5171540000000  0.5289020000000  0.5944130000000 1.0
C      1  0.5084400000000  0.4624690000000  0.5841850000000 1.0
C      1  0.4361800000000  0.4812770000000  0.5790980000000 1.0
C      1  0.5466950000000  0.4699390000000  0.5424830000000 1.0
C      1  0.5273630000000  0.4811680000000  0.5922270000000 1.0
C      1  0.4458480000000  0.5258440000000  0.4979390000000 1.0
C      1  0.4433120000000  0.5223120000000  0.5495490000000 1.0
C      1  0.5569320000000  0.5803400000000  0.4509580000000 1.0
C      1  0.5808410000000  0.5455220000000  0.5084870000000 1.0
C      1  0.5865220000000  0.5199530000000  0.4973070000000 1.0
C      1  0.5844000000000  0.4907970000000  0.4573900000000 1.0
C      1  0.5015650000000  0.5824460000000  0.5442010000000 1.0
C      1  0.4609290000000  0.4566580000000  0.5617470000000 1.0
C      1  0.4276260000000  0.4629280000000  0.5593590000000 1.0
C      1  0.4991950000000  0.5074740000000  0.5482760000000 1.0
C      1  0.5311130000000  0.5838670000000  0.5431240000000 1.0
C      1  0.4243120000000  0.4457800000000  0.4600830000000 1.0
C      1  0.5341970000000  0.5070830000000  0.5851300000000 1.0
C      1  0.5060050000000  0.4181360000000  0.4416990000000 1.0
C      1  0.5601110000000  0.5130120000000  0.5749580000000 1.0
C      1  0.4827120000000  0.4093510000000  0.4928390000000 1.0
C      1  0.4970810000000  0.4993110000000  0.4472310000000 1.0
C      1  0.5109950000000  0.4170970000000  0.4917510000000 1.0
C      1  0.4542900000000  0.5407090000000  0.4421690000000 1.0
C      1  0.3993690000000  0.4950280000000  0.5083390000000 1.0
C      1  0.5716620000000  0.5089290000000  0.4400830000000 1.0
C      1  0.5282320000000  0.5933840000000  0.4927910000000 1.0
C      1  0.4638500000000  0.5435390000000  0.4162810000000 1.0
C      1  0.5031510000000  0.4092630000000  0.5364280000000 1.0
C      1  0.5244490000000  0.5136930000000  0.4560970000000 1.0
C      1  0.5200590000000  0.4828830000000  0.5323090000000 1.0
C      1  0.5761110000000  0.4707100000000  0.4751490000000 1.0
C      1  0.4697120000000  0.5517170000000  0.4655070000000 1.0
C      1  0.5004810000000  0.5833100000000  0.4897550000000 1.0
C      1  0.5194200000000  0.4580740000000  0.4285430000000 1.0
C      1  0.4886740000000  0.4828390000000  0.4015470000000 1.0
C      1  0.4567720000000  0.5685820000000  0.5227270000000 1.0
C      1  0.5097290000000  0.5367540000000  0.5456590000000 1.0
C      1  0.5909990000000  0.5694630000000  0.4990380000000 1.0
C      1  0.5010780000000  0.4573380000000  0.5273010000000 1.0
C      1  0.4808420000000  0.5015380000000  0.5743190000000 1.0
C      1  0.4713430000000  0.5289270000000  0.4834910000000 1.0
C      1  0.5096280000000  0.5533690000000  0.4197920000000 1.0
C      1  0.5432850000000  0.4994670000000  0.4354360000000 1.0
C      1  0.4750440000000  0.4540210000000  0.4375030000000 1.0
C      1  0.4820280000000  0.4265550000000  0.4322220000000 1.0
C      1  0.5028370000000  0.5459530000000  0.5186780000000 1.0
C      1  0.4993800000000  0.4685130000000  0.4487330000000 1.0
C      1  0.5531380000000  0.4569600000000  0.4624980000000 1.0
C      1  0.5496370000000  0.4272440000000  0.4657440000000 1.0
C      1  0.5254080000000  0.5451770000000  0.4456290000000 1.0
C      1  0.4544790000000  0.5081730000000  0.5224570000000 1.0
C      1  0.5013560000000  0.4355210000000  0.5495100000000 1.0
C      1  0.4980750000000  0.5596490000000  0.5649640000000 1.0
C      1  0.5228650000000  0.4140830000000  0.4639230000000 1.0
C      1  0.5369550000000  0.5117510000000  0.4840810000000 1.0
C      1  0.4222160000000  0.4763140000000  0.5330970000000 1.0
C      1  0.5001640000000  0.5064890000000  0.4165590000000 1.0
C      1  0.4703210000000  0.5462360000000  0.5870420000000 1.0
C      1  0.4833860000000  0.5061790000000  0.5229430000000 1.0
C      1  0.4728010000000  0.4607840000000  0.4881480000000 1.0
END
