TITL C-951336-9012-160 -1.58225343364329e-06 125000 -599.728910854499 0 0 97 (C1) n - 1
REM
REM in /home/bkarasulu/work/CARBON/AIRSS/Generating-Clusters/EDIP-Nigel-Params/with-SteepDescent/Only-C1/SD-CG/HFTN-CG
REM
REM
REM
REM
REM
REM ./C.cell (11c1c37f851c82e70ff6c80c92926a4b)
REM
REM compiler GCC version 9.2.1 20190827 (Red Hat 9.2.1-1)
REM options -cpp -mtune=generic -march=x86-64 -g -O0 -fpre-include=/usr/include/finclude/math-vector-fortran.h
REM seed 866919115 1807716747 -676899128 -1760313440 1397467005 -1580173188 1403088532 1676456856 1163198903 386253905 130806951 -989063602 -926873909 -1024213321 490562441 940551533 306416314 999033332 -657276431 23515134 2131390001 -2036533690 -336483037 -921816816 -1412306800 2115030294 -1913031599 133748414 -2138281910 -895050341 641358620 -1706441513 -1507428696
REM
CELL 1.54180   50.00000   50.00000   50.00000   90.00000   90.00000   90.00000
LATT -1
SFAC C  
C      1  0.5160270000000  0.5307420000000  0.4111980000000 1.0
C      1  0.5490590000000  0.5380130000000  0.4554800000000 1.0
C      1  0.5114380000000  0.4105320000000  0.5024670000000 1.0
C      1  0.4993650000000  0.5683480000000  0.4695150000000 1.0
C      1  0.4342390000000  0.5551650000000  0.4873600000000 1.0
C      1  0.5327360000000  0.5200400000000  0.5257160000000 1.0
C      1  0.5643600000000  0.4692050000000  0.4406580000000 1.0
C      1  0.5404220000000  0.4284360000000  0.5494580000000 1.0
C      1  0.5435660000000  0.4998460000000  0.5466740000000 1.0
C      1  0.5031470000000  0.5608220000000  0.4414910000000 1.0
C      1  0.5227320000000  0.4405690000000  0.4226560000000 1.0
C      1  0.5870320000000  0.4862530000000  0.4424050000000 1.0
C      1  0.5341010000000  0.5802590000000  0.5497280000000 1.0
C      1  0.5658750000000  0.4472130000000  0.4597900000000 1.0
C      1  0.4183950000000  0.4690720000000  0.4831020000000 1.0
C      1  0.5063230000000  0.5768760000000  0.5522700000000 1.0
C      1  0.5078240000000  0.4727130000000  0.5796450000000 1.0
C      1  0.4805280000000  0.5254020000000  0.4712070000000 1.0
C      1  0.5551170000000  0.5423780000000  0.5691870000000 1.0
C      1  0.5777730000000  0.5325510000000  0.5188000000000 1.0
C      1  0.4294110000000  0.5062120000000  0.4468080000000 1.0
C      1  0.5138400000000  0.4835800000000  0.5517560000000 1.0
C      1  0.4720830000000  0.5603700000000  0.5183160000000 1.0
C      1  0.4912250000000  0.5834300000000  0.5279220000000 1.0
C      1  0.4704420000000  0.4805570000000  0.4930370000000 1.0
C      1  0.5554140000000  0.5163660000000  0.4757680000000 1.0
C      1  0.5342840000000  0.4275290000000  0.4980180000000 1.0
C      1  0.5303250000000  0.5073310000000  0.4886050000000 1.0
C      1  0.4685210000000  0.4274620000000  0.5197690000000 1.0
C      1  0.5057920000000  0.4597800000000  0.5343230000000 1.0
C      1  0.4123970000000  0.4761950000000  0.5112970000000 1.0
C      1  0.4744720000000  0.5805810000000  0.4752830000000 1.0
C      1  0.4982590000000  0.4722930000000  0.4840230000000 1.0
C      1  0.5632210000000  0.4715630000000  0.4959980000000 1.0
C      1  0.5344750000000  0.5854440000000  0.4989490000000 1.0
C      1  0.5855520000000  0.5058490000000  0.5171060000000 1.0
C      1  0.4805930000000  0.4819290000000  0.5846090000000 1.0
C      1  0.4847220000000  0.4177590000000  0.4982290000000 1.0
C      1  0.5165710000000  0.4616500000000  0.5051420000000 1.0
C      1  0.4867000000000  0.5279740000000  0.4119110000000 1.0
C      1  0.4632990000000  0.5017770000000  0.4748340000000 1.0
C      1  0.4437130000000  0.5068740000000  0.5305130000000 1.0
C      1  0.5221650000000  0.4263810000000  0.4466300000000 1.0
C      1  0.4910110000000  0.5036860000000  0.5447970000000 1.0
C      1  0.4563870000000  0.4435310000000  0.4642840000000 1.0
C      1  0.5409410000000  0.4333780000000  0.4682860000000 1.0
C      1  0.5964620000000  0.4813720000000  0.4687230000000 1.0
C      1  0.4488150000000  0.5418320000000  0.5634410000000 1.0
C      1  0.5788890000000  0.4969770000000  0.4887940000000 1.0
C      1  0.4620420000000  0.5436190000000  0.4548110000000 1.0
C      1  0.5381240000000  0.4807380000000  0.4381120000000 1.0
C      1  0.5526310000000  0.5606630000000  0.4729600000000 1.0
C      1  0.4474810000000  0.5397060000000  0.5326260000000 1.0
C      1  0.4469490000000  0.4580620000000  0.4878750000000 1.0
C      1  0.4053970000000  0.5262170000000  0.5107200000000 1.0
C      1  0.5103520000000  0.5936000000000  0.5097010000000 1.0
C      1  0.5369180000000  0.4824700000000  0.5037770000000 1.0
C      1  0.4769170000000  0.5516850000000  0.4284910000000 1.0
C      1  0.4559860000000  0.4631740000000  0.4440810000000 1.0
C      1  0.4699230000000  0.4901230000000  0.5239730000000 1.0
C      1  0.4335360000000  0.5343210000000  0.4548710000000 1.0
C      1  0.4141460000000  0.4896770000000  0.4639740000000 1.0
C      1  0.4239340000000  0.5474400000000  0.5134170000000 1.0
C      1  0.5516040000000  0.5435990000000  0.5222250000000 1.0
C      1  0.5199510000000  0.5358610000000  0.4403040000000 1.0
C      1  0.4568550000000  0.4924950000000  0.4465100000000 1.0
C      1  0.4753600000000  0.4610420000000  0.5360130000000 1.0
C      1  0.4222780000000  0.5034910000000  0.5109390000000 1.0
C      1  0.4910250000000  0.5392280000000  0.5103810000000 1.0
C      1  0.5152570000000  0.4917330000000  0.4665080000000 1.0
C      1  0.5376210000000  0.5576560000000  0.4966740000000 1.0
C      1  0.5001130000000  0.5490160000000  0.5590480000000 1.0
C      1  0.4968460000000  0.4168260000000  0.4523310000000 1.0
C      1  0.4285950000000  0.4576840000000  0.5300410000000 1.0
C      1  0.4771100000000  0.5090860000000  0.5727120000000 1.0
C      1  0.4791430000000  0.4264440000000  0.4711910000000 1.0
C      1  0.4572070000000  0.5708410000000  0.4947610000000 1.0
C      1  0.4447500000000  0.4407800000000  0.5118500000000 1.0
C      1  0.4678860000000  0.4594260000000  0.5666810000000 1.0
C      1  0.5042290000000  0.5290000000000  0.5347160000000 1.0
C      1  0.5024870000000  0.4442250000000  0.5767800000000 1.0
C      1  0.5899340000000  0.4532120000000  0.4749260000000 1.0
C      1  0.5499110000000  0.5160130000000  0.5694810000000 1.0
C      1  0.4376010000000  0.4677360000000  0.5578700000000 1.0
C      1  0.4752710000000  0.5481030000000  0.5737830000000 1.0
C      1  0.4466150000000  0.5142780000000  0.5747530000000 1.0
C      1  0.5134460000000  0.4359320000000  0.5511460000000 1.0
C      1  0.5485080000000  0.4378400000000  0.5242410000000 1.0
C      1  0.5712830000000  0.4868600000000  0.5365290000000 1.0
C      1  0.5697450000000  0.4591120000000  0.5223530000000 1.0
C      1  0.5097960000000  0.5453610000000  0.4877440000000 1.0
C      1  0.5006600000000  0.5136760000000  0.4521710000000 1.0
C      1  0.5524320000000  0.5594650000000  0.5474360000000 1.0
C      1  0.4961330000000  0.4804250000000  0.4172850000000 1.0
C      1  0.4829170000000  0.5028290000000  0.4291920000000 1.0
C      1  0.4323030000000  0.4970080000000  0.5562880000000 1.0
C      1  0.5207500000000  0.4681300000000  0.4197700000000 1.0
END
