TITL C-950535-5962-403 -9.54033830125809e-07 125000 -587.476607838956 0 0 95 (C1) n - 1
REM
REM in /home/bkarasulu/work/CARBON/AIRSS/Generating-Clusters/EDIP-Nigel-Params/with-SteepDescent/Only-C1/SD-CG/HFTN-CG
REM
REM
REM
REM
REM
REM ./C.cell (11c1c37f851c82e70ff6c80c92926a4b)
REM
REM compiler GCC version 9.2.1 20190827 (Red Hat 9.2.1-1)
REM options -cpp -mtune=generic -march=x86-64 -g -O0 -fpre-include=/usr/include/finclude/math-vector-fortran.h
REM seed 937396210 2128880330 -1797361947 -927136007 430950127 -48992105 -1445223450 350860691 584391727 -657579885 -145136778 1469899585 -504699494 -1057395564 -1638502035 -732646172 -1488681594 2116624188 -1538427299 -590348626 -1776790064 -1229054315 1537559386 683990500 -914219211 1269632599 -1057511648 81353004 -1012215252 606766713 -1623397735 240002811 -693977038
REM
CELL 1.54180   50.00000   50.00000   50.00000   90.00000   90.00000   90.00000
LATT -1
SFAC C  
C      1  0.4406570000000  0.5137710000000  0.4782320000000 1.0
C      1  0.5455490000000  0.4501620000000  0.5602360000000 1.0
C      1  0.4728810000000  0.5066160000000  0.5190290000000 1.0
C      1  0.4139050000000  0.4982890000000  0.4470380000000 1.0
C      1  0.4950450000000  0.5468140000000  0.5030050000000 1.0
C      1  0.4736870000000  0.4537670000000  0.4608950000000 1.0
C      1  0.4524280000000  0.4993760000000  0.5574320000000 1.0
C      1  0.5041870000000  0.4714730000000  0.5720300000000 1.0
C      1  0.4604270000000  0.5592880000000  0.4783830000000 1.0
C      1  0.4040750000000  0.5046760000000  0.4740110000000 1.0
C      1  0.4743960000000  0.5157840000000  0.5661930000000 1.0
C      1  0.5735250000000  0.5469080000000  0.5137350000000 1.0
C      1  0.5233720000000  0.4343880000000  0.5493460000000 1.0
C      1  0.5336220000000  0.4717800000000  0.5766040000000 1.0
C      1  0.4971690000000  0.5544700000000  0.4417400000000 1.0
C      1  0.5452450000000  0.5722250000000  0.4761810000000 1.0
C      1  0.5444890000000  0.4989660000000  0.5746300000000 1.0
C      1  0.4784710000000  0.5182390000000  0.4168790000000 1.0
C      1  0.5362720000000  0.5252800000000  0.5041130000000 1.0
C      1  0.4614760000000  0.4726110000000  0.5608490000000 1.0
C      1  0.5619380000000  0.5315760000000  0.4594820000000 1.0
C      1  0.5150080000000  0.5249360000000  0.5360070000000 1.0
C      1  0.4563920000000  0.4716540000000  0.4449020000000 1.0
C      1  0.4720750000000  0.5451930000000  0.5658440000000 1.0
C      1  0.5505980000000  0.5590980000000  0.5285250000000 1.0
C      1  0.5216210000000  0.5158680000000  0.5805360000000 1.0
C      1  0.4863090000000  0.4726960000000  0.4839490000000 1.0
C      1  0.4917550000000  0.4456870000000  0.4380690000000 1.0
C      1  0.4329260000000  0.5190660000000  0.4402890000000 1.0
C      1  0.5168370000000  0.5077140000000  0.4467050000000 1.0
C      1  0.4879490000000  0.4902140000000  0.4105980000000 1.0
C      1  0.5646790000000  0.4624480000000  0.4837690000000 1.0
C      1  0.4367180000000  0.4417180000000  0.5341250000000 1.0
C      1  0.4644490000000  0.4105760000000  0.5190750000000 1.0
C      1  0.4689290000000  0.5504180000000  0.4504380000000 1.0
C      1  0.4527130000000  0.4456230000000  0.5576230000000 1.0
C      1  0.4271930000000  0.4710780000000  0.4484010000000 1.0
C      1  0.4694040000000  0.4694160000000  0.4190740000000 1.0
C      1  0.4960300000000  0.5012710000000  0.5799490000000 1.0
C      1  0.4808340000000  0.4616310000000  0.5129110000000 1.0
C      1  0.5610080000000  0.4645000000000  0.5400790000000 1.0
C      1  0.5592310000000  0.5022720000000  0.4583250000000 1.0
C      1  0.5186400000000  0.4494130000000  0.4476380000000 1.0
C      1  0.5356950000000  0.4596890000000  0.4902050000000 1.0
C      1  0.5006550000000  0.5909520000000  0.4858990000000 1.0
C      1  0.5018200000000  0.5381120000000  0.4165360000000 1.0
C      1  0.5391420000000  0.5006780000000  0.4092380000000 1.0
C      1  0.4818190000000  0.5721520000000  0.4958410000000 1.0
C      1  0.5342630000000  0.5825410000000  0.5220130000000 1.0
C      1  0.5834390000000  0.4469740000000  0.4980630000000 1.0
C      1  0.4977970000000  0.4369300000000  0.5207200000000 1.0
C      1  0.4753290000000  0.4128510000000  0.4912420000000 1.0
C      1  0.5033310000000  0.4229840000000  0.4945170000000 1.0
C      1  0.5137700000000  0.5071420000000  0.4956640000000 1.0
C      1  0.4997600000000  0.4411340000000  0.5640760000000 1.0
C      1  0.4865360000000  0.4836770000000  0.5337120000000 1.0
C      1  0.4863720000000  0.5329110000000  0.5269180000000 1.0
C      1  0.4481840000000  0.4589650000000  0.5129300000000 1.0
C      1  0.4702210000000  0.5015090000000  0.4874500000000 1.0
C      1  0.5146910000000  0.4869000000000  0.4248970000000 1.0
C      1  0.5487970000000  0.5472430000000  0.5549840000000 1.0
C      1  0.4115940000000  0.4838120000000  0.4922830000000 1.0
C      1  0.5157290000000  0.4810980000000  0.4822420000000 1.0
C      1  0.5778170000000  0.4488810000000  0.5242050000000 1.0
C      1  0.5735770000000  0.5704130000000  0.4831330000000 1.0
C      1  0.5210890000000  0.5388950000000  0.5622490000000 1.0
C      1  0.5226690000000  0.4377550000000  0.4754310000000 1.0
C      1  0.5008760000000  0.5844250000000  0.5605090000000 1.0
C      1  0.5170220000000  0.5929560000000  0.5410710000000 1.0
C      1  0.4606980000000  0.5243130000000  0.4402560000000 1.0
C      1  0.4754640000000  0.4282860000000  0.5516050000000 1.0
C      1  0.4422600000000  0.5399720000000  0.4932130000000 1.0
C      1  0.5416560000000  0.4599590000000  0.4323240000000 1.0
C      1  0.5298350000000  0.5275900000000  0.4166710000000 1.0
C      1  0.5579120000000  0.5040810000000  0.5098700000000 1.0
C      1  0.4349300000000  0.4868210000000  0.5100560000000 1.0
C      1  0.5427810000000  0.4834740000000  0.5266900000000 1.0
C      1  0.5824680000000  0.5438410000000  0.4767410000000 1.0
C      1  0.4985910000000  0.5582620000000  0.5695040000000 1.0
C      1  0.5698690000000  0.4912920000000  0.4837700000000 1.0
C      1  0.4579790000000  0.5542890000000  0.5416510000000 1.0
C      1  0.4181950000000  0.4603200000000  0.4750350000000 1.0
C      1  0.4940160000000  0.5255520000000  0.4825550000000 1.0
C      1  0.5574260000000  0.4860310000000  0.4311500000000 1.0
C      1  0.5379600000000  0.5424800000000  0.4745420000000 1.0
C      1  0.5656960000000  0.5231790000000  0.5546040000000 1.0
C      1  0.5769380000000  0.5199060000000  0.5272760000000 1.0
C      1  0.5281270000000  0.5884750000000  0.4937840000000 1.0
C      1  0.4374730000000  0.4425730000000  0.4897330000000 1.0
C      1  0.4371620000000  0.4149150000000  0.5246620000000 1.0
C      1  0.4419260000000  0.5372530000000  0.5236080000000 1.0
C      1  0.5172310000000  0.4938250000000  0.5420370000000 1.0
C      1  0.4366110000000  0.5080800000000  0.5328310000000 1.0
C      1  0.5119020000000  0.5341450000000  0.4596690000000 1.0
C      1  0.4587800000000  0.4305570000000  0.4732580000000 1.0
END
