TITL C-951333-8791-251 -1.46594217777852e-06 125000 -781.43987728079 0 0 124 (C1) n - 1
REM
REM in /home/bkarasulu/work/CARBON/AIRSS/Generating-Clusters/EDIP-Nigel-Params/with-SteepDescent/Only-C1/SD-CG/HFTN-CG
REM
REM
REM
REM
REM
REM ./C.cell (11c1c37f851c82e70ff6c80c92926a4b)
REM
REM compiler GCC version 9.2.1 20190827 (Red Hat 9.2.1-1)
REM options -cpp -mtune=generic -march=x86-64 -g -O0 -fpre-include=/usr/include/finclude/math-vector-fortran.h
REM seed 1423606428 -678602469 1525572630 -2005689348 1363249263 1419821425 1055712688 818077393 1131779769 -840098664 -356871805 -904486408 -534877854 1174717142 412013423 -988195984 -1077949340 -1696342296 1280609655 792312755 -2139785554 508396575 2091846118 767956943 580419131 533990327 -1837793506 -1538214445 -1069092569 390134862 -918551345 1741332404 820544649
REM
CELL 1.54180   50.00000   50.00000   50.00000   90.00000   90.00000   90.00000
LATT -1
SFAC C  
C      1  0.5150500000000  0.4844660000000  0.5210680000000 1.0
C      1  0.5892060000000  0.4508320000000  0.5335720000000 1.0
C      1  0.5449230000000  0.4460450000000  0.5559580000000 1.0
C      1  0.4121020000000  0.5569080000000  0.4858930000000 1.0
C      1  0.4578820000000  0.5366750000000  0.5320380000000 1.0
C      1  0.5169210000000  0.4170520000000  0.5300910000000 1.0
C      1  0.5601490000000  0.4772950000000  0.4352490000000 1.0
C      1  0.5336660000000  0.4670190000000  0.5032630000000 1.0
C      1  0.5980370000000  0.4930810000000  0.4913920000000 1.0
C      1  0.5267060000000  0.5082790000000  0.5375450000000 1.0
C      1  0.5174420000000  0.4372040000000  0.5504980000000 1.0
C      1  0.5537150000000  0.4865450000000  0.4930150000000 1.0
C      1  0.4200270000000  0.4819030000000  0.4586860000000 1.0
C      1  0.4027930000000  0.4829240000000  0.5061510000000 1.0
C      1  0.5717260000000  0.5360350000000  0.5718410000000 1.0
C      1  0.4181550000000  0.5370590000000  0.5514120000000 1.0
C      1  0.4223930000000  0.5112180000000  0.5386460000000 1.0
C      1  0.5916670000000  0.4948700000000  0.5585210000000 1.0
C      1  0.5627420000000  0.5643720000000  0.4921550000000 1.0
C      1  0.5905300000000  0.5247570000000  0.5492550000000 1.0
C      1  0.5411580000000  0.5926040000000  0.4544030000000 1.0
C      1  0.5439370000000  0.5875970000000  0.5007440000000 1.0
C      1  0.4692630000000  0.5459470000000  0.4790830000000 1.0
C      1  0.5024110000000  0.5038790000000  0.5006800000000 1.0
C      1  0.4452180000000  0.4317620000000  0.4733910000000 1.0
C      1  0.4721980000000  0.5636170000000  0.4350880000000 1.0
C      1  0.5241390000000  0.5081140000000  0.4245380000000 1.0
C      1  0.4528260000000  0.5609040000000  0.4573580000000 1.0
C      1  0.4519710000000  0.4720340000000  0.5597640000000 1.0
C      1  0.4801670000000  0.5517480000000  0.5158920000000 1.0
C      1  0.4284630000000  0.5791810000000  0.4949030000000 1.0
C      1  0.4491460000000  0.4947870000000  0.4236070000000 1.0
C      1  0.4946150000000  0.4531020000000  0.5591740000000 1.0
C      1  0.4956390000000  0.5132770000000  0.4161350000000 1.0
C      1  0.4104520000000  0.5118400000000  0.5119300000000 1.0
C      1  0.4742400000000  0.5809750000000  0.5198300000000 1.0
C      1  0.5723110000000  0.4508620000000  0.4745260000000 1.0
C      1  0.4006330000000  0.5406900000000  0.5076140000000 1.0
C      1  0.4939300000000  0.4008110000000  0.4528180000000 1.0
C      1  0.4335670000000  0.5199050000000  0.4751690000000 1.0
C      1  0.4813710000000  0.5345830000000  0.5904410000000 1.0
C      1  0.4291550000000  0.4431040000000  0.5178450000000 1.0
C      1  0.5452060000000  0.4363290000000  0.5129830000000 1.0
C      1  0.4370840000000  0.5487480000000  0.5675570000000 1.0
C      1  0.5078500000000  0.3886060000000  0.4957370000000 1.0
C      1  0.5649180000000  0.4335750000000  0.5368330000000 1.0
C      1  0.4564520000000  0.4065700000000  0.4843300000000 1.0
C      1  0.4685140000000  0.4879310000000  0.5771180000000 1.0
C      1  0.4775450000000  0.4907270000000  0.4199200000000 1.0
C      1  0.5179450000000  0.4969950000000  0.5833540000000 1.0
C      1  0.4972810000000  0.5760020000000  0.4451320000000 1.0
C      1  0.5548520000000  0.5670700000000  0.5404540000000 1.0
C      1  0.4522920000000  0.4475130000000  0.4429220000000 1.0
C      1  0.5063650000000  0.5474430000000  0.5293710000000 1.0
C      1  0.4770560000000  0.5880010000000  0.4905570000000 1.0
C      1  0.5978650000000  0.4628250000000  0.4853830000000 1.0
C      1  0.5414740000000  0.4972860000000  0.5641780000000 1.0
C      1  0.5523830000000  0.4964730000000  0.4636260000000 1.0
C      1  0.5255180000000  0.5528680000000  0.5808450000000 1.0
C      1  0.5460240000000  0.4273260000000  0.4420130000000 1.0
C      1  0.4960270000000  0.4025660000000  0.5168430000000 1.0
C      1  0.5579550000000  0.5481670000000  0.5169600000000 1.0
C      1  0.4586340000000  0.5635730000000  0.5590870000000 1.0
C      1  0.5435040000000  0.5656980000000  0.4456070000000 1.0
C      1  0.5507880000000  0.4734610000000  0.5499860000000 1.0
C      1  0.5054700000000  0.5727400000000  0.5707140000000 1.0
C      1  0.4323750000000  0.5378080000000  0.4513760000000 1.0
C      1  0.4629560000000  0.4797890000000  0.4893170000000 1.0
C      1  0.4148980000000  0.4666810000000  0.5279900000000 1.0
C      1  0.4431910000000  0.5379810000000  0.4977780000000 1.0
C      1  0.4504410000000  0.5856890000000  0.4760460000000 1.0
C      1  0.5295250000000  0.5374260000000  0.5115130000000 1.0
C      1  0.5019130000000  0.5237940000000  0.5467430000000 1.0
C      1  0.5068650000000  0.5768990000000  0.5402890000000 1.0
C      1  0.5687110000000  0.5065710000000  0.5769480000000 1.0
C      1  0.4738780000000  0.5119160000000  0.5411490000000 1.0
C      1  0.5594970000000  0.4269390000000  0.4877780000000 1.0
C      1  0.4739620000000  0.4405520000000  0.4232570000000 1.0
C      1  0.5218800000000  0.4340230000000  0.4261470000000 1.0
C      1  0.4631580000000  0.5157460000000  0.5779560000000 1.0
C      1  0.4884770000000  0.4647970000000  0.4135600000000 1.0
C      1  0.4701280000000  0.4521540000000  0.4773780000000 1.0
C      1  0.5758770000000  0.4959390000000  0.5116270000000 1.0
C      1  0.5343880000000  0.5863330000000  0.5307440000000 1.0
C      1  0.4701460000000  0.4148470000000  0.5098450000000 1.0
C      1  0.5256780000000  0.5941770000000  0.4782750000000 1.0
C      1  0.4779170000000  0.4922810000000  0.5137790000000 1.0
C      1  0.5179970000000  0.4579650000000  0.4789500000000 1.0
C      1  0.4270540000000  0.4834260000000  0.5485030000000 1.0
C      1  0.5660950000000  0.4499680000000  0.4457050000000 1.0
C      1  0.4557120000000  0.4339960000000  0.5272590000000 1.0
C      1  0.5072820000000  0.5174640000000  0.4745920000000 1.0
C      1  0.4223540000000  0.4417190000000  0.4894330000000 1.0
C      1  0.4541580000000  0.4985730000000  0.4670250000000 1.0
C      1  0.5928880000000  0.5131930000000  0.4714320000000 1.0
C      1  0.5102260000000  0.5271600000000  0.5900230000000 1.0
C      1  0.5481380000000  0.5492290000000  0.5625890000000 1.0
C      1  0.4132290000000  0.5566880000000  0.5302230000000 1.0
C      1  0.4090260000000  0.4671990000000  0.4811790000000 1.0
C      1  0.4364110000000  0.4723890000000  0.4374030000000 1.0
C      1  0.4871480000000  0.5352350000000  0.4349310000000 1.0
C      1  0.5015650000000  0.5757850000000  0.4754560000000 1.0
C      1  0.4691070000000  0.3929650000000  0.4632510000000 1.0
C      1  0.4957580000000  0.4780570000000  0.5754550000000 1.0
C      1  0.5218600000000  0.5432440000000  0.4822410000000 1.0
C      1  0.5503990000000  0.5481640000000  0.4692660000000 1.0
C      1  0.4955440000000  0.4202120000000  0.4302030000000 1.0
C      1  0.4978820000000  0.4382350000000  0.4844390000000 1.0
C      1  0.5112640000000  0.4737140000000  0.4553690000000 1.0
C      1  0.4666980000000  0.4485460000000  0.5502990000000 1.0
C      1  0.5235120000000  0.5003650000000  0.4551340000000 1.0
C      1  0.5409440000000  0.4136060000000  0.4681020000000 1.0
C      1  0.5107520000000  0.4099950000000  0.4755900000000 1.0
C      1  0.4801600000000  0.5227610000000  0.4627920000000 1.0
C      1  0.4789880000000  0.5623470000000  0.5792320000000 1.0
C      1  0.5152050000000  0.4630840000000  0.4266930000000 1.0
C      1  0.5776920000000  0.4780220000000  0.5381390000000 1.0
C      1  0.5769050000000  0.5248950000000  0.5223790000000 1.0
C      1  0.4389510000000  0.5204840000000  0.4299740000000 1.0
C      1  0.5672250000000  0.5222320000000  0.4627120000000 1.0
C      1  0.5369760000000  0.4814310000000  0.4159230000000 1.0
C      1  0.6028240000000  0.4486700000000  0.5092450000000 1.0
C      1  0.5176820000000  0.5583130000000  0.4345530000000 1.0
C      1  0.4368870000000  0.5739710000000  0.5221180000000 1.0
END
