TITL C-951333-8791-275 4.08714906541781e-07 125000 -115.978013146194 0 0 20 (C1) n - 1
REM
REM in /home/bkarasulu/work/CARBON/AIRSS/Generating-Clusters/EDIP-Nigel-Params/with-SteepDescent/Only-C1/SD-CG/HFTN-CG
REM
REM
REM
REM
REM
REM ./C.cell (11c1c37f851c82e70ff6c80c92926a4b)
REM
REM compiler GCC version 9.2.1 20190827 (Red Hat 9.2.1-1)
REM options -cpp -mtune=generic -march=x86-64 -g -O0 -fpre-include=/usr/include/finclude/math-vector-fortran.h
REM seed 387481404 -537421616 1734397861 -1119612902 -1417155779 47528208 455029331 -920031707 879994010 1270025090 676501051 -311596608 114748986 -2120716581 1033426760 158325364 -1289888482 -1849770708 1852827119 -1211289737 -469830379 -626511728 2024383024 1554799578 175743843 -1801075404 815937436 2105932561 774425969 -463720104 558540642 -943191409 966022148
REM
CELL 1.54180   50.00000   50.00000   50.00000   90.00000   90.00000   90.00000
LATT -1
SFAC C  
C      1  0.5316770000000  0.5511090000000  0.4597460000000 1.0
C      1  0.5503440000000  0.5055270000000  0.5110380000000 1.0
C      1  0.4853130000000  0.5015790000000  0.5568310000000 1.0
C      1  0.4898350000000  0.4517900000000  0.5031850000000 1.0
C      1  0.4584620000000  0.4893940000000  0.4620420000000 1.0
C      1  0.4597960000000  0.5017620000000  0.5466570000000 1.0
C      1  0.4500880000000  0.4711280000000  0.4810890000000 1.0
C      1  0.4805120000000  0.5027910000000  0.4554680000000 1.0
C      1  0.5292830000000  0.4878040000000  0.5380840000000 1.0
C      1  0.4689590000000  0.4509640000000  0.4857380000000 1.0
C      1  0.5380860000000  0.5262300000000  0.4957280000000 1.0
C      1  0.5054050000000  0.5098400000000  0.4613420000000 1.0
C      1  0.5277420000000  0.5241170000000  0.4686860000000 1.0
C      1  0.4403790000000  0.4822830000000  0.5050060000000 1.0
C      1  0.4593410000000  0.4833760000000  0.5255090000000 1.0
C      1  0.5012010000000  0.4846540000000  0.5410530000000 1.0
C      1  0.5419110000000  0.4794520000000  0.5149370000000 1.0
C      1  0.5496890000000  0.5524840000000  0.4945430000000 1.0
C      1  0.5464690000000  0.5698220000000  0.4734370000000 1.0
C      1  0.4855080000000  0.4738940000000  0.5198790000000 1.0
END
