TITL C-950530-3293-148 2.15577213015683e-06 125000 -266.404392450334 0 0 45 (C1) n - 1
REM
REM in /home/bkarasulu/work/CARBON/AIRSS/Generating-Clusters/EDIP-Nigel-Params/with-SteepDescent/Only-C1/SD-CG/HFTN-CG
REM
REM
REM
REM
REM
REM ./C.cell (11c1c37f851c82e70ff6c80c92926a4b)
REM
REM compiler GCC version 9.2.1 20190827 (Red Hat 9.2.1-1)
REM options -cpp -mtune=generic -march=x86-64 -g -O0 -fpre-include=/usr/include/finclude/math-vector-fortran.h
REM seed -2112455149 1624144651 1784256926 922082241 -470280499 598427388 -2081265280 1222007492 103590998 -605098113 1844819396 -509971328 -1482637516 1862650060 -1735762655 -44448163 -1860087923 1650224848 -188315299 -1678236430 626541131 785667253 -251957022 -1535587978 -1707667233 -1919832632 -1837585559 598812600 -525115619 2064322316 -536400391 -667431853 89081515
REM
CELL 1.54180   50.00000   50.00000   50.00000   90.00000   90.00000   90.00000
LATT -1
SFAC C  
C      1  0.4925490000000  0.4839220000000  0.5546870000000 1.0
C      1  0.5703790000000  0.4797090000000  0.5057520000000 1.0
C      1  0.4418130000000  0.5139780000000  0.4941640000000 1.0
C      1  0.4531820000000  0.4683940000000  0.4817040000000 1.0
C      1  0.5080330000000  0.5034400000000  0.5393650000000 1.0
C      1  0.5140200000000  0.5524150000000  0.5393080000000 1.0
C      1  0.4482530000000  0.5359610000000  0.5496040000000 1.0
C      1  0.5537510000000  0.4614780000000  0.5213940000000 1.0
C      1  0.5205530000000  0.4207720000000  0.5270860000000 1.0
C      1  0.4733310000000  0.4572580000000  0.4642790000000 1.0
C      1  0.5374740000000  0.4644210000000  0.4768420000000 1.0
C      1  0.4933940000000  0.4867310000000  0.4793730000000 1.0
C      1  0.4984100000000  0.4556660000000  0.5013210000000 1.0
C      1  0.4598730000000  0.5026780000000  0.4488480000000 1.0
C      1  0.5161050000000  0.5616090000000  0.4930320000000 1.0
C      1  0.4927550000000  0.4951370000000  0.4303680000000 1.0
C      1  0.5503160000000  0.4478550000000  0.4963530000000 1.0
C      1  0.4960510000000  0.4429430000000  0.4743680000000 1.0
C      1  0.4694910000000  0.4521310000000  0.5268030000000 1.0
C      1  0.4589800000000  0.4729160000000  0.5098570000000 1.0
C      1  0.5071950000000  0.4732770000000  0.4406190000000 1.0
C      1  0.5238440000000  0.4895690000000  0.4869680000000 1.0
C      1  0.4516860000000  0.5088110000000  0.5450860000000 1.0
C      1  0.4668950000000  0.4929450000000  0.5626230000000 1.0
C      1  0.5198670000000  0.5305700000000  0.4566560000000 1.0
C      1  0.4875400000000  0.5609300000000  0.5301460000000 1.0
C      1  0.5634040000000  0.5190270000000  0.4765460000000 1.0
C      1  0.4664340000000  0.5297870000000  0.4881920000000 1.0
C      1  0.5182810000000  0.4528820000000  0.4574520000000 1.0
C      1  0.5371090000000  0.5110590000000  0.4698000000000 1.0
C      1  0.5319370000000  0.5527450000000  0.5160730000000 1.0
C      1  0.4810840000000  0.5129880000000  0.4679070000000 1.0
C      1  0.5466640000000  0.5184510000000  0.5197850000000 1.0
C      1  0.4458780000000  0.4972040000000  0.5188400000000 1.0
C      1  0.5136950000000  0.5276760000000  0.5525400000000 1.0
C      1  0.5674170000000  0.5087130000000  0.5024110000000 1.0
C      1  0.4663650000000  0.5580050000000  0.4859160000000 1.0
C      1  0.5275460000000  0.4968020000000  0.5183420000000 1.0
C      1  0.4928980000000  0.4559500000000  0.5445270000000 1.0
C      1  0.4884910000000  0.5657560000000  0.5015510000000 1.0
C      1  0.4414600000000  0.4935180000000  0.4705960000000 1.0
C      1  0.4641040000000  0.5570080000000  0.5448610000000 1.0
C      1  0.5176740000000  0.4477460000000  0.5258790000000 1.0
C      1  0.5225000000000  0.5569560000000  0.4659750000000 1.0
C      1  0.5013210000000  0.5222120000000  0.4361980000000 1.0
END
