TITL C-951335-1172-285 -2.2801525709231e-06 125000 -750.965381518772 0 0 121 (C1) n - 1
REM
REM in /home/bkarasulu/work/CARBON/AIRSS/Generating-Clusters/EDIP-Nigel-Params/with-SteepDescent/Only-C1/SD-CG/HFTN-CG
REM
REM
REM
REM
REM
REM ./C.cell (11c1c37f851c82e70ff6c80c92926a4b)
REM
REM compiler GCC version 9.2.1 20190827 (Red Hat 9.2.1-1)
REM options -cpp -mtune=generic -march=x86-64 -g -O0 -fpre-include=/usr/include/finclude/math-vector-fortran.h
REM seed 67033160 -1545220315 -1878313165 1749003472 1857024286 -321881356 655654736 1669844424 -840436741 439344427 -319199818 -2025473492 1532323025 1765472205 -427193911 -274743152 -1692766615 170540504 -263509867 416807934 751701974 -1025894463 -1176141802 -404711888 -883545149 -1412961958 1721148689 -545003411 -1447368612 -435127061 -1021216744 291750075 1706795925
REM
CELL 1.54180   50.00000   50.00000   50.00000   90.00000   90.00000   90.00000
LATT -1
SFAC C  
C      1  0.5388790000000  0.5394290000000  0.5528590000000 1.0
C      1  0.4543150000000  0.4590850000000  0.4241660000000 1.0
C      1  0.5105760000000  0.5585660000000  0.4315540000000 1.0
C      1  0.4272520000000  0.5395880000000  0.5037220000000 1.0
C      1  0.4974820000000  0.4602960000000  0.4685820000000 1.0
C      1  0.4648000000000  0.5543730000000  0.5854370000000 1.0
C      1  0.5296520000000  0.4648310000000  0.4198150000000 1.0
C      1  0.4981230000000  0.5257270000000  0.6010980000000 1.0
C      1  0.4146660000000  0.5075870000000  0.4656500000000 1.0
C      1  0.5520950000000  0.5167180000000  0.4445160000000 1.0
C      1  0.4660290000000  0.4401840000000  0.4670450000000 1.0
C      1  0.5244960000000  0.5505910000000  0.4941100000000 1.0
C      1  0.4632800000000  0.5126090000000  0.4110610000000 1.0
C      1  0.4423580000000  0.5436850000000  0.4464060000000 1.0
C      1  0.4788210000000  0.4978620000000  0.4959800000000 1.0
C      1  0.4226230000000  0.4851700000000  0.4503450000000 1.0
C      1  0.4392200000000  0.5645360000000  0.4945070000000 1.0
C      1  0.4552470000000  0.5222420000000  0.4649180000000 1.0
C      1  0.5115080000000  0.4211410000000  0.4527460000000 1.0
C      1  0.4094090000000  0.5205800000000  0.4903330000000 1.0
C      1  0.5772970000000  0.4429230000000  0.4951340000000 1.0
C      1  0.4344510000000  0.4882750000000  0.5114520000000 1.0
C      1  0.5362140000000  0.4157140000000  0.5157320000000 1.0
C      1  0.4709240000000  0.5026250000000  0.4482170000000 1.0
C      1  0.5249600000000  0.5222450000000  0.5943820000000 1.0
C      1  0.5404810000000  0.4244000000000  0.4455050000000 1.0
C      1  0.4217670000000  0.5382670000000  0.5318630000000 1.0
C      1  0.5272150000000  0.4991610000000  0.5746560000000 1.0
C      1  0.4776750000000  0.5535530000000  0.4710930000000 1.0
C      1  0.4862110000000  0.4714760000000  0.3992070000000 1.0
C      1  0.5213100000000  0.5368600000000  0.4686450000000 1.0
C      1  0.5080070000000  0.5953190000000  0.4644580000000 1.0
C      1  0.4288080000000  0.4595240000000  0.5154670000000 1.0
C      1  0.4756000000000  0.5966370000000  0.5053980000000 1.0
C      1  0.4112360000000  0.5130560000000  0.5405530000000 1.0
C      1  0.5576340000000  0.5653820000000  0.5083360000000 1.0
C      1  0.5606430000000  0.4514370000000  0.5587090000000 1.0
C      1  0.5507630000000  0.5724080000000  0.4592460000000 1.0
C      1  0.4844450000000  0.5946200000000  0.4791120000000 1.0
C      1  0.4652190000000  0.5296960000000  0.5312340000000 1.0
C      1  0.4652910000000  0.4371130000000  0.4376550000000 1.0
C      1  0.4942060000000  0.6038370000000  0.5246450000000 1.0
C      1  0.5040020000000  0.5684280000000  0.5579650000000 1.0
C      1  0.5318130000000  0.5855590000000  0.4786240000000 1.0
C      1  0.5788680000000  0.5564190000000  0.5283310000000 1.0
C      1  0.4129700000000  0.4570180000000  0.5383690000000 1.0
C      1  0.4791140000000  0.4834220000000  0.5296360000000 1.0
C      1  0.5734620000000  0.4642900000000  0.4498100000000 1.0
C      1  0.4900560000000  0.5324940000000  0.5531430000000 1.0
C      1  0.5352910000000  0.4906990000000  0.4080990000000 1.0
C      1  0.5004720000000  0.4062390000000  0.4772530000000 1.0
C      1  0.4870400000000  0.4997250000000  0.3982320000000 1.0
C      1  0.5569420000000  0.4752600000000  0.5447050000000 1.0
C      1  0.5402390000000  0.4369260000000  0.5707630000000 1.0
C      1  0.5779470000000  0.4849880000000  0.4721550000000 1.0
C      1  0.5064870000000  0.5855840000000  0.4383870000000 1.0
C      1  0.4634750000000  0.5394470000000  0.4247180000000 1.0
C      1  0.4696470000000  0.4444400000000  0.5108510000000 1.0
C      1  0.4379800000000  0.4959780000000  0.5590500000000 1.0
C      1  0.5595620000000  0.5005080000000  0.4204410000000 1.0
C      1  0.4693070000000  0.4502740000000  0.5819910000000 1.0
C      1  0.5150930000000  0.5107520000000  0.5184400000000 1.0
C      1  0.5378740000000  0.4727860000000  0.4953830000000 1.0
C      1  0.4793660000000  0.4784190000000  0.5831240000000 1.0
C      1  0.4495890000000  0.4895630000000  0.4852970000000 1.0
C      1  0.5885280000000  0.5330740000000  0.5078800000000 1.0
C      1  0.4542450000000  0.4998600000000  0.5332530000000 1.0
C      1  0.4962740000000  0.4512810000000  0.4975900000000 1.0
C      1  0.5135720000000  0.5080280000000  0.4020240000000 1.0
C      1  0.5716490000000  0.5133520000000  0.5232190000000 1.0
C      1  0.5741950000000  0.5644260000000  0.4736280000000 1.0
C      1  0.5353160000000  0.5470410000000  0.5808950000000 1.0
C      1  0.4713030000000  0.4123110000000  0.4803990000000 1.0
C      1  0.4781060000000  0.5304920000000  0.5009520000000 1.0
C      1  0.5138690000000  0.5871490000000  0.5351500000000 1.0
C      1  0.4893780000000  0.4063830000000  0.5269220000000 1.0
C      1  0.5314830000000  0.5011670000000  0.4960920000000 1.0
C      1  0.5748420000000  0.4848230000000  0.5244340000000 1.0
C      1  0.5666350000000  0.5333500000000  0.5459870000000 1.0
C      1  0.4937750000000  0.4347570000000  0.4329170000000 1.0
C      1  0.4929790000000  0.4915300000000  0.4685370000000 1.0
C      1  0.5780360000000  0.5368720000000  0.4813880000000 1.0
C      1  0.4069230000000  0.5011510000000  0.5128820000000 1.0
C      1  0.4751370000000  0.4539760000000  0.5378010000000 1.0
C      1  0.5225310000000  0.5073560000000  0.4684970000000 1.0
C      1  0.5276670000000  0.4636100000000  0.4683750000000 1.0
C      1  0.5436310000000  0.4548070000000  0.4448760000000 1.0
C      1  0.4775210000000  0.5282940000000  0.5810290000000 1.0
C      1  0.4386070000000  0.5502740000000  0.5500360000000 1.0
C      1  0.5786500000000  0.4795680000000  0.4251930000000 1.0
C      1  0.5115410000000  0.4008420000000  0.5065930000000 1.0
C      1  0.4192750000000  0.4595980000000  0.4615220000000 1.0
C      1  0.5361000000000  0.5489900000000  0.4458580000000 1.0
C      1  0.5193510000000  0.5701450000000  0.5826570000000 1.0
C      1  0.4655340000000  0.4147520000000  0.5100350000000 1.0
C      1  0.4295010000000  0.4664700000000  0.5591650000000 1.0
C      1  0.4745290000000  0.5720460000000  0.5647990000000 1.0
C      1  0.4932820000000  0.4322220000000  0.5764010000000 1.0
C      1  0.5033320000000  0.4551080000000  0.4146900000000 1.0
C      1  0.4476450000000  0.4853780000000  0.4338550000000 1.0
C      1  0.4495020000000  0.5659240000000  0.4664560000000 1.0
C      1  0.4868100000000  0.5433950000000  0.4422250000000 1.0
C      1  0.5268960000000  0.4382300000000  0.5349180000000 1.0
C      1  0.5182950000000  0.5171760000000  0.5488820000000 1.0
C      1  0.5544240000000  0.4882650000000  0.5697800000000 1.0
C      1  0.5168110000000  0.4485760000000  0.5828690000000 1.0
C      1  0.5691480000000  0.4714740000000  0.4978830000000 1.0
C      1  0.5368300000000  0.5853100000000  0.5166180000000 1.0
C      1  0.5186220000000  0.4602710000000  0.5155290000000 1.0
C      1  0.4608640000000  0.5019770000000  0.5799460000000 1.0
C      1  0.5048050000000  0.5374540000000  0.5117310000000 1.0
C      1  0.4581060000000  0.5760870000000  0.5138320000000 1.0
C      1  0.5841200000000  0.4373150000000  0.4645150000000 1.0
C      1  0.4420780000000  0.4582230000000  0.4793360000000 1.0
C      1  0.5527420000000  0.4257240000000  0.4933030000000 1.0
C      1  0.5734550000000  0.5134350000000  0.4644440000000 1.0
C      1  0.4974240000000  0.4311650000000  0.5446970000000 1.0
C      1  0.5603770000000  0.4152250000000  0.4655380000000 1.0
C      1  0.4520210000000  0.4478460000000  0.5583100000000 1.0
C      1  0.5084760000000  0.4767790000000  0.5808770000000 1.0
C      1  0.4554700000000  0.5711200000000  0.5424660000000 1.0
END
