TITL C-951337-3020-372 -1.80646032230939e-06 125000 -1018.2160844515 0 0 162 (C1) n - 1
REM
REM in /home/bkarasulu/work/CARBON/AIRSS/Generating-Clusters/EDIP-Nigel-Params/with-SteepDescent/Only-C1/SD-CG/HFTN-CG
REM
REM
REM
REM
REM
REM ./C.cell (11c1c37f851c82e70ff6c80c92926a4b)
REM
REM compiler GCC version 9.2.1 20190827 (Red Hat 9.2.1-1)
REM options -cpp -mtune=generic -march=x86-64 -g -O0 -fpre-include=/usr/include/finclude/math-vector-fortran.h
REM seed -701548186 -435223291 -1286833963 -2018511222 -251733323 1259656337 493538130 1410980446 2004777700 121615525 1054748629 1264107895 -80109912 1957238320 577604770 670754515 -269130540 -131115928 1235866162 -2017403277 -1822412259 -830536751 1027601009 -1079469025 1212846765 -1710225037 -1880870170 -1670098543 -1467300635 612051724 -1057955999 -1741615549 -1317932497
REM
CELL 1.54180   50.00000   50.00000   50.00000   90.00000   90.00000   90.00000
LATT -1
SFAC C  
C      1  0.5850130000000  0.5357120000000  0.4559330000000 1.0
C      1  0.4877830000000  0.5695380000000  0.4221560000000 1.0
C      1  0.4054770000000  0.4870630000000  0.5440530000000 1.0
C      1  0.5161570000000  0.5398470000000  0.5339520000000 1.0
C      1  0.5092880000000  0.5999520000000  0.5440450000000 1.0
C      1  0.5552200000000  0.4114970000000  0.5304300000000 1.0
C      1  0.5459230000000  0.5178220000000  0.4192900000000 1.0
C      1  0.4929150000000  0.5210520000000  0.4577370000000 1.0
C      1  0.5506180000000  0.4717380000000  0.4242030000000 1.0
C      1  0.4607440000000  0.5124940000000  0.4148280000000 1.0
C      1  0.5564050000000  0.5626550000000  0.5539860000000 1.0
C      1  0.5790260000000  0.4799120000000  0.4202610000000 1.0
C      1  0.4883680000000  0.4961370000000  0.5199150000000 1.0
C      1  0.5894150000000  0.4916660000000  0.5081290000000 1.0
C      1  0.4641250000000  0.4543620000000  0.5273140000000 1.0
C      1  0.4940500000000  0.5594970000000  0.5359140000000 1.0
C      1  0.4628270000000  0.4063570000000  0.4489400000000 1.0
C      1  0.6134960000000  0.5196740000000  0.5388890000000 1.0
C      1  0.5409930000000  0.4399240000000  0.4924440000000 1.0
C      1  0.5318690000000  0.4229700000000  0.5458780000000 1.0
C      1  0.5353170000000  0.4922770000000  0.4095780000000 1.0
C      1  0.5058900000000  0.4889320000000  0.6070420000000 1.0
C      1  0.4794880000000  0.5607250000000  0.5006030000000 1.0
C      1  0.6059100000000  0.4930820000000  0.5337850000000 1.0
C      1  0.4989800000000  0.4162740000000  0.5655170000000 1.0
C      1  0.5582420000000  0.5598440000000  0.5032310000000 1.0
C      1  0.5803260000000  0.4639830000000  0.4999340000000 1.0
C      1  0.5801300000000  0.5371980000000  0.5077000000000 1.0
C      1  0.3990870000000  0.5278250000000  0.4676380000000 1.0
C      1  0.5444210000000  0.4685480000000  0.5252940000000 1.0
C      1  0.5150160000000  0.4931060000000  0.5587350000000 1.0
C      1  0.5221590000000  0.4215340000000  0.4525970000000 1.0
C      1  0.5453930000000  0.4127700000000  0.5022780000000 1.0
C      1  0.4005040000000  0.4622150000000  0.4419590000000 1.0
C      1  0.5440210000000  0.4872940000000  0.5595140000000 1.0
C      1  0.5644320000000  0.4797200000000  0.6012260000000 1.0
C      1  0.5014870000000  0.4591260000000  0.3943500000000 1.0
C      1  0.4579880000000  0.5999240000000  0.4772900000000 1.0
C      1  0.5187820000000  0.4003790000000  0.5001340000000 1.0
C      1  0.4526330000000  0.5464570000000  0.5046320000000 1.0
C      1  0.4523670000000  0.5187550000000  0.4924270000000 1.0
C      1  0.5090000000000  0.5981210000000  0.4682550000000 1.0
C      1  0.5306080000000  0.4440810000000  0.5899400000000 1.0
C      1  0.3983810000000  0.4561520000000  0.4935510000000 1.0
C      1  0.5796750000000  0.4283380000000  0.5363120000000 1.0
C      1  0.4663010000000  0.5165940000000  0.4446610000000 1.0
C      1  0.5050300000000  0.4977020000000  0.4739010000000 1.0
C      1  0.5980120000000  0.5316140000000  0.4823400000000 1.0
C      1  0.5377460000000  0.5185350000000  0.5941930000000 1.0
C      1  0.4801140000000  0.6010510000000  0.4577830000000 1.0
C      1  0.5709010000000  0.5950780000000  0.4704390000000 1.0
C      1  0.5392520000000  0.5607550000000  0.5295210000000 1.0
C      1  0.4740900000000  0.4524010000000  0.3958130000000 1.0
C      1  0.4408320000000  0.4952360000000  0.5103540000000 1.0
C      1  0.5516930000000  0.4272950000000  0.4392740000000 1.0
C      1  0.5008860000000  0.5833030000000  0.5653990000000 1.0
C      1  0.5196050000000  0.4505750000000  0.5331830000000 1.0
C      1  0.4814330000000  0.5267270000000  0.5850970000000 1.0
C      1  0.4706350000000  0.4629270000000  0.4539230000000 1.0
C      1  0.5432660000000  0.5535650000000  0.4769910000000 1.0
C      1  0.5380150000000  0.5449450000000  0.6075390000000 1.0
C      1  0.5192670000000  0.5784420000000  0.5866080000000 1.0
C      1  0.5448580000000  0.4754670000000  0.4568480000000 1.0
C      1  0.5712820000000  0.4586020000000  0.5423880000000 1.0
C      1  0.4155980000000  0.5172050000000  0.4231740000000 1.0
C      1  0.4072920000000  0.4571740000000  0.5446110000000 1.0
C      1  0.4623080000000  0.5307930000000  0.5624520000000 1.0
C      1  0.4630720000000  0.4848000000000  0.5304600000000 1.0
C      1  0.4679490000000  0.4077760000000  0.4959270000000 1.0
C      1  0.4201510000000  0.5421970000000  0.5416180000000 1.0
C      1  0.4778200000000  0.4139080000000  0.5450170000000 1.0
C      1  0.4651080000000  0.5515710000000  0.5408060000000 1.0
C      1  0.4685740000000  0.5818510000000  0.4390700000000 1.0
C      1  0.5257380000000  0.5402810000000  0.4150180000000 1.0
C      1  0.6032040000000  0.5026190000000  0.4836410000000 1.0
C      1  0.4681520000000  0.5165090000000  0.6081020000000 1.0
C      1  0.4795010000000  0.5509190000000  0.4021320000000 1.0
C      1  0.5282430000000  0.5095530000000  0.4877250000000 1.0
C      1  0.5458160000000  0.4433670000000  0.4149310000000 1.0
C      1  0.5954220000000  0.5405260000000  0.5337360000000 1.0
C      1  0.5046240000000  0.4650780000000  0.5540680000000 1.0
C      1  0.4898650000000  0.6176540000000  0.5324830000000 1.0
C      1  0.4334350000000  0.4962700000000  0.4157800000000 1.0
C      1  0.4343910000000  0.4283460000000  0.4610250000000 1.0
C      1  0.3989630000000  0.4969710000000  0.4695810000000 1.0
C      1  0.4283620000000  0.4890250000000  0.4640680000000 1.0
C      1  0.4539060000000  0.5388500000000  0.4033880000000 1.0
C      1  0.4587090000000  0.4371670000000  0.4138050000000 1.0
C      1  0.5010750000000  0.4460870000000  0.5760900000000 1.0
C      1  0.4062880000000  0.5290450000000  0.5187550000000 1.0
C      1  0.5505540000000  0.4642180000000  0.5801620000000 1.0
C      1  0.5150100000000  0.4697060000000  0.4640660000000 1.0
C      1  0.4460930000000  0.4255340000000  0.4891740000000 1.0
C      1  0.5075590000000  0.4852610000000  0.4055680000000 1.0
C      1  0.5330420000000  0.6005460000000  0.4991100000000 1.0
C      1  0.5214360000000  0.5387630000000  0.4900080000000 1.0
C      1  0.4415570000000  0.5784740000000  0.4667720000000 1.0
C      1  0.4285750000000  0.4736070000000  0.4368310000000 1.0
C      1  0.3940840000000  0.4856210000000  0.4962100000000 1.0
C      1  0.4967970000000  0.4596180000000  0.4435350000000 1.0
C      1  0.4959110000000  0.6112530000000  0.5034470000000 1.0
C      1  0.5262400000000  0.5872220000000  0.5244580000000 1.0
C      1  0.4955610000000  0.5451960000000  0.4783080000000 1.0
C      1  0.5429720000000  0.4962910000000  0.6132500000000 1.0
C      1  0.5176410000000  0.4370750000000  0.4064240000000 1.0
C      1  0.4796110000000  0.3985400000000  0.4712810000000 1.0
C      1  0.4579140000000  0.5981940000000  0.5271060000000 1.0
C      1  0.5767110000000  0.5430670000000  0.5554000000000 1.0
C      1  0.4763190000000  0.4171960000000  0.4262220000000 1.0
C      1  0.5870000000000  0.4922890000000  0.4607160000000 1.0
C      1  0.4213200000000  0.5703670000000  0.5445140000000 1.0
C      1  0.3827920000000  0.4830900000000  0.4493690000000 1.0
C      1  0.5549140000000  0.5811590000000  0.4527410000000 1.0
C      1  0.4423890000000  0.5166400000000  0.4625120000000 1.0
C      1  0.5917620000000  0.4415780000000  0.5135780000000 1.0
C      1  0.4066360000000  0.4444590000000  0.4655460000000 1.0
C      1  0.4890080000000  0.4151430000000  0.5161100000000 1.0
C      1  0.5364070000000  0.4193200000000  0.5754860000000 1.0
C      1  0.4332310000000  0.5253170000000  0.5626820000000 1.0
C      1  0.4826480000000  0.4940940000000  0.4913980000000 1.0
C      1  0.5461930000000  0.5698300000000  0.5797770000000 1.0
C      1  0.4348470000000  0.4747570000000  0.5800390000000 1.0
C      1  0.5742590000000  0.4413060000000  0.4553820000000 1.0
C      1  0.4198320000000  0.5317140000000  0.4472070000000 1.0
C      1  0.5663130000000  0.5104740000000  0.5141170000000 1.0
C      1  0.4629860000000  0.4743090000000  0.5870520000000 1.0
C      1  0.5141190000000  0.5608850000000  0.6086290000000 1.0
C      1  0.4725640000000  0.5915610000000  0.5011820000000 1.0
C      1  0.5590880000000  0.5132360000000  0.5708030000000 1.0
C      1  0.5820560000000  0.4955490000000  0.5809820000000 1.0
C      1  0.4764100000000  0.4894460000000  0.6082260000000 1.0
C      1  0.5563950000000  0.5330280000000  0.4595290000000 1.0
C      1  0.4885620000000  0.5060660000000  0.3994770000000 1.0
C      1  0.4404210000000  0.4731690000000  0.4895260000000 1.0
C      1  0.5086940000000  0.5091900000000  0.5847610000000 1.0
C      1  0.5091360000000  0.4018010000000  0.4723540000000 1.0
C      1  0.5135480000000  0.5089110000000  0.5327000000000 1.0
C      1  0.5607620000000  0.5895370000000  0.4956960000000 1.0
C      1  0.5154070000000  0.5651250000000  0.4291730000000 1.0
C      1  0.4678740000000  0.4714030000000  0.4810270000000 1.0
C      1  0.4315580000000  0.5619360000000  0.4896230000000 1.0
C      1  0.5910360000000  0.4656300000000  0.4440940000000 1.0
C      1  0.4276650000000  0.4498520000000  0.5652220000000 1.0
C      1  0.4121040000000  0.4442740000000  0.5176670000000 1.0
C      1  0.5610260000000  0.4558560000000  0.4777430000000 1.0
C      1  0.4402180000000  0.4473840000000  0.5074810000000 1.0
C      1  0.5138380000000  0.4444410000000  0.4831980000000 1.0
C      1  0.4486590000000  0.5762630000000  0.5443050000000 1.0
C      1  0.5024260000000  0.4325040000000  0.4319640000000 1.0
C      1  0.5017330000000  0.5323750000000  0.3987380000000 1.0
C      1  0.5266830000000  0.5827680000000  0.4494470000000 1.0
C      1  0.4485320000000  0.4498660000000  0.4402260000000 1.0
C      1  0.5760270000000  0.5105840000000  0.4275950000000 1.0
C      1  0.4248190000000  0.4968210000000  0.5633200000000 1.0
C      1  0.5506310000000  0.5048960000000  0.4682290000000 1.0
C      1  0.4721530000000  0.4485850000000  0.5796040000000 1.0
C      1  0.4593080000000  0.4376840000000  0.5537760000000 1.0
C      1  0.5379850000000  0.4988140000000  0.5153630000000 1.0
C      1  0.4068410000000  0.5436310000000  0.4921970000000 1.0
C      1  0.5916250000000  0.4788280000000  0.5559870000000 1.0
C      1  0.4102190000000  0.4992840000000  0.5175790000000 1.0
C      1  0.4970150000000  0.4447040000000  0.5114790000000 1.0
END
