TITL C-951341-1326-695 -1.44676793265692e-07 125000 -925.082667372622 0 0 149 (C1) n - 1
REM
REM in /home/bkarasulu/work/CARBON/AIRSS/Generating-Clusters/EDIP-Nigel-Params/with-SteepDescent/Only-C1/SD-CG/HFTN-CG
REM
REM
REM
REM
REM
REM ./C.cell (11c1c37f851c82e70ff6c80c92926a4b)
REM
REM compiler GCC version 9.2.1 20190827 (Red Hat 9.2.1-1)
REM options -cpp -mtune=generic -march=x86-64 -g -O0 -fpre-include=/usr/include/finclude/math-vector-fortran.h
REM seed 351993926 1470482681 -1278690847 560659738 1274679761 -1171877124 1261538439 -1169179434 1069845325 2105585583 -1051958694 2030455814 -1011161378 -152956492 1713365414 1128196903 -2094218661 2011366280 -398741034 366973984 1185472191 1231981022 -405925667 -276255473 -544502193 1520753558 -518315125 76396753 -1915844070 1160845089 -257198948 1657939385 1572162002
REM
CELL 1.54180   50.00000   50.00000   50.00000   90.00000   90.00000   90.00000
LATT -1
SFAC C  
C      1  0.4571920000000  0.5590490000000  0.4214740000000 1.0
C      1  0.4302550000000  0.4443960000000  0.4493290000000 1.0
C      1  0.4999330000000  0.5318830000000  0.5250030000000 1.0
C      1  0.5495480000000  0.4987590000000  0.5820380000000 1.0
C      1  0.5654330000000  0.4869630000000  0.5616180000000 1.0
C      1  0.5534460000000  0.4427140000000  0.4291150000000 1.0
C      1  0.5334370000000  0.5682270000000  0.4067970000000 1.0
C      1  0.5805270000000  0.4786030000000  0.4638300000000 1.0
C      1  0.5395420000000  0.5686010000000  0.5172890000000 1.0
C      1  0.4350800000000  0.5304360000000  0.5832070000000 1.0
C      1  0.4774020000000  0.4944900000000  0.3917100000000 1.0
C      1  0.5406470000000  0.5333500000000  0.6120360000000 1.0
C      1  0.4617670000000  0.4308330000000  0.5384980000000 1.0
C      1  0.4415900000000  0.5050330000000  0.5288590000000 1.0
C      1  0.4006770000000  0.5268580000000  0.4981880000000 1.0
C      1  0.5335400000000  0.4098020000000  0.4511720000000 1.0
C      1  0.4031260000000  0.4513490000000  0.4920710000000 1.0
C      1  0.4824230000000  0.5472260000000  0.5687350000000 1.0
C      1  0.4838980000000  0.4969200000000  0.5599480000000 1.0
C      1  0.4350120000000  0.4737030000000  0.4526580000000 1.0
C      1  0.5350040000000  0.5405930000000  0.4035220000000 1.0
C      1  0.6206580000000  0.5291140000000  0.5323410000000 1.0
C      1  0.5928820000000  0.4952270000000  0.5549310000000 1.0
C      1  0.5139940000000  0.4373620000000  0.5862820000000 1.0
C      1  0.5480450000000  0.5651730000000  0.4649160000000 1.0
C      1  0.5127340000000  0.5303730000000  0.6079950000000 1.0
C      1  0.5284660000000  0.4586740000000  0.5994830000000 1.0
C      1  0.5091730000000  0.4797660000000  0.5610440000000 1.0
C      1  0.4631600000000  0.4850610000000  0.5359500000000 1.0
C      1  0.5812110000000  0.5508070000000  0.4892520000000 1.0
C      1  0.5488300000000  0.4392280000000  0.5455410000000 1.0
C      1  0.5688330000000  0.4569270000000  0.5593490000000 1.0
C      1  0.4757440000000  0.4317440000000  0.4770420000000 1.0
C      1  0.4844310000000  0.5708330000000  0.5486790000000 1.0
C      1  0.5036910000000  0.4702610000000  0.4483130000000 1.0
C      1  0.4141390000000  0.5153890000000  0.4532070000000 1.0
C      1  0.4473990000000  0.5339880000000  0.5276620000000 1.0
C      1  0.5862170000000  0.5006840000000  0.4818860000000 1.0
C      1  0.4675870000000  0.3879370000000  0.4681350000000 1.0
C      1  0.5150430000000  0.6112840000000  0.5168610000000 1.0
C      1  0.5477340000000  0.5185250000000  0.5197710000000 1.0
C      1  0.4809160000000  0.5952910000000  0.4507490000000 1.0
C      1  0.5936380000000  0.4594210000000  0.5429370000000 1.0
C      1  0.4530710000000  0.4339250000000  0.4324100000000 1.0
C      1  0.5058240000000  0.3953630000000  0.4910180000000 1.0
C      1  0.4209940000000  0.4335680000000  0.4758970000000 1.0
C      1  0.3974650000000  0.5007340000000  0.5079630000000 1.0
C      1  0.5130440000000  0.4471720000000  0.4946850000000 1.0
C      1  0.4139920000000  0.4650140000000  0.5394870000000 1.0
C      1  0.5237500000000  0.5678920000000  0.5767490000000 1.0
C      1  0.4853680000000  0.6102300000000  0.4741740000000 1.0
C      1  0.4848970000000  0.5234400000000  0.3940640000000 1.0
C      1  0.4517800000000  0.4902810000000  0.4323380000000 1.0
C      1  0.4504960000000  0.5864100000000  0.4950240000000 1.0
C      1  0.4962100000000  0.4528330000000  0.5654280000000 1.0
C      1  0.6096090000000  0.5531050000000  0.5374070000000 1.0
C      1  0.4416530000000  0.5498020000000  0.4694560000000 1.0
C      1  0.5549390000000  0.4711880000000  0.4224070000000 1.0
C      1  0.4603270000000  0.4759620000000  0.5954910000000 1.0
C      1  0.5128760000000  0.3923270000000  0.4608640000000 1.0
C      1  0.4537310000000  0.4799410000000  0.4044740000000 1.0
C      1  0.4923290000000  0.4368920000000  0.5398280000000 1.0
C      1  0.5031100000000  0.5018090000000  0.6039020000000 1.0
C      1  0.5282370000000  0.5926920000000  0.5332310000000 1.0
C      1  0.4500240000000  0.4369620000000  0.5657010000000 1.0
C      1  0.4905820000000  0.4496700000000  0.4044040000000 1.0
C      1  0.5220270000000  0.4013650000000  0.5185230000000 1.0
C      1  0.4510820000000  0.5721390000000  0.5499170000000 1.0
C      1  0.5275450000000  0.5970050000000  0.4733580000000 1.0
C      1  0.4522320000000  0.5511700000000  0.5758070000000 1.0
C      1  0.4127750000000  0.4951540000000  0.5335570000000 1.0
C      1  0.5102770000000  0.5843160000000  0.5557360000000 1.0
C      1  0.4857920000000  0.4813260000000  0.5153680000000 1.0
C      1  0.4386300000000  0.5793510000000  0.4693740000000 1.0
C      1  0.5318300000000  0.5415290000000  0.5332140000000 1.0
C      1  0.4989910000000  0.4748930000000  0.3920400000000 1.0
C      1  0.5016210000000  0.4439690000000  0.4323280000000 1.0
C      1  0.4367470000000  0.5169660000000  0.4339800000000 1.0
C      1  0.4534630000000  0.5876040000000  0.4450570000000 1.0
C      1  0.5447690000000  0.5119140000000  0.4704050000000 1.0
C      1  0.5512690000000  0.5276100000000  0.5864180000000 1.0
C      1  0.5472820000000  0.4877240000000  0.5156100000000 1.0
C      1  0.5960950000000  0.4930000000000  0.5079990000000 1.0
C      1  0.4792190000000  0.4267080000000  0.4468270000000 1.0
C      1  0.5477340000000  0.5317440000000  0.4930170000000 1.0
C      1  0.4969050000000  0.4935530000000  0.4905210000000 1.0
C      1  0.5236630000000  0.4848860000000  0.5879340000000 1.0
C      1  0.6002550000000  0.5101390000000  0.5311330000000 1.0
C      1  0.4812850000000  0.4903340000000  0.4449710000000 1.0
C      1  0.5094720000000  0.4119270000000  0.5434190000000 1.0
C      1  0.5786330000000  0.4714390000000  0.5186440000000 1.0
C      1  0.4282930000000  0.4576470000000  0.5643250000000 1.0
C      1  0.5848990000000  0.5656630000000  0.5375810000000 1.0
C      1  0.5686090000000  0.5639490000000  0.5599610000000 1.0
C      1  0.4742750000000  0.4995920000000  0.4715650000000 1.0
C      1  0.4969170000000  0.6167300000000  0.4977150000000 1.0
C      1  0.4768460000000  0.4995000000000  0.5896160000000 1.0
C      1  0.4768710000000  0.4048400000000  0.4898850000000 1.0
C      1  0.5444300000000  0.5490580000000  0.5646920000000 1.0
C      1  0.5039660000000  0.4583960000000  0.5203390000000 1.0
C      1  0.4525480000000  0.4788600000000  0.4771500000000 1.0
C      1  0.5276540000000  0.4282660000000  0.4298380000000 1.0
C      1  0.4608950000000  0.4502960000000  0.4073760000000 1.0
C      1  0.4367060000000  0.5815130000000  0.5200880000000 1.0
C      1  0.4693280000000  0.5532560000000  0.4881910000000 1.0
C      1  0.4218320000000  0.5067690000000  0.5772380000000 1.0
C      1  0.4035810000000  0.4804210000000  0.4874770000000 1.0
C      1  0.5289700000000  0.5713820000000  0.4893290000000 1.0
C      1  0.5105150000000  0.5213870000000  0.4959390000000 1.0
C      1  0.4088770000000  0.4432790000000  0.5198740000000 1.0
C      1  0.4519200000000  0.4535800000000  0.5207830000000 1.0
C      1  0.5702470000000  0.5169690000000  0.4412460000000 1.0
C      1  0.5697490000000  0.5645630000000  0.5131430000000 1.0
C      1  0.4166030000000  0.5334500000000  0.4759720000000 1.0
C      1  0.5363410000000  0.5888110000000  0.4236920000000 1.0
C      1  0.4330510000000  0.4265060000000  0.5118540000000 1.0
C      1  0.5153090000000  0.4723250000000  0.4773280000000 1.0
C      1  0.5416040000000  0.4848660000000  0.4841390000000 1.0
C      1  0.5325900000000  0.5416270000000  0.4527480000000 1.0
C      1  0.5640490000000  0.4328490000000  0.4545710000000 1.0
C      1  0.5316720000000  0.4230840000000  0.4983640000000 1.0
C      1  0.5120270000000  0.5297860000000  0.3913910000000 1.0
C      1  0.4356500000000  0.4808470000000  0.5802040000000 1.0
C      1  0.4609120000000  0.4538180000000  0.4913230000000 1.0
C      1  0.4675130000000  0.5447650000000  0.3995870000000 1.0
C      1  0.4090110000000  0.4872310000000  0.4593160000000 1.0
C      1  0.4274670000000  0.5544170000000  0.5247150000000 1.0
C      1  0.5020780000000  0.5527830000000  0.5908580000000 1.0
C      1  0.5550390000000  0.4310240000000  0.5166100000000 1.0
C      1  0.5853100000000  0.5278040000000  0.4704450000000 1.0
C      1  0.4902480000000  0.5348260000000  0.4751460000000 1.0
C      1  0.4916670000000  0.5237390000000  0.5525420000000 1.0
C      1  0.5254340000000  0.4747750000000  0.5339440000000 1.0
C      1  0.4020610000000  0.5083020000000  0.5572160000000 1.0
C      1  0.5476740000000  0.4787910000000  0.3969120000000 1.0
C      1  0.4859890000000  0.3965820000000  0.4475520000000 1.0
C      1  0.4710970000000  0.4488350000000  0.5845030000000 1.0
C      1  0.5295250000000  0.4231350000000  0.5623940000000 1.0
C      1  0.5249780000000  0.4788290000000  0.3829380000000 1.0
C      1  0.5741440000000  0.4477640000000  0.5016170000000 1.0
C      1  0.5037800000000  0.5466700000000  0.4519020000000 1.0
C      1  0.4506470000000  0.5406760000000  0.4423950000000 1.0
C      1  0.4878580000000  0.4299290000000  0.6022660000000 1.0
C      1  0.5704250000000  0.4531950000000  0.4734320000000 1.0
C      1  0.5435080000000  0.5277210000000  0.4290680000000 1.0
C      1  0.5452970000000  0.5922250000000  0.4496540000000 1.0
C      1  0.5735960000000  0.4875110000000  0.4373890000000 1.0
C      1  0.4725520000000  0.5435370000000  0.5160630000000 1.0
C      1  0.4974570000000  0.5732100000000  0.4456120000000 1.0
END
