TITL C-951345-2650-672 1.51830651670862e-06 125000 -499.899665118475 0 0 82 (C1) n - 1
REM
REM in /home/bkarasulu/work/CARBON/AIRSS/Generating-Clusters/EDIP-Nigel-Params/with-SteepDescent/Only-C1/SD-CG/HFTN-CG
REM
REM
REM
REM
REM
REM ./C.cell (11c1c37f851c82e70ff6c80c92926a4b)
REM
REM compiler GCC version 9.2.1 20190827 (Red Hat 9.2.1-1)
REM options -cpp -mtune=generic -march=x86-64 -g -O0 -fpre-include=/usr/include/finclude/math-vector-fortran.h
REM seed 670429165 -834484920 -1032307639 217573253 -1624315270 2052161435 -887490676 917795323 1383725378 -775003697 1322414854 1873006322 1189478239 489646044 1596023780 -2027773278 2046707178 492436158 1488285965 1193763385 1579568861 1269651625 82386878 1196644762 1632680447 1817631256 -968378064 393439779 -1685883305 2087635651 -614265635 514239873 -1026019069
REM
CELL 1.54180   50.00000   50.00000   50.00000   90.00000   90.00000   90.00000
LATT -1
SFAC C  
C      1  0.4983300000000  0.5034280000000  0.5150910000000 1.0
C      1  0.5024170000000  0.5156700000000  0.4649220000000 1.0
C      1  0.5664890000000  0.4460940000000  0.4842040000000 1.0
C      1  0.5367040000000  0.5688470000000  0.4839430000000 1.0
C      1  0.4699570000000  0.5570350000000  0.4489580000000 1.0
C      1  0.4897070000000  0.5713950000000  0.4628770000000 1.0
C      1  0.4214430000000  0.4798260000000  0.5102810000000 1.0
C      1  0.5485000000000  0.5097290000000  0.5260630000000 1.0
C      1  0.4548050000000  0.4309560000000  0.4665320000000 1.0
C      1  0.4104260000000  0.5381920000000  0.5217470000000 1.0
C      1  0.4166940000000  0.5345540000000  0.4945790000000 1.0
C      1  0.5197800000000  0.4825640000000  0.5561990000000 1.0
C      1  0.5397610000000  0.4687190000000  0.5400730000000 1.0
C      1  0.5413960000000  0.4434830000000  0.4406810000000 1.0
C      1  0.4706870000000  0.4979180000000  0.4179420000000 1.0
C      1  0.4449660000000  0.5140840000000  0.4618660000000 1.0
C      1  0.4916600000000  0.5705740000000  0.5658940000000 1.0
C      1  0.5853810000000  0.4952110000000  0.4919430000000 1.0
C      1  0.4935070000000  0.4112310000000  0.5177310000000 1.0
C      1  0.4515100000000  0.4813980000000  0.5513010000000 1.0
C      1  0.4610160000000  0.5627120000000  0.5302010000000 1.0
C      1  0.4461610000000  0.5441850000000  0.4568160000000 1.0
C      1  0.5739570000000  0.5181610000000  0.5137340000000 1.0
C      1  0.5444330000000  0.4720970000000  0.4317110000000 1.0
C      1  0.4968090000000  0.4518240000000  0.4958830000000 1.0
C      1  0.5033370000000  0.4044010000000  0.4911570000000 1.0
C      1  0.4815650000000  0.5769210000000  0.4891720000000 1.0
C      1  0.4963760000000  0.5429570000000  0.5698220000000 1.0
C      1  0.4713700000000  0.4967590000000  0.5671320000000 1.0
C      1  0.5567440000000  0.4857230000000  0.4543740000000 1.0
C      1  0.5604920000000  0.5521150000000  0.4794660000000 1.0
C      1  0.4629170000000  0.4961580000000  0.4450850000000 1.0
C      1  0.4379570000000  0.5524180000000  0.4838050000000 1.0
C      1  0.5275310000000  0.5044420000000  0.5042450000000 1.0
C      1  0.4190670000000  0.4974060000000  0.4857440000000 1.0
C      1  0.5156720000000  0.4877220000000  0.4246540000000 1.0
C      1  0.4757560000000  0.4711090000000  0.4856570000000 1.0
C      1  0.5497610000000  0.5160740000000  0.5738780000000 1.0
C      1  0.4706790000000  0.5275290000000  0.5668000000000 1.0
C      1  0.5427270000000  0.4894310000000  0.5725640000000 1.0
C      1  0.4879570000000  0.5723210000000  0.5377490000000 1.0
C      1  0.4650940000000  0.4146800000000  0.5181690000000 1.0
C      1  0.4329910000000  0.4525430000000  0.5032880000000 1.0
C      1  0.5039890000000  0.4394130000000  0.5237510000000 1.0
C      1  0.5643710000000  0.4760300000000  0.4811350000000 1.0
C      1  0.4937480000000  0.4904330000000  0.4047280000000 1.0
C      1  0.5734670000000  0.5477670000000  0.5056460000000 1.0
C      1  0.4305720000000  0.5236010000000  0.5350310000000 1.0
C      1  0.5026960000000  0.4306880000000  0.4753530000000 1.0
C      1  0.5340090000000  0.4436580000000  0.5271920000000 1.0
C      1  0.5247000000000  0.5265400000000  0.4842750000000 1.0
C      1  0.4855720000000  0.4871420000000  0.4613560000000 1.0
C      1  0.5968240000000  0.4997230000000  0.5175080000000 1.0
C      1  0.5015790000000  0.4646040000000  0.5704740000000 1.0
C      1  0.4723190000000  0.4932690000000  0.5042690000000 1.0
C      1  0.5417880000000  0.5268790000000  0.5493140000000 1.0
C      1  0.4324300000000  0.4943900000000  0.5338040000000 1.0
C      1  0.5550360000000  0.5291070000000  0.4622530000000 1.0
C      1  0.4487880000000  0.4374240000000  0.5245280000000 1.0
C      1  0.4842300000000  0.4798840000000  0.5870140000000 1.0
C      1  0.4481110000000  0.5116380000000  0.4963060000000 1.0
C      1  0.4885730000000  0.4486210000000  0.5494760000000 1.0
C      1  0.4538340000000  0.5381510000000  0.5448710000000 1.0
C      1  0.5298800000000  0.5601890000000  0.4365440000000 1.0
C      1  0.4603420000000  0.4543290000000  0.5452760000000 1.0
C      1  0.4781990000000  0.4167900000000  0.4653550000000 1.0
C      1  0.5591600000000  0.5642080000000  0.5242140000000 1.0
C      1  0.5514560000000  0.4372050000000  0.5061830000000 1.0
C      1  0.5082460000000  0.5545130000000  0.5227550000000 1.0
C      1  0.5146360000000  0.4457430000000  0.4517030000000 1.0
C      1  0.5129760000000  0.5329300000000  0.5467010000000 1.0
C      1  0.5010530000000  0.5057190000000  0.5437990000000 1.0
C      1  0.4608810000000  0.5607290000000  0.5007610000000 1.0
C      1  0.5332350000000  0.5699310000000  0.5137780000000 1.0
C      1  0.4498000000000  0.4554520000000  0.4787280000000 1.0
C      1  0.5605960000000  0.4345550000000  0.4594300000000 1.0
C      1  0.5176460000000  0.5640530000000  0.4616720000000 1.0
C      1  0.5153960000000  0.5156540000000  0.4376860000000 1.0
C      1  0.4980190000000  0.5423750000000  0.4946380000000 1.0
C      1  0.5015350000000  0.4700840000000  0.4435080000000 1.0
C      1  0.5391740000000  0.5334280000000  0.4377230000000 1.0
C      1  0.5366420000000  0.4825560000000  0.4873250000000 1.0
END
