TITL C-950525-1983-482 -5.41313092951982e-06 125000 -678.479277529285 0 0 110 (C1) n - 1
REM
REM in /home/bkarasulu/work/CARBON/AIRSS/Generating-Clusters/EDIP-Nigel-Params/with-SteepDescent/Only-C1/SD-CG/HFTN-CG
REM
REM
REM
REM
REM
REM ./C.cell (11c1c37f851c82e70ff6c80c92926a4b)
REM
REM compiler GCC version 9.2.1 20190827 (Red Hat 9.2.1-1)
REM options -cpp -mtune=generic -march=x86-64 -g -O0 -fpre-include=/usr/include/finclude/math-vector-fortran.h
REM seed 1264934980 -1961207408 -756846847 996090997 -2063664719 -1302576122 1710905537 -1433558327 57127080 -663534547 1486515348 -4201874 1191619842 1380127695 -1938949420 -1758878747 -408578394 155414889 -1223597871 -1833698611 165958798 482107536 858620846 -1347240673 -444800783 1549359333 1057054731 -224977919 931584982 -2146578589 -1451662306 1084098700 536250354
REM
CELL 1.54180   50.00000   50.00000   50.00000   90.00000   90.00000   90.00000
LATT -1
SFAC C  
C      1  0.5228560000000  0.4911570000000  0.4271980000000 1.0
C      1  0.4619820000000  0.4494520000000  0.4505160000000 1.0
C      1  0.5185890000000  0.4146800000000  0.5236580000000 1.0
C      1  0.4311030000000  0.5468370000000  0.4741180000000 1.0
C      1  0.4363440000000  0.5711760000000  0.5111610000000 1.0
C      1  0.5078500000000  0.4082950000000  0.4962490000000 1.0
C      1  0.4270260000000  0.4740690000000  0.5449220000000 1.0
C      1  0.4714630000000  0.5450890000000  0.5566870000000 1.0
C      1  0.5204630000000  0.5353940000000  0.4678490000000 1.0
C      1  0.5064260000000  0.4867710000000  0.4579310000000 1.0
C      1  0.4780310000000  0.5976950000000  0.5059770000000 1.0
C      1  0.4805910000000  0.5042110000000  0.5862110000000 1.0
C      1  0.5451350000000  0.5112220000000  0.5162560000000 1.0
C      1  0.5754530000000  0.5141150000000  0.5197280000000 1.0
C      1  0.5269230000000  0.5553900000000  0.5566380000000 1.0
C      1  0.4788390000000  0.4877640000000  0.4186820000000 1.0
C      1  0.5004140000000  0.5312240000000  0.5201980000000 1.0
C      1  0.4471740000000  0.5430510000000  0.4326600000000 1.0
C      1  0.4065610000000  0.4952860000000  0.5401780000000 1.0
C      1  0.4430290000000  0.5633750000000  0.4539360000000 1.0
C      1  0.4160370000000  0.4916180000000  0.4932590000000 1.0
C      1  0.5028020000000  0.4481240000000  0.4347400000000 1.0
C      1  0.5112900000000  0.5907060000000  0.4709080000000 1.0
C      1  0.5065930000000  0.4184130000000  0.4243200000000 1.0
C      1  0.5608350000000  0.4491260000000  0.4587930000000 1.0
C      1  0.5502100000000  0.4286220000000  0.4777170000000 1.0
C      1  0.5872980000000  0.5336900000000  0.4740910000000 1.0
C      1  0.4595050000000  0.4127100000000  0.5146030000000 1.0
C      1  0.5028040000000  0.4580800000000  0.4656270000000 1.0
C      1  0.4870380000000  0.5297250000000  0.4541110000000 1.0
C      1  0.5708310000000  0.4770360000000  0.4615400000000 1.0
C      1  0.5034480000000  0.5103160000000  0.5699500000000 1.0
C      1  0.5764900000000  0.5593290000000  0.4817400000000 1.0
C      1  0.5542410000000  0.5425650000000  0.5572920000000 1.0
C      1  0.4760050000000  0.4581540000000  0.4242860000000 1.0
C      1  0.5227840000000  0.4837390000000  0.5909730000000 1.0
C      1  0.4380380000000  0.5174790000000  0.4420670000000 1.0
C      1  0.5422520000000  0.4722580000000  0.5474520000000 1.0
C      1  0.5340970000000  0.4259840000000  0.4219540000000 1.0
C      1  0.4796950000000  0.5484670000000  0.5050170000000 1.0
C      1  0.5748030000000  0.5428640000000  0.5328330000000 1.0
C      1  0.5052050000000  0.5950950000000  0.5174820000000 1.0
C      1  0.4722950000000  0.4171630000000  0.5409470000000 1.0
C      1  0.5892170000000  0.5129130000000  0.4930510000000 1.0
C      1  0.4801820000000  0.4212160000000  0.4921600000000 1.0
C      1  0.4685580000000  0.4950030000000  0.5289220000000 1.0
C      1  0.4604850000000  0.5101270000000  0.4856150000000 1.0
C      1  0.4822730000000  0.5970250000000  0.4760930000000 1.0
C      1  0.5278590000000  0.5831710000000  0.5595950000000 1.0
C      1  0.5330140000000  0.4569020000000  0.5230740000000 1.0
C      1  0.4495890000000  0.4536040000000  0.5040070000000 1.0
C      1  0.5841030000000  0.4856350000000  0.5317500000000 1.0
C      1  0.5545090000000  0.5211620000000  0.4356530000000 1.0
C      1  0.4524990000000  0.4981830000000  0.4587700000000 1.0
C      1  0.5437440000000  0.4291570000000  0.5255280000000 1.0
C      1  0.5663830000000  0.4927910000000  0.4367650000000 1.0
C      1  0.5407400000000  0.5596700000000  0.4970830000000 1.0
C      1  0.4715870000000  0.4213210000000  0.4622700000000 1.0
C      1  0.5155630000000  0.5046210000000  0.4805620000000 1.0
C      1  0.4772270000000  0.5443460000000  0.4290790000000 1.0
C      1  0.4029950000000  0.5067920000000  0.5140480000000 1.0
C      1  0.5355060000000  0.5093880000000  0.5897900000000 1.0
C      1  0.5508790000000  0.4648400000000  0.4988890000000 1.0
C      1  0.4664100000000  0.5722610000000  0.5474040000000 1.0
C      1  0.4043480000000  0.5348780000000  0.5112210000000 1.0
C      1  0.4394210000000  0.4869480000000  0.5682890000000 1.0
C      1  0.4182300000000  0.5551970000000  0.4978300000000 1.0
C      1  0.4992270000000  0.4274840000000  0.5411060000000 1.0
C      1  0.4573730000000  0.4377390000000  0.5561360000000 1.0
C      1  0.5127170000000  0.5690950000000  0.4514610000000 1.0
C      1  0.5056650000000  0.5929720000000  0.5465690000000 1.0
C      1  0.4673610000000  0.4641560000000  0.5293260000000 1.0
C      1  0.4298930000000  0.4673040000000  0.4855850000000 1.0
C      1  0.4644130000000  0.5723460000000  0.5171780000000 1.0
C      1  0.4420190000000  0.4699160000000  0.4594480000000 1.0
C      1  0.4512140000000  0.5256190000000  0.5449530000000 1.0
C      1  0.4308240000000  0.5143340000000  0.5628410000000 1.0
C      1  0.4760620000000  0.4563030000000  0.5713360000000 1.0
C      1  0.5245110000000  0.5859240000000  0.4966360000000 1.0
C      1  0.4308120000000  0.4444960000000  0.5430300000000 1.0
C      1  0.4677610000000  0.5374830000000  0.4793710000000 1.0
C      1  0.4808100000000  0.4991780000000  0.4467650000000 1.0
C      1  0.4965940000000  0.4096130000000  0.4502440000000 1.0
C      1  0.5038610000000  0.4938570000000  0.4056150000000 1.0
C      1  0.5260150000000  0.4635760000000  0.5706720000000 1.0
C      1  0.5810850000000  0.4691170000000  0.5072120000000 1.0
C      1  0.5025870000000  0.4478640000000  0.5624850000000 1.0
C      1  0.4692570000000  0.5763570000000  0.4589080000000 1.0
C      1  0.4346230000000  0.4302710000000  0.5159420000000 1.0
C      1  0.5397170000000  0.4931930000000  0.4938340000000 1.0
C      1  0.4863660000000  0.4516990000000  0.4913790000000 1.0
C      1  0.5708770000000  0.4711280000000  0.5521510000000 1.0
C      1  0.5285170000000  0.5357240000000  0.5109710000000 1.0
C      1  0.5468360000000  0.4488520000000  0.4336420000000 1.0
C      1  0.5006430000000  0.5363340000000  0.5519210000000 1.0
C      1  0.5290450000000  0.5188230000000  0.4216600000000 1.0
C      1  0.4468500000000  0.5067910000000  0.5112620000000 1.0
C      1  0.5889100000000  0.4849560000000  0.4835460000000 1.0
C      1  0.5478350000000  0.4749840000000  0.4207790000000 1.0
C      1  0.4812140000000  0.5927750000000  0.5599470000000 1.0
C      1  0.4942740000000  0.5014020000000  0.5129800000000 1.0
C      1  0.5364710000000  0.5005370000000  0.5426120000000 1.0
C      1  0.4876650000000  0.5705760000000  0.4371180000000 1.0
C      1  0.5513760000000  0.5374050000000  0.4609420000000 1.0
C      1  0.5491530000000  0.5144970000000  0.5648600000000 1.0
C      1  0.5615090000000  0.4259560000000  0.5035250000000 1.0
C      1  0.5688220000000  0.5641610000000  0.5118070000000 1.0
C      1  0.4990530000000  0.4645460000000  0.5169950000000 1.0
C      1  0.4678140000000  0.4841100000000  0.5716810000000 1.0
C      1  0.5261960000000  0.4118780000000  0.4736660000000 1.0
END
