TITL C-951336-9012-297 1.16323416091863e-06 125000 -303.301012293583 0 0 50 (C1) n - 1
REM
REM in /home/bkarasulu/work/CARBON/AIRSS/Generating-Clusters/EDIP-Nigel-Params/with-SteepDescent/Only-C1/SD-CG/HFTN-CG
REM
REM
REM
REM
REM
REM ./C.cell (11c1c37f851c82e70ff6c80c92926a4b)
REM
REM compiler GCC version 9.2.1 20190827 (Red Hat 9.2.1-1)
REM options -cpp -mtune=generic -march=x86-64 -g -O0 -fpre-include=/usr/include/finclude/math-vector-fortran.h
REM seed 582590855 665216554 407675217 488678209 -762684708 -1889125273 -384183358 -1012381345 -625522171 -1388220461 1251001940 -1784054817 -1972185575 1420508820 456987545 261208582 481555319 893490189 1032384549 -1301728101 1019426263 -317589798 1469858552 769870240 -552543926 1766593372 132359521 -314943829 -2040655030 920285367 800051579 -917352252 261286371
REM
CELL 1.54180   50.00000   50.00000   50.00000   90.00000   90.00000   90.00000
LATT -1
SFAC C  
C      1  0.5633720000000  0.4797480000000  0.4561930000000 1.0
C      1  0.4705360000000  0.5041200000000  0.4403250000000 1.0
C      1  0.4966520000000  0.4990260000000  0.5713160000000 1.0
C      1  0.5600630000000  0.5201170000000  0.5288500000000 1.0
C      1  0.4848750000000  0.4783680000000  0.4380780000000 1.0
C      1  0.5206890000000  0.4804820000000  0.5378200000000 1.0
C      1  0.5195560000000  0.5409820000000  0.4600200000000 1.0
C      1  0.5749120000000  0.5030300000000  0.4641030000000 1.0
C      1  0.5539330000000  0.5475900000000  0.5286330000000 1.0
C      1  0.4482370000000  0.5081680000000  0.4617740000000 1.0
C      1  0.5356980000000  0.4829370000000  0.4612260000000 1.0
C      1  0.4764890000000  0.4497480000000  0.5082200000000 1.0
C      1  0.5599690000000  0.4990960000000  0.5105300000000 1.0
C      1  0.5329780000000  0.5321080000000  0.4860230000000 1.0
C      1  0.4497220000000  0.4589210000000  0.5069590000000 1.0
C      1  0.4288340000000  0.5090610000000  0.5457780000000 1.0
C      1  0.5079490000000  0.5199090000000  0.5012510000000 1.0
C      1  0.5375390000000  0.5567510000000  0.5500070000000 1.0
C      1  0.4970950000000  0.4657980000000  0.5502190000000 1.0
C      1  0.5196870000000  0.4939810000000  0.4401440000000 1.0
C      1  0.4335760000000  0.5050860000000  0.5072370000000 1.0
C      1  0.4120180000000  0.5145090000000  0.5244370000000 1.0
C      1  0.5116000000000  0.5553590000000  0.5382320000000 1.0
C      1  0.4728040000000  0.5274850000000  0.5307440000000 1.0
C      1  0.4986490000000  0.5595600000000  0.4641880000000 1.0
C      1  0.4314300000000  0.4774440000000  0.4959770000000 1.0
C      1  0.4793540000000  0.4591740000000  0.4601060000000 1.0
C      1  0.5111000000000  0.5216890000000  0.4396810000000 1.0
C      1  0.5127170000000  0.5669130000000  0.5110950000000 1.0
C      1  0.5392630000000  0.4765510000000  0.5131510000000 1.0
C      1  0.4572280000000  0.5067880000000  0.5441910000000 1.0
C      1  0.4464800000000  0.5248150000000  0.4882810000000 1.0
C      1  0.5216760000000  0.4743590000000  0.4869190000000 1.0
C      1  0.4895130000000  0.4421880000000  0.5333760000000 1.0
C      1  0.4982390000000  0.4927100000000  0.4914150000000 1.0
C      1  0.5194680000000  0.4369100000000  0.4830940000000 1.0
C      1  0.4716640000000  0.4824580000000  0.4788600000000 1.0
C      1  0.4848840000000  0.5260070000000  0.4296520000000 1.0
C      1  0.5027140000000  0.5270310000000  0.5318530000000 1.0
C      1  0.4922700000000  0.5545830000000  0.4920280000000 1.0
C      1  0.5323790000000  0.4313810000000  0.5084250000000 1.0
C      1  0.4346310000000  0.4823790000000  0.4678050000000 1.0
C      1  0.5519940000000  0.4504890000000  0.5153270000000 1.0
C      1  0.5579960000000  0.5130420000000  0.4849170000000 1.0
C      1  0.4910360000000  0.4430150000000  0.4831750000000 1.0
C      1  0.4709440000000  0.4905590000000  0.5633390000000 1.0
C      1  0.5126870000000  0.4273540000000  0.5278300000000 1.0
C      1  0.4682800000000  0.5379890000000  0.5032170000000 1.0
C      1  0.5396040000000  0.5559910000000  0.5035750000000 1.0
C      1  0.5150210000000  0.5062430000000  0.5504020000000 1.0
END
