TITL C-950531-5884-719 2.77396549308451e-06 125000 -1016.40348293857 0 0 163 (C1) n - 1
REM
REM in /home/bkarasulu/work/CARBON/AIRSS/Generating-Clusters/EDIP-Nigel-Params/with-SteepDescent/Only-C1/SD-CG/HFTN-CG
REM
REM
REM
REM
REM
REM ./C.cell (11c1c37f851c82e70ff6c80c92926a4b)
REM
REM compiler GCC version 9.2.1 20190827 (Red Hat 9.2.1-1)
REM options -cpp -mtune=generic -march=x86-64 -g -O0 -fpre-include=/usr/include/finclude/math-vector-fortran.h
REM seed 791332363 1060970324 1806080986 1187856993 -1941965757 428745013 -45418606 -1624997810 1779049105 1578238501 334063495 -431294862 508371931 843727369 -574104412 -562260553 1901247074 -2076480510 -355273577 676957947 233890625 70904635 643595295 394572345 1487111383 1003564782 -2084488115 -717203676 1657200320 -2038369860 1497107404 -1864631775 1670188806
REM
CELL 1.54180   50.00000   50.00000   50.00000   90.00000   90.00000   90.00000
LATT -1
SFAC C  
C      1  0.4997480000000  0.5023390000000  0.3925310000000 1.0
C      1  0.4554030000000  0.5432470000000  0.5285950000000 1.0
C      1  0.4227350000000  0.4362950000000  0.5513330000000 1.0
C      1  0.5626880000000  0.4499850000000  0.5646580000000 1.0
C      1  0.5138180000000  0.4734660000000  0.5536060000000 1.0
C      1  0.5270970000000  0.6083760000000  0.5194160000000 1.0
C      1  0.4758400000000  0.4877450000000  0.5041670000000 1.0
C      1  0.5971590000000  0.5261880000000  0.5248260000000 1.0
C      1  0.5001020000000  0.5605530000000  0.5249140000000 1.0
C      1  0.5684670000000  0.5010180000000  0.4188880000000 1.0
C      1  0.4473150000000  0.5202600000000  0.4531180000000 1.0
C      1  0.5256590000000  0.5935270000000  0.4957760000000 1.0
C      1  0.4085930000000  0.4655450000000  0.4866490000000 1.0
C      1  0.5331600000000  0.4128960000000  0.4771730000000 1.0
C      1  0.5975860000000  0.5232350000000  0.5550600000000 1.0
C      1  0.4373460000000  0.5151620000000  0.4902800000000 1.0
C      1  0.5166780000000  0.5371160000000  0.5411480000000 1.0
C      1  0.5420890000000  0.5455830000000  0.5177730000000 1.0
C      1  0.5187750000000  0.5652170000000  0.4993140000000 1.0
C      1  0.4720230000000  0.6094830000000  0.4968680000000 1.0
C      1  0.4355440000000  0.4722510000000  0.4975180000000 1.0
C      1  0.5504750000000  0.4348540000000  0.4887090000000 1.0
C      1  0.5482520000000  0.4175200000000  0.5336810000000 1.0
C      1  0.4368660000000  0.4722680000000  0.5273840000000 1.0
C      1  0.4336710000000  0.5661110000000  0.4494350000000 1.0
C      1  0.5190010000000  0.4535040000000  0.4545220000000 1.0
C      1  0.5891060000000  0.5615700000000  0.5134230000000 1.0
C      1  0.5110200000000  0.3870910000000  0.5440150000000 1.0
C      1  0.5101060000000  0.5116470000000  0.5262280000000 1.0
C      1  0.5291160000000  0.3955810000000  0.5244410000000 1.0
C      1  0.5564890000000  0.4725210000000  0.4213700000000 1.0
C      1  0.4346830000000  0.5619610000000  0.5412580000000 1.0
C      1  0.5476520000000  0.4586450000000  0.4678460000000 1.0
C      1  0.5928640000000  0.5023400000000  0.4360510000000 1.0
C      1  0.4895410000000  0.5863490000000  0.5404090000000 1.0
C      1  0.4771240000000  0.5794010000000  0.5658140000000 1.0
C      1  0.4715060000000  0.4083590000000  0.5639840000000 1.0
C      1  0.4964590000000  0.4191090000000  0.4273860000000 1.0
C      1  0.4763580000000  0.4795530000000  0.4222100000000 1.0
C      1  0.4670280000000  0.4875710000000  0.5736960000000 1.0
C      1  0.5902530000000  0.5709950000000  0.4626700000000 1.0
C      1  0.5225720000000  0.5219090000000  0.5759670000000 1.0
C      1  0.5194600000000  0.3945440000000  0.4959340000000 1.0
C      1  0.4499860000000  0.5983470000000  0.4832830000000 1.0
C      1  0.4903600000000  0.3950380000000  0.4901780000000 1.0
C      1  0.4049770000000  0.5266550000000  0.4629300000000 1.0
C      1  0.4495850000000  0.5183970000000  0.4094730000000 1.0
C      1  0.5317210000000  0.4453170000000  0.5119150000000 1.0
C      1  0.5178620000000  0.5656420000000  0.5827490000000 1.0
C      1  0.5268510000000  0.5282740000000  0.4033520000000 1.0
C      1  0.5539100000000  0.5448620000000  0.4835890000000 1.0
C      1  0.5637200000000  0.5638030000000  0.5289590000000 1.0
C      1  0.4744830000000  0.4094960000000  0.5098850000000 1.0
C      1  0.5934010000000  0.4764230000000  0.4528970000000 1.0
C      1  0.4107160000000  0.5532350000000  0.5219330000000 1.0
C      1  0.5597660000000  0.5705570000000  0.5579780000000 1.0
C      1  0.4427710000000  0.4467550000000  0.5710110000000 1.0
C      1  0.5543970000000  0.5093100000000  0.5396900000000 1.0
C      1  0.6055240000000  0.4648090000000  0.5395840000000 1.0
C      1  0.4272740000000  0.4098570000000  0.5403180000000 1.0
C      1  0.5250400000000  0.5022720000000  0.4217160000000 1.0
C      1  0.4560870000000  0.5099200000000  0.5570280000000 1.0
C      1  0.5911450000000  0.5256010000000  0.4548490000000 1.0
C      1  0.4437030000000  0.4723020000000  0.5824870000000 1.0
C      1  0.4553960000000  0.4510710000000  0.4893030000000 1.0
C      1  0.4404560000000  0.4241040000000  0.4852000000000 1.0
C      1  0.5526180000000  0.4720420000000  0.5815370000000 1.0
C      1  0.4760790000000  0.4401360000000  0.5104010000000 1.0
C      1  0.5121980000000  0.4755780000000  0.3966080000000 1.0
C      1  0.5718150000000  0.5125960000000  0.5171040000000 1.0
C      1  0.5694730000000  0.5185160000000  0.5643900000000 1.0
C      1  0.4667620000000  0.4591690000000  0.4599420000000 1.0
C      1  0.4888400000000  0.5077590000000  0.4458560000000 1.0
C      1  0.5671830000000  0.4962290000000  0.5828630000000 1.0
C      1  0.5157180000000  0.5527090000000  0.4171420000000 1.0
C      1  0.4123720000000  0.4562090000000  0.5323520000000 1.0
C      1  0.5219740000000  0.4728750000000  0.5820280000000 1.0
C      1  0.4652560000000  0.4569800000000  0.5342830000000 1.0
C      1  0.4460410000000  0.4038270000000  0.5074760000000 1.0
C      1  0.5754170000000  0.4267290000000  0.5247200000000 1.0
C      1  0.4449960000000  0.5352540000000  0.5839030000000 1.0
C      1  0.5686820000000  0.4607640000000  0.4456090000000 1.0
C      1  0.4083400000000  0.5200180000000  0.4358900000000 1.0
C      1  0.5240070000000  0.5019740000000  0.4776470000000 1.0
C      1  0.4472490000000  0.5893490000000  0.4570500000000 1.0
C      1  0.5674500000000  0.5211650000000  0.4716380000000 1.0
C      1  0.5325190000000  0.5648200000000  0.4386020000000 1.0
C      1  0.4235550000000  0.5439340000000  0.5658930000000 1.0
C      1  0.5776460000000  0.4277490000000  0.4970210000000 1.0
C      1  0.4520300000000  0.3969360000000  0.5456180000000 1.0
C      1  0.5302980000000  0.4910020000000  0.5347570000000 1.0
C      1  0.4087180000000  0.5197110000000  0.5532610000000 1.0
C      1  0.5194920000000  0.5918450000000  0.4436710000000 1.0
C      1  0.4764880000000  0.4289300000000  0.4109010000000 1.0
C      1  0.4929700000000  0.5904700000000  0.4333760000000 1.0
C      1  0.4345990000000  0.4532880000000  0.4196050000000 1.0
C      1  0.4630490000000  0.4295640000000  0.5815420000000 1.0
C      1  0.5099810000000  0.4459910000000  0.5916330000000 1.0
C      1  0.4897140000000  0.5584510000000  0.5787710000000 1.0
C      1  0.4950590000000  0.4727190000000  0.4615150000000 1.0
C      1  0.5458290000000  0.4833770000000  0.4864780000000 1.0
C      1  0.4855640000000  0.4135120000000  0.4565700000000 1.0
C      1  0.5443490000000  0.4275440000000  0.5608540000000 1.0
C      1  0.4826040000000  0.5054060000000  0.5929840000000 1.0
C      1  0.5944780000000  0.4824430000000  0.4824770000000 1.0
C      1  0.4828070000000  0.4423020000000  0.5968780000000 1.0
C      1  0.4404550000000  0.5907350000000  0.5288210000000 1.0
C      1  0.4740070000000  0.5346910000000  0.5884910000000 1.0
C      1  0.4866050000000  0.5312970000000  0.4906590000000 1.0
C      1  0.5086030000000  0.4307200000000  0.4713490000000 1.0
C      1  0.4755040000000  0.5345870000000  0.4466880000000 1.0
C      1  0.5123550000000  0.5195820000000  0.4980940000000 1.0
C      1  0.4096630000000  0.4531090000000  0.4588300000000 1.0
C      1  0.5320230000000  0.5820610000000  0.5623980000000 1.0
C      1  0.5573640000000  0.5281060000000  0.4092990000000 1.0
C      1  0.5348520000000  0.5432030000000  0.5896600000000 1.0
C      1  0.4203000000000  0.5506280000000  0.4702140000000 1.0
C      1  0.4821380000000  0.5001430000000  0.5305370000000 1.0
C      1  0.5705920000000  0.4992830000000  0.4899750000000 1.0
C      1  0.4675590000000  0.5080420000000  0.4841170000000 1.0
C      1  0.5117110000000  0.5003790000000  0.5919030000000 1.0
C      1  0.4261480000000  0.4782850000000  0.4349830000000 1.0
C      1  0.5180870000000  0.4253970000000  0.5726800000000 1.0
C      1  0.6183680000000  0.4924710000000  0.4927530000000 1.0
C      1  0.6198370000000  0.5063830000000  0.5170070000000 1.0
C      1  0.4899130000000  0.5659900000000  0.4189580000000 1.0
C      1  0.4836720000000  0.4760740000000  0.5493190000000 1.0
C      1  0.4682480000000  0.6007390000000  0.5237980000000 1.0
C      1  0.4241970000000  0.5044810000000  0.4190750000000 1.0
C      1  0.6165230000000  0.5042740000000  0.5636760000000 1.0
C      1  0.5885260000000  0.5521320000000  0.4416760000000 1.0
C      1  0.4713800000000  0.4996590000000  0.4013580000000 1.0
C      1  0.5303700000000  0.4599280000000  0.4127470000000 1.0
C      1  0.5169980000000  0.5092190000000  0.4494880000000 1.0
C      1  0.5637370000000  0.5524740000000  0.4255200000000 1.0
C      1  0.5035750000000  0.4463980000000  0.4985840000000 1.0
C      1  0.5606290000000  0.5458020000000  0.5761660000000 1.0
C      1  0.4992470000000  0.4751910000000  0.4913340000000 1.0
C      1  0.4634160000000  0.4530500000000  0.4160690000000 1.0
C      1  0.5161110000000  0.5998000000000  0.5438270000000 1.0
C      1  0.4523460000000  0.4230810000000  0.4556940000000 1.0
C      1  0.4357740000000  0.5238950000000  0.5185900000000 1.0
C      1  0.4321460000000  0.5031470000000  0.5403710000000 1.0
C      1  0.4649540000000  0.5542670000000  0.4094180000000 1.0
C      1  0.4930090000000  0.5481450000000  0.4678330000000 1.0
C      1  0.5003080000000  0.4038590000000  0.5635500000000 1.0
C      1  0.6208790000000  0.4883920000000  0.5408020000000 1.0
C      1  0.5221200000000  0.4331050000000  0.4222010000000 1.0
C      1  0.4508720000000  0.4861390000000  0.4497810000000 1.0
C      1  0.3919520000000  0.5112400000000  0.5077940000000 1.0
C      1  0.3935540000000  0.5291580000000  0.5291930000000 1.0
C      1  0.4074850000000  0.5041560000000  0.4848100000000 1.0
C      1  0.5821590000000  0.4495940000000  0.5421390000000 1.0
C      1  0.5233750000000  0.6024200000000  0.4693650000000 1.0
C      1  0.4296250000000  0.5894950000000  0.5013610000000 1.0
C      1  0.4136490000000  0.5654790000000  0.4948030000000 1.0
C      1  0.5765190000000  0.5650750000000  0.4864940000000 1.0
C      1  0.4265450000000  0.4348270000000  0.4414710000000 1.0
C      1  0.5382610000000  0.4734680000000  0.5126710000000 1.0
C      1  0.5251710000000  0.5496280000000  0.4645530000000 1.0
C      1  0.3971400000000  0.4501110000000  0.5088160000000 1.0
C      1  0.4772550000000  0.5491930000000  0.5118720000000 1.0
C      1  0.4414090000000  0.5530020000000  0.4251680000000 1.0
END
