TITL C-950531-5884-411 -2.89162501705954e-06 125000 -475.342131437455 0 0 79 (C1) n - 1
REM
REM in /home/bkarasulu/work/CARBON/AIRSS/Generating-Clusters/EDIP-Nigel-Params/with-SteepDescent/Only-C1/SD-CG/HFTN-CG
REM
REM
REM
REM
REM
REM ./C.cell (11c1c37f851c82e70ff6c80c92926a4b)
REM
REM compiler GCC version 9.2.1 20190827 (Red Hat 9.2.1-1)
REM options -cpp -mtune=generic -march=x86-64 -g -O0 -fpre-include=/usr/include/finclude/math-vector-fortran.h
REM seed 188329217 2003291477 -1004837843 1152495258 2142429650 533580345 2106024997 1449981322 -2132135898 1207798438 1877782399 1674439637 -2026932611 922529934 -1368595524 1851990529 2100992874 1107027988 1289380124 356578931 1440714256 528287678 1123378156 -543613280 1277828179 -1757836993 -1375465927 -1527908684 -432420681 -594559680 -1629217079 -1570094760 1385562712
REM
CELL 1.54180   50.00000   50.00000   50.00000   90.00000   90.00000   90.00000
LATT -1
SFAC C  
C      1  0.5457370000000  0.5013010000000  0.5714980000000 1.0
C      1  0.5879060000000  0.4954950000000  0.5201250000000 1.0
C      1  0.4600740000000  0.4311460000000  0.5072790000000 1.0
C      1  0.5853060000000  0.5168500000000  0.4693980000000 1.0
C      1  0.4886550000000  0.4377370000000  0.4977350000000 1.0
C      1  0.4611820000000  0.4437340000000  0.4595340000000 1.0
C      1  0.4481850000000  0.5421260000000  0.4801560000000 1.0
C      1  0.5615870000000  0.4944460000000  0.5306470000000 1.0
C      1  0.5132090000000  0.5133280000000  0.5579830000000 1.0
C      1  0.5035950000000  0.4687990000000  0.4397540000000 1.0
C      1  0.4858620000000  0.5164890000000  0.4200160000000 1.0
C      1  0.5126730000000  0.5300780000000  0.4190810000000 1.0
C      1  0.5108480000000  0.5556880000000  0.4322760000000 1.0
C      1  0.4518500000000  0.5628730000000  0.5003720000000 1.0
C      1  0.4722400000000  0.5770940000000  0.4574370000000 1.0
C      1  0.4635060000000  0.5491760000000  0.5252140000000 1.0
C      1  0.4932000000000  0.5044850000000  0.5791070000000 1.0
C      1  0.4268120000000  0.5008780000000  0.4621230000000 1.0
C      1  0.4232090000000  0.5255270000000  0.4810920000000 1.0
C      1  0.4198930000000  0.5042930000000  0.5057790000000 1.0
C      1  0.4913960000000  0.5372750000000  0.4880850000000 1.0
C      1  0.4829510000000  0.5662970000000  0.5408530000000 1.0
C      1  0.5645090000000  0.4468470000000  0.4985350000000 1.0
C      1  0.4460830000000  0.4459510000000  0.4861950000000 1.0
C      1  0.5675600000000  0.5383530000000  0.4640770000000 1.0
C      1  0.5691450000000  0.4939200000000  0.4757560000000 1.0
C      1  0.5322760000000  0.4137720000000  0.4921410000000 1.0
C      1  0.4402130000000  0.4653640000000  0.5434330000000 1.0
C      1  0.5534300000000  0.5304360000000  0.4410740000000 1.0
C      1  0.4708520000000  0.5819710000000  0.4877940000000 1.0
C      1  0.5082310000000  0.4999940000000  0.4709890000000 1.0
C      1  0.4601560000000  0.4743790000000  0.4219080000000 1.0
C      1  0.4778400000000  0.5084940000000  0.4657210000000 1.0
C      1  0.5509060000000  0.4761770000000  0.4612790000000 1.0
C      1  0.4744870000000  0.5270390000000  0.5739570000000 1.0
C      1  0.5063460000000  0.5702610000000  0.5215670000000 1.0
C      1  0.5013650000000  0.5722840000000  0.4530860000000 1.0
C      1  0.4981380000000  0.5675950000000  0.4911300000000 1.0
C      1  0.4827630000000  0.4794330000000  0.5665260000000 1.0
C      1  0.5505620000000  0.5436760000000  0.4874890000000 1.0
C      1  0.5166300000000  0.4660610000000  0.5328960000000 1.0
C      1  0.4562170000000  0.4744600000000  0.4912140000000 1.0
C      1  0.4897220000000  0.4515360000000  0.4612570000000 1.0
C      1  0.5671310000000  0.5246960000000  0.5355010000000 1.0
C      1  0.4539670000000  0.4876980000000  0.4630380000000 1.0
C      1  0.4446110000000  0.4900420000000  0.5149570000000 1.0
C      1  0.5339570000000  0.5131240000000  0.4305040000000 1.0
C      1  0.5287450000000  0.5537770000000  0.5313120000000 1.0
C      1  0.4578880000000  0.5508480000000  0.4535760000000 1.0
C      1  0.5063780000000  0.4300300000000  0.5235100000000 1.0
C      1  0.5559470000000  0.4796040000000  0.5553820000000 1.0
C      1  0.4093390000000  0.4890330000000  0.4827160000000 1.0
C      1  0.5416150000000  0.4302530000000  0.5390880000000 1.0
C      1  0.5329750000000  0.4284680000000  0.4686420000000 1.0
C      1  0.4996710000000  0.4552790000000  0.5666220000000 1.0
C      1  0.5362170000000  0.4563840000000  0.5535380000000 1.0
C      1  0.4417230000000  0.5378940000000  0.5412070000000 1.0
C      1  0.5488090000000  0.4267450000000  0.5113230000000 1.0
C      1  0.4838630000000  0.4685130000000  0.5034070000000 1.0
C      1  0.4871900000000  0.4365220000000  0.5467030000000 1.0
C      1  0.5521510000000  0.5439530000000  0.5168160000000 1.0
C      1  0.5260330000000  0.4886590000000  0.4480240000000 1.0
C      1  0.5258170000000  0.5437500000000  0.5590660000000 1.0
C      1  0.4858740000000  0.4847790000000  0.4213890000000 1.0
C      1  0.4778000000000  0.4862620000000  0.5360230000000 1.0
C      1  0.5540470000000  0.5282760000000  0.5631070000000 1.0
C      1  0.5905660000000  0.4868680000000  0.4934800000000 1.0
C      1  0.4824140000000  0.5279300000000  0.5144690000000 1.0
C      1  0.4531630000000  0.5171070000000  0.5558310000000 1.0
C      1  0.5506000000000  0.4499790000000  0.4738410000000 1.0
C      1  0.4916950000000  0.5511290000000  0.5653550000000 1.0
C      1  0.4777570000000  0.5299270000000  0.4462790000000 1.0
C      1  0.4613340000000  0.4454100000000  0.5340250000000 1.0
C      1  0.5199740000000  0.4908640000000  0.5161160000000 1.0
C      1  0.4467130000000  0.4588320000000  0.4397730000000 1.0
C      1  0.5178790000000  0.5254410000000  0.4818290000000 1.0
C      1  0.5082980000000  0.4808270000000  0.4920560000000 1.0
C      1  0.4412460000000  0.4906870000000  0.5576400000000 1.0
C      1  0.4993070000000  0.5072930000000  0.5302820000000 1.0
END
