TITL C-951334-9093-303 -4.11527141858871e-06 125000 -1109.48417925911 0 0 178 (C1) n - 1
REM
REM in /home/bkarasulu/work/CARBON/AIRSS/Generating-Clusters/EDIP-Nigel-Params/with-SteepDescent/Only-C1/SD-CG/HFTN-CG
REM
REM
REM
REM
REM
REM ./C.cell (11c1c37f851c82e70ff6c80c92926a4b)
REM
REM compiler GCC version 9.2.1 20190827 (Red Hat 9.2.1-1)
REM options -cpp -mtune=generic -march=x86-64 -g -O0 -fpre-include=/usr/include/finclude/math-vector-fortran.h
REM seed -1502656651 361560501 -1892744209 -524700828 -653418381 1474330486 114055867 411050053 -499667882 1215166219 301950416 -1767268402 -2109051645 -804262369 175143917 1811335161 -976650032 -1974336678 363291411 -583630595 -369073853 -880438629 1273889034 -1566133515 615762231 1525953033 -2056003960 -838234083 1626830614 -244718955 465699743 1418886679 -64641753
REM
CELL 1.54180   50.00000   50.00000   50.00000   90.00000   90.00000   90.00000
LATT -1
SFAC C  
C      1  0.5489860000000  0.4260440000000  0.4387610000000 1.0
C      1  0.4235240000000  0.5633730000000  0.4446990000000 1.0
C      1  0.5673030000000  0.5372060000000  0.5419940000000 1.0
C      1  0.6030980000000  0.5063890000000  0.4751780000000 1.0
C      1  0.4731050000000  0.5538230000000  0.5988800000000 1.0
C      1  0.4861430000000  0.5249210000000  0.4404150000000 1.0
C      1  0.4247000000000  0.4271760000000  0.5479560000000 1.0
C      1  0.5423010000000  0.5077720000000  0.5656550000000 1.0
C      1  0.3851870000000  0.5041000000000  0.5387140000000 1.0
C      1  0.4643170000000  0.5194700000000  0.3872910000000 1.0
C      1  0.4570710000000  0.4600710000000  0.4804750000000 1.0
C      1  0.5444820000000  0.5851300000000  0.4995090000000 1.0
C      1  0.5564220000000  0.4580310000000  0.5868780000000 1.0
C      1  0.4314000000000  0.4225630000000  0.4660060000000 1.0
C      1  0.4656360000000  0.5418070000000  0.5571240000000 1.0
C      1  0.5212740000000  0.4489360000000  0.3741870000000 1.0
C      1  0.5165020000000  0.4349380000000  0.4801360000000 1.0
C      1  0.5684620000000  0.4707090000000  0.4969320000000 1.0
C      1  0.4761490000000  0.5600110000000  0.5370300000000 1.0
C      1  0.5204140000000  0.4591280000000  0.5531430000000 1.0
C      1  0.5593450000000  0.5333750000000  0.4119940000000 1.0
C      1  0.5365290000000  0.4121400000000  0.4827230000000 1.0
C      1  0.4136140000000  0.4421630000000  0.5042770000000 1.0
C      1  0.4528010000000  0.5546050000000  0.5793380000000 1.0
C      1  0.4461490000000  0.4976710000000  0.6095410000000 1.0
C      1  0.5694860000000  0.5666170000000  0.4992530000000 1.0
C      1  0.4278850000000  0.4808610000000  0.5363240000000 1.0
C      1  0.4965290000000  0.3854620000000  0.5251230000000 1.0
C      1  0.4250160000000  0.5203230000000  0.5667590000000 1.0
C      1  0.4293900000000  0.5613340000000  0.5192420000000 1.0
C      1  0.5782780000000  0.5318090000000  0.5722440000000 1.0
C      1  0.4642770000000  0.5869870000000  0.4985170000000 1.0
C      1  0.4930490000000  0.4721420000000  0.4273870000000 1.0
C      1  0.4657100000000  0.5326920000000  0.4972560000000 1.0
C      1  0.5384220000000  0.5999760000000  0.5244650000000 1.0
C      1  0.5118770000000  0.4021690000000  0.4402550000000 1.0
C      1  0.5507300000000  0.4498180000000  0.4562740000000 1.0
C      1  0.4143830000000  0.5535430000000  0.4711690000000 1.0
C      1  0.5091010000000  0.4914400000000  0.3770190000000 1.0
C      1  0.5532560000000  0.4632590000000  0.5567400000000 1.0
C      1  0.5794580000000  0.5138710000000  0.4260980000000 1.0
C      1  0.4394720000000  0.4153490000000  0.5685640000000 1.0
C      1  0.4681430000000  0.4594460000000  0.5085400000000 1.0
C      1  0.5017840000000  0.4836730000000  0.5605300000000 1.0
C      1  0.3928860000000  0.5307180000000  0.5255990000000 1.0
C      1  0.5627450000000  0.4912160000000  0.5527830000000 1.0
C      1  0.6071230000000  0.5375660000000  0.5222050000000 1.0
C      1  0.4717330000000  0.4831540000000  0.5681530000000 1.0
C      1  0.5096770000000  0.5297560000000  0.4617340000000 1.0
C      1  0.4060330000000  0.5257630000000  0.4769850000000 1.0
C      1  0.5512870000000  0.5831460000000  0.5454370000000 1.0
C      1  0.5081280000000  0.4632390000000  0.4903100000000 1.0
C      1  0.5069000000000  0.5955100000000  0.5242020000000 1.0
C      1  0.4358410000000  0.4430350000000  0.4232650000000 1.0
C      1  0.4265880000000  0.4508010000000  0.4772840000000 1.0
C      1  0.5102740000000  0.5224740000000  0.5230910000000 1.0
C      1  0.4572650000000  0.4925760000000  0.5417130000000 1.0
C      1  0.5213270000000  0.4805170000000  0.4272480000000 1.0
C      1  0.4594370000000  0.5340430000000  0.4529060000000 1.0
C      1  0.4724150000000  0.4381480000000  0.4655580000000 1.0
C      1  0.6091360000000  0.4462260000000  0.5035530000000 1.0
C      1  0.4639360000000  0.4046190000000  0.4386110000000 1.0
C      1  0.4455860000000  0.5100400000000  0.4651840000000 1.0
C      1  0.5384680000000  0.4030260000000  0.4536940000000 1.0
C      1  0.5296660000000  0.4273890000000  0.4174990000000 1.0
C      1  0.5314700000000  0.5439070000000  0.5159730000000 1.0
C      1  0.5182260000000  0.5415030000000  0.5789620000000 1.0
C      1  0.5687600000000  0.4857140000000  0.4249370000000 1.0
C      1  0.4660220000000  0.5720650000000  0.4523200000000 1.0
C      1  0.4527520000000  0.4058030000000  0.4792640000000 1.0
C      1  0.5019380000000  0.5696220000000  0.4224500000000 1.0
C      1  0.5072120000000  0.6034480000000  0.4557810000000 1.0
C      1  0.4675940000000  0.5037240000000  0.5908690000000 1.0
C      1  0.4293800000000  0.4229220000000  0.5199130000000 1.0
C      1  0.6072790000000  0.4785110000000  0.4691010000000 1.0
C      1  0.5416320000000  0.5531420000000  0.5433390000000 1.0
C      1  0.4911890000000  0.4228460000000  0.4863260000000 1.0
C      1  0.4176960000000  0.5050280000000  0.4573790000000 1.0
C      1  0.5162780000000  0.4300970000000  0.5664180000000 1.0
C      1  0.4188780000000  0.5724570000000  0.4930810000000 1.0
C      1  0.5057990000000  0.5082300000000  0.4815910000000 1.0
C      1  0.4480090000000  0.5218830000000  0.5448300000000 1.0
C      1  0.4066520000000  0.4507900000000  0.5497850000000 1.0
C      1  0.5510800000000  0.4976800000000  0.4555790000000 1.0
C      1  0.4395680000000  0.5407820000000  0.4297470000000 1.0
C      1  0.5148820000000  0.4928250000000  0.6019180000000 1.0
C      1  0.5323000000000  0.4757150000000  0.4532450000000 1.0
C      1  0.6020370000000  0.4513210000000  0.4762660000000 1.0
C      1  0.4375790000000  0.5933230000000  0.4829400000000 1.0
C      1  0.5136940000000  0.5123550000000  0.5545330000000 1.0
C      1  0.5354650000000  0.4965190000000  0.3886290000000 1.0
C      1  0.5647090000000  0.5077470000000  0.5271830000000 1.0
C      1  0.5861340000000  0.5013520000000  0.5925310000000 1.0
C      1  0.5537610000000  0.5590980000000  0.4255000000000 1.0
C      1  0.4762630000000  0.5641840000000  0.4800580000000 1.0
C      1  0.4568520000000  0.4950320000000  0.4006580000000 1.0
C      1  0.4887090000000  0.5439840000000  0.4157370000000 1.0
C      1  0.4652790000000  0.4885390000000  0.4685940000000 1.0
C      1  0.5404850000000  0.5860850000000  0.5729350000000 1.0
C      1  0.5255970000000  0.3908260000000  0.4999640000000 1.0
C      1  0.5301030000000  0.4445630000000  0.5938470000000 1.0
C      1  0.4312660000000  0.5164170000000  0.5955640000000 1.0
C      1  0.4135300000000  0.5195300000000  0.5056370000000 1.0
C      1  0.5070730000000  0.5596370000000  0.4748130000000 1.0
C      1  0.4214490000000  0.5160250000000  0.4286870000000 1.0
C      1  0.4974310000000  0.5390510000000  0.6010000000000 1.0
C      1  0.5554290000000  0.4284690000000  0.5263190000000 1.0
C      1  0.5157540000000  0.4474800000000  0.5255960000000 1.0
C      1  0.5636820000000  0.5822620000000  0.4533220000000 1.0
C      1  0.5851500000000  0.5569460000000  0.5247630000000 1.0
C      1  0.4862370000000  0.4361110000000  0.5153020000000 1.0
C      1  0.4748400000000  0.4033400000000  0.5332100000000 1.0
C      1  0.4788530000000  0.5043520000000  0.4936290000000 1.0
C      1  0.5181930000000  0.4032880000000  0.5239310000000 1.0
C      1  0.5577340000000  0.5376990000000  0.4958680000000 1.0
C      1  0.4974610000000  0.6147520000000  0.4793490000000 1.0
C      1  0.3930930000000  0.4550260000000  0.5226290000000 1.0
C      1  0.5509820000000  0.5431720000000  0.5901170000000 1.0
C      1  0.5087140000000  0.5337430000000  0.3968940000000 1.0
C      1  0.5891240000000  0.4894900000000  0.5669820000000 1.0
C      1  0.5324750000000  0.5191660000000  0.4085190000000 1.0
C      1  0.5898970000000  0.4637760000000  0.5177920000000 1.0
C      1  0.5547310000000  0.5719060000000  0.5925960000000 1.0
C      1  0.5375480000000  0.5248960000000  0.4479870000000 1.0
C      1  0.5270610000000  0.5655150000000  0.4358100000000 1.0
C      1  0.4749440000000  0.4861080000000  0.5178580000000 1.0
C      1  0.5410480000000  0.5056480000000  0.5956370000000 1.0
C      1  0.5371700000000  0.4470470000000  0.3971220000000 1.0
C      1  0.4861420000000  0.3990660000000  0.4553280000000 1.0
C      1  0.5871860000000  0.5232020000000  0.4548090000000 1.0
C      1  0.4306880000000  0.4634370000000  0.5864730000000 1.0
C      1  0.5703900000000  0.4467910000000  0.4792870000000 1.0
C      1  0.4171130000000  0.5488360000000  0.5663190000000 1.0
C      1  0.4857370000000  0.4225540000000  0.5570210000000 1.0
C      1  0.4162710000000  0.4903330000000  0.5096830000000 1.0
C      1  0.4885030000000  0.4512970000000  0.4455330000000 1.0
C      1  0.4623300000000  0.4313280000000  0.5713490000000 1.0
C      1  0.5269130000000  0.4724770000000  0.5111870000000 1.0
C      1  0.5386030000000  0.5006030000000  0.5093050000000 1.0
C      1  0.4397180000000  0.5328460000000  0.5153890000000 1.0
C      1  0.5820440000000  0.5723120000000  0.4730020000000 1.0
C      1  0.5608010000000  0.4233780000000  0.4967120000000 1.0
C      1  0.4069170000000  0.4705510000000  0.5733330000000 1.0
C      1  0.5144700000000  0.4647010000000  0.6058490000000 1.0
C      1  0.5199440000000  0.5670750000000  0.5016180000000 1.0
C      1  0.3876980000000  0.4837510000000  0.5156380000000 1.0
C      1  0.4335760000000  0.4923050000000  0.4166150000000 1.0
C      1  0.5436560000000  0.4753830000000  0.4077730000000 1.0
C      1  0.4411140000000  0.4210110000000  0.4392790000000 1.0
C      1  0.4921630000000  0.5108380000000  0.6057160000000 1.0
C      1  0.4868590000000  0.6064160000000  0.5034590000000 1.0
C      1  0.5315630000000  0.5847510000000  0.4573630000000 1.0
C      1  0.6099120000000  0.5290560000000  0.5508150000000 1.0
C      1  0.4963010000000  0.5791270000000  0.5466830000000 1.0
C      1  0.5093520000000  0.4822270000000  0.4699020000000 1.0
C      1  0.5620600000000  0.4991580000000  0.4847960000000 1.0
C      1  0.5626640000000  0.4856670000000  0.6024350000000 1.0
C      1  0.4403090000000  0.5867880000000  0.4535590000000 1.0
C      1  0.4524630000000  0.4082740000000  0.5099380000000 1.0
C      1  0.4597460000000  0.5441800000000  0.4048440000000 1.0
C      1  0.4086090000000  0.4958880000000  0.5561320000000 1.0
C      1  0.5726400000000  0.4478530000000  0.5390070000000 1.0
C      1  0.4869010000000  0.5415570000000  0.5167130000000 1.0
C      1  0.5071830000000  0.4682350000000  0.3611090000000 1.0
C      1  0.4738440000000  0.4942160000000  0.4348470000000 1.0
C      1  0.5631840000000  0.5403300000000  0.4639640000000 1.0
C      1  0.5155120000000  0.5698540000000  0.5673350000000 1.0
C      1  0.4546740000000  0.5760410000000  0.5247380000000 1.0
C      1  0.5979530000000  0.5128230000000  0.5059750000000 1.0
C      1  0.4142560000000  0.4722690000000  0.4573350000000 1.0
C      1  0.4573690000000  0.4587640000000  0.5787100000000 1.0
C      1  0.4267810000000  0.4680640000000  0.4310500000000 1.0
C      1  0.4935530000000  0.5169240000000  0.3785400000000 1.0
C      1  0.4872170000000  0.5886460000000  0.4386010000000 1.0
C      1  0.5355120000000  0.4141770000000  0.5444740000000 1.0
C      1  0.4067300000000  0.5549880000000  0.5398910000000 1.0
C      1  0.6103360000000  0.4999810000000  0.5504730000000 1.0
C      1  0.6047920000000  0.4899100000000  0.5233730000000 1.0
END
