TITL C-950533-5798-524 -2.85377355252078e-06 125000 -1142.82096412674 0 0 183 (C1) n - 1
REM
REM in /home/bkarasulu/work/CARBON/AIRSS/Generating-Clusters/EDIP-Nigel-Params/with-SteepDescent/Only-C1/SD-CG/HFTN-CG
REM
REM
REM
REM
REM
REM ./C.cell (11c1c37f851c82e70ff6c80c92926a4b)
REM
REM compiler GCC version 9.2.1 20190827 (Red Hat 9.2.1-1)
REM options -cpp -mtune=generic -march=x86-64 -g -O0 -fpre-include=/usr/include/finclude/math-vector-fortran.h
REM seed -1681155320 -1026920347 1480597941 1993615036 -76270479 -158759916 1047707876 -1272095022 851234681 -1942335207 283843532 -737605568 1100470103 -1764942403 90203126 -1476277371 -1774781927 -1812945369 -546985971 991249935 1248796632 1530102336 -227109120 -1234259702 1225309678 -725902791 1114781650 -792968196 1454066883 323612838 -1593217462 -734202642 874872279
REM
CELL 1.54180   50.00000   50.00000   50.00000   90.00000   90.00000   90.00000
LATT -1
SFAC C  
C      1  0.6140890000000  0.4867400000000  0.4543750000000 1.0
C      1  0.4750540000000  0.4956450000000  0.4592350000000 1.0
C      1  0.4570620000000  0.5326860000000  0.4246600000000 1.0
C      1  0.4601900000000  0.5824360000000  0.5580800000000 1.0
C      1  0.5009910000000  0.4986110000000  0.4464380000000 1.0
C      1  0.5738920000000  0.5012940000000  0.4978690000000 1.0
C      1  0.5014010000000  0.5176440000000  0.4984210000000 1.0
C      1  0.4506460000000  0.5086260000000  0.4426760000000 1.0
C      1  0.5184230000000  0.4124280000000  0.4414220000000 1.0
C      1  0.4651800000000  0.6034820000000  0.4835350000000 1.0
C      1  0.6064530000000  0.4573180000000  0.5384250000000 1.0
C      1  0.5040920000000  0.5972950000000  0.4546800000000 1.0
C      1  0.4778010000000  0.5899480000000  0.5805210000000 1.0
C      1  0.4406870000000  0.4119770000000  0.4794060000000 1.0
C      1  0.5238840000000  0.4864680000000  0.4593880000000 1.0
C      1  0.5431130000000  0.5762170000000  0.5225680000000 1.0
C      1  0.5836340000000  0.4191510000000  0.4711530000000 1.0
C      1  0.5815600000000  0.5463580000000  0.5168040000000 1.0
C      1  0.4303390000000  0.4724080000000  0.4933220000000 1.0
C      1  0.5699910000000  0.4971780000000  0.5836730000000 1.0
C      1  0.5244880000000  0.3863960000000  0.5134730000000 1.0
C      1  0.5115780000000  0.3822960000000  0.4877890000000 1.0
C      1  0.4916660000000  0.4550770000000  0.3943150000000 1.0
C      1  0.5003450000000  0.5223070000000  0.5476420000000 1.0
C      1  0.5787280000000  0.4549280000000  0.4940430000000 1.0
C      1  0.5684350000000  0.4083490000000  0.5043180000000 1.0
C      1  0.5416830000000  0.5094980000000  0.4645320000000 1.0
C      1  0.5169670000000  0.5385570000000  0.6090450000000 1.0
C      1  0.4095780000000  0.4999400000000  0.5274680000000 1.0
C      1  0.4465060000000  0.5319050000000  0.5936630000000 1.0
C      1  0.4952940000000  0.4807040000000  0.3777420000000 1.0
C      1  0.5769080000000  0.5791020000000  0.4761930000000 1.0
C      1  0.5214060000000  0.6131950000000  0.4990950000000 1.0
C      1  0.4886980000000  0.4055800000000  0.4500050000000 1.0
C      1  0.5202950000000  0.5482620000000  0.4006550000000 1.0
C      1  0.4796960000000  0.4984030000000  0.3998920000000 1.0
C      1  0.4775380000000  0.4554790000000  0.5253280000000 1.0
C      1  0.5971890000000  0.5168770000000  0.5500860000000 1.0
C      1  0.4855980000000  0.4336340000000  0.5441010000000 1.0
C      1  0.5209250000000  0.4815160000000  0.5094590000000 1.0
C      1  0.4045340000000  0.4990670000000  0.5707770000000 1.0
C      1  0.4198410000000  0.4216840000000  0.4972810000000 1.0
C      1  0.4537670000000  0.5253710000000  0.4900490000000 1.0
C      1  0.5174250000000  0.5796780000000  0.4339600000000 1.0
C      1  0.5636670000000  0.4730650000000  0.5998290000000 1.0
C      1  0.5331550000000  0.5595030000000  0.5473410000000 1.0
C      1  0.5031310000000  0.4964160000000  0.4182350000000 1.0
C      1  0.5525320000000  0.5601230000000  0.5862410000000 1.0
C      1  0.4375200000000  0.5763010000000  0.4228850000000 1.0
C      1  0.4950390000000  0.5578950000000  0.5180670000000 1.0
C      1  0.5050220000000  0.6007960000000  0.5713520000000 1.0
C      1  0.5475330000000  0.5801940000000  0.4370610000000 1.0
C      1  0.4734030000000  0.5406010000000  0.5968550000000 1.0
C      1  0.4080430000000  0.5254540000000  0.5631840000000 1.0
C      1  0.4736440000000  0.5727190000000  0.5048260000000 1.0
C      1  0.4483770000000  0.4250290000000  0.5669120000000 1.0
C      1  0.5572770000000  0.4490450000000  0.5808630000000 1.0
C      1  0.4721740000000  0.5273430000000  0.4002030000000 1.0
C      1  0.3983040000000  0.4896090000000  0.4552420000000 1.0
C      1  0.5513790000000  0.4011810000000  0.5492330000000 1.0
C      1  0.5393920000000  0.5694200000000  0.4793550000000 1.0
C      1  0.5133730000000  0.4153290000000  0.5085400000000 1.0
C      1  0.5578430000000  0.4351150000000  0.5034150000000 1.0
C      1  0.3747250000000  0.4804670000000  0.5000900000000 1.0
C      1  0.5088770000000  0.5507940000000  0.4370030000000 1.0
C      1  0.5619700000000  0.4280400000000  0.4526780000000 1.0
C      1  0.4507660000000  0.4646610000000  0.5374730000000 1.0
C      1  0.5423950000000  0.5338340000000  0.5957740000000 1.0
C      1  0.4756020000000  0.5060610000000  0.4876580000000 1.0
C      1  0.5632050000000  0.5549610000000  0.4360280000000 1.0
C      1  0.5626470000000  0.5268690000000  0.5052100000000 1.0
C      1  0.4365320000000  0.5915660000000  0.5185380000000 1.0
C      1  0.4156710000000  0.4428140000000  0.4491970000000 1.0
C      1  0.4898280000000  0.4947540000000  0.5522260000000 1.0
C      1  0.5692270000000  0.4988980000000  0.4684590000000 1.0
C      1  0.5307280000000  0.4337170000000  0.4895410000000 1.0
C      1  0.3939520000000  0.5327860000000  0.5400580000000 1.0
C      1  0.5729840000000  0.5049770000000  0.4252640000000 1.0
C      1  0.5261900000000  0.6007170000000  0.5234710000000 1.0
C      1  0.5849980000000  0.4906980000000  0.5590410000000 1.0
C      1  0.4329120000000  0.5484730000000  0.4191720000000 1.0
C      1  0.4626110000000  0.5533200000000  0.4828450000000 1.0
C      1  0.6137160000000  0.5136810000000  0.5261530000000 1.0
C      1  0.4164100000000  0.4756160000000  0.5773260000000 1.0
C      1  0.5533160000000  0.3901920000000  0.5227100000000 1.0
C      1  0.5337690000000  0.4706200000000  0.6037140000000 1.0
C      1  0.5561160000000  0.4405010000000  0.4249540000000 1.0
C      1  0.5307460000000  0.5277340000000  0.5465030000000 1.0
C      1  0.3883640000000  0.5583160000000  0.5010000000000 1.0
C      1  0.6019260000000  0.4649040000000  0.5121820000000 1.0
C      1  0.3921480000000  0.4599650000000  0.4554810000000 1.0
C      1  0.4893950000000  0.5307580000000  0.5219110000000 1.0
C      1  0.4927950000000  0.5210260000000  0.6075500000000 1.0
C      1  0.5383320000000  0.5264520000000  0.4017880000000 1.0
C      1  0.4362870000000  0.4104070000000  0.4510840000000 1.0
C      1  0.5333210000000  0.4695890000000  0.4359630000000 1.0
C      1  0.5712820000000  0.4692900000000  0.4666110000000 1.0
C      1  0.5274670000000  0.4329510000000  0.5827080000000 1.0
C      1  0.4017390000000  0.4515530000000  0.5289110000000 1.0
C      1  0.5722220000000  0.5576010000000  0.5667610000000 1.0
C      1  0.4542490000000  0.4023910000000  0.5220970000000 1.0
C      1  0.5292430000000  0.4975830000000  0.4020340000000 1.0
C      1  0.4963700000000  0.4934010000000  0.5958320000000 1.0
C      1  0.5045370000000  0.5669840000000  0.5430780000000 1.0
C      1  0.4312560000000  0.5407060000000  0.5709560000000 1.0
C      1  0.5068490000000  0.5399170000000  0.4792760000000 1.0
C      1  0.4359100000000  0.5661280000000  0.5581240000000 1.0
C      1  0.5126330000000  0.4256420000000  0.5372610000000 1.0
C      1  0.3837190000000  0.4559810000000  0.4843380000000 1.0
C      1  0.4170100000000  0.5418650000000  0.4645010000000 1.0
C      1  0.4294830000000  0.4893580000000  0.4163240000000 1.0
C      1  0.4540140000000  0.5768610000000  0.4458410000000 1.0
C      1  0.5974650000000  0.4614500000000  0.4546540000000 1.0
C      1  0.6034440000000  0.4937780000000  0.5054360000000 1.0
C      1  0.5085960000000  0.4524550000000  0.4221060000000 1.0
C      1  0.4631400000000  0.5975720000000  0.5326960000000 1.0
C      1  0.4636890000000  0.4539600000000  0.4047070000000 1.0
C      1  0.4368150000000  0.4853300000000  0.5201670000000 1.0
C      1  0.5559040000000  0.4795470000000  0.4163930000000 1.0
C      1  0.4161840000000  0.4956760000000  0.4780970000000 1.0
C      1  0.4309420000000  0.4401940000000  0.5447750000000 1.0
C      1  0.4347170000000  0.5175250000000  0.4687940000000 1.0
C      1  0.4446460000000  0.5048630000000  0.5991110000000 1.0
C      1  0.5157590000000  0.4650790000000  0.4838400000000 1.0
C      1  0.6048000000000  0.4694790000000  0.5624390000000 1.0
C      1  0.4381270000000  0.5933770000000  0.4888800000000 1.0
C      1  0.3988750000000  0.5570200000000  0.5264880000000 1.0
C      1  0.4935730000000  0.5444550000000  0.3970250000000 1.0
C      1  0.3879000000000  0.4779760000000  0.5278050000000 1.0
C      1  0.4240260000000  0.5691920000000  0.5322050000000 1.0
C      1  0.4084270000000  0.5044180000000  0.4306590000000 1.0
C      1  0.5357760000000  0.5193390000000  0.5171610000000 1.0
C      1  0.5572980000000  0.5959420000000  0.4600160000000 1.0
C      1  0.4563420000000  0.4817190000000  0.4082010000000 1.0
C      1  0.5225250000000  0.4880010000000  0.3754040000000 1.0
C      1  0.4639980000000  0.4744300000000  0.5648150000000 1.0
C      1  0.4989740000000  0.4452400000000  0.5926160000000 1.0
C      1  0.5802520000000  0.5406890000000  0.5462270000000 1.0
C      1  0.4532550000000  0.4615130000000  0.4757880000000 1.0
C      1  0.6177360000000  0.5288920000000  0.4814840000000 1.0
C      1  0.3971790000000  0.5081870000000  0.4969280000000 1.0
C      1  0.5279170000000  0.4293840000000  0.4186250000000 1.0
C      1  0.5310260000000  0.5400030000000  0.4622090000000 1.0
C      1  0.4731290000000  0.5985260000000  0.4559180000000 1.0
C      1  0.5833990000000  0.5567630000000  0.4565890000000 1.0
C      1  0.4756790000000  0.4456380000000  0.5722730000000 1.0
C      1  0.4389860000000  0.5678510000000  0.4703640000000 1.0
C      1  0.5971450000000  0.5094070000000  0.4433330000000 1.0
C      1  0.4885870000000  0.4443650000000  0.4449860000000 1.0
C      1  0.5606070000000  0.5306710000000  0.4190280000000 1.0
C      1  0.5021950000000  0.4736850000000  0.5336140000000 1.0
C      1  0.5105290000000  0.5668620000000  0.6048810000000 1.0
C      1  0.5181840000000  0.5922870000000  0.4806190000000 1.0
C      1  0.4426130000000  0.4813540000000  0.5847130000000 1.0
C      1  0.4818060000000  0.5684830000000  0.6008030000000 1.0
C      1  0.6049090000000  0.4381830000000  0.4704070000000 1.0
C      1  0.5012950000000  0.5965640000000  0.5413230000000 1.0
C      1  0.5369300000000  0.4182350000000  0.4635820000000 1.0
C      1  0.5277350000000  0.4136880000000  0.5587450000000 1.0
C      1  0.4848200000000  0.4601670000000  0.4713530000000 1.0
C      1  0.5532320000000  0.4843150000000  0.5144110000000 1.0
C      1  0.5224480000000  0.4877990000000  0.5814680000000 1.0
C      1  0.4421070000000  0.4544600000000  0.4496990000000 1.0
C      1  0.4670440000000  0.4096310000000  0.5476140000000 1.0
C      1  0.4089970000000  0.4496020000000  0.4995750000000 1.0
C      1  0.5968860000000  0.5323340000000  0.4619930000000 1.0
C      1  0.4849020000000  0.5495620000000  0.4625490000000 1.0
C      1  0.5699370000000  0.5729610000000  0.5081800000000 1.0
C      1  0.4606830000000  0.4114990000000  0.4348720000000 1.0
C      1  0.3945140000000  0.5369520000000  0.4845350000000 1.0
C      1  0.6221220000000  0.4985390000000  0.4815940000000 1.0
C      1  0.4622140000000  0.4412280000000  0.4318430000000 1.0
C      1  0.4956230000000  0.4679250000000  0.6109150000000 1.0
C      1  0.5198510000000  0.4635740000000  0.5592750000000 1.0
C      1  0.5432530000000  0.5112980000000  0.5759620000000 1.0
C      1  0.5615040000000  0.4811660000000  0.5424830000000 1.0
C      1  0.4879690000000  0.3960570000000  0.4784740000000 1.0
C      1  0.4298630000000  0.4173450000000  0.5241650000000 1.0
C      1  0.5486480000000  0.4582740000000  0.5532730000000 1.0
C      1  0.4111140000000  0.5356860000000  0.4352660000000 1.0
C      1  0.4632620000000  0.4006410000000  0.4934910000000 1.0
C      1  0.6112840000000  0.5386060000000  0.5093350000000 1.0
C      1  0.5258660000000  0.5779000000000  0.5808500000000 1.0
END
