TITL C-950522-5749-486 5.98210152030059e-07 125000 -361.749876874685 0 0 59 (C1) n - 1
REM
REM in /home/bkarasulu/work/CARBON/AIRSS/Generating-Clusters/EDIP-Nigel-Params/with-SteepDescent/Only-C1/SD-CG/HFTN-CG
REM
REM
REM
REM
REM
REM ./C.cell (11c1c37f851c82e70ff6c80c92926a4b)
REM
REM compiler GCC version 9.2.1 20190827 (Red Hat 9.2.1-1)
REM options -cpp -mtune=generic -march=x86-64 -g -O0 -fpre-include=/usr/include/finclude/math-vector-fortran.h
REM seed 1082772597 1968974611 158493221 2115368110 75384388 -814074202 1187972981 929480411 -303228786 24426948 1118819726 2076272048 1390026271 -786837794 576279293 -170625149 -1210100329 -1089302710 -1124463986 454625181 483768521 1725593038 -202502677 1532967777 -537570959 -911152915 2115807537 1222382875 -116822190 1242045837 -1767001095 -1860035585 -2001896498
REM
CELL 1.54180   50.00000   50.00000   50.00000   90.00000   90.00000   90.00000
LATT -1
SFAC C  
C      1  0.5367340000000  0.4986700000000  0.4349970000000 1.0
C      1  0.5322020000000  0.4725140000000  0.4446170000000 1.0
C      1  0.4374920000000  0.5074680000000  0.4951900000000 1.0
C      1  0.4813760000000  0.5545160000000  0.4642130000000 1.0
C      1  0.4643100000000  0.5087230000000  0.4472580000000 1.0
C      1  0.4874940000000  0.4987630000000  0.4319490000000 1.0
C      1  0.4601380000000  0.4629210000000  0.4857200000000 1.0
C      1  0.5558960000000  0.5166670000000  0.4494560000000 1.0
C      1  0.5176250000000  0.4531030000000  0.5417480000000 1.0
C      1  0.4410970000000  0.5334130000000  0.4828380000000 1.0
C      1  0.5305990000000  0.4406290000000  0.4824720000000 1.0
C      1  0.4654280000000  0.4522410000000  0.5131970000000 1.0
C      1  0.5416360000000  0.4596610000000  0.5273380000000 1.0
C      1  0.4900660000000  0.5068000000000  0.4828920000000 1.0
C      1  0.4986980000000  0.5197380000000  0.5728480000000 1.0
C      1  0.4597360000000  0.4421690000000  0.4634520000000 1.0
C      1  0.5263440000000  0.5387100000000  0.5118890000000 1.0
C      1  0.4310700000000  0.5087840000000  0.5233770000000 1.0
C      1  0.5158000000000  0.5092510000000  0.5140400000000 1.0
C      1  0.5719600000000  0.5252900000000  0.5068410000000 1.0
C      1  0.5042990000000  0.4292060000000  0.5353140000000 1.0
C      1  0.5615070000000  0.5030120000000  0.4778710000000 1.0
C      1  0.5026450000000  0.4727010000000  0.5562780000000 1.0
C      1  0.5027190000000  0.4303480000000  0.4852350000000 1.0
C      1  0.5022440000000  0.5657910000000  0.4798010000000 1.0
C      1  0.5732450000000  0.4975780000000  0.5141950000000 1.0
C      1  0.4780150000000  0.5406960000000  0.5171290000000 1.0
C      1  0.4872540000000  0.4347660000000  0.4610790000000 1.0
C      1  0.4898860000000  0.4358850000000  0.5118380000000 1.0
C      1  0.4573270000000  0.4661260000000  0.5380690000000 1.0
C      1  0.5122350000000  0.5144550000000  0.4323360000000 1.0
C      1  0.5386780000000  0.5477840000000  0.5696420000000 1.0
C      1  0.4719840000000  0.5248030000000  0.5667090000000 1.0
C      1  0.5142420000000  0.5418940000000  0.5789730000000 1.0
C      1  0.4876720000000  0.4768160000000  0.4760400000000 1.0
C      1  0.5360930000000  0.5369150000000  0.4839090000000 1.0
C      1  0.4877160000000  0.4704060000000  0.4443060000000 1.0
C      1  0.4440150000000  0.5511920000000  0.5054460000000 1.0
C      1  0.5507850000000  0.4870790000000  0.5284570000000 1.0
C      1  0.5371750000000  0.5419970000000  0.4441060000000 1.0
C      1  0.4439420000000  0.4871020000000  0.4507050000000 1.0
C      1  0.4624280000000  0.5337960000000  0.4628880000000 1.0
C      1  0.5340400000000  0.4910200000000  0.4876770000000 1.0
C      1  0.4756050000000  0.4665020000000  0.5592260000000 1.0
C      1  0.4641690000000  0.5419150000000  0.5459030000000 1.0
C      1  0.5520340000000  0.5310970000000  0.5513970000000 1.0
C      1  0.5227920000000  0.4675100000000  0.4712250000000 1.0
C      1  0.4377180000000  0.4860290000000  0.5383080000000 1.0
C      1  0.4570110000000  0.4615340000000  0.4405400000000 1.0
C      1  0.4371250000000  0.5375700000000  0.5317950000000 1.0
C      1  0.5182570000000  0.5136420000000  0.4721780000000 1.0
C      1  0.4373480000000  0.4826590000000  0.4798340000000 1.0
C      1  0.5299490000000  0.5615390000000  0.4677610000000 1.0
C      1  0.5023080000000  0.5579840000000  0.5093840000000 1.0
C      1  0.5403860000000  0.5037470000000  0.5497330000000 1.0
C      1  0.4862200000000  0.5123700000000  0.5117500000000 1.0
C      1  0.5462500000000  0.4426810000000  0.5057490000000 1.0
C      1  0.5544960000000  0.5420910000000  0.5239150000000 1.0
C      1  0.5124860000000  0.4997320000000  0.5569620000000 1.0
END
