TITL C-951343-2256-458 -8.12941821248796e-06 125000 -549.591945828423 0 0 88 (C1) n - 1
REM
REM in /home/bkarasulu/work/CARBON/AIRSS/Generating-Clusters/EDIP-Nigel-Params/with-SteepDescent/Only-C1/SD-CG/HFTN-CG
REM
REM
REM
REM
REM
REM ./C.cell (11c1c37f851c82e70ff6c80c92926a4b)
REM
REM compiler GCC version 9.2.1 20190827 (Red Hat 9.2.1-1)
REM options -cpp -mtune=generic -march=x86-64 -g -O0 -fpre-include=/usr/include/finclude/math-vector-fortran.h
REM seed 115550220 1625331983 -375023063 1442715718 -1414146675 -932247687 1325690438 -1286844020 1024326984 -1519265599 959488379 -302424826 -554018708 99734478 1805844493 -474935677 618843736 756501137 2092103906 -1459506711 818190327 1393353813 1548660643 1641254251 -627222316 2049538873 51853616 -294356944 181019962 400438104 1651993116 1249656564 247578636
REM
CELL 1.54180   50.00000   50.00000   50.00000   90.00000   90.00000   90.00000
LATT -1
SFAC C  
C      1  0.4325590000000  0.5124760000000  0.4630780000000 1.0
C      1  0.5074860000000  0.5279590000000  0.5461480000000 1.0
C      1  0.5674810000000  0.4527080000000  0.4451220000000 1.0
C      1  0.5140050000000  0.4161940000000  0.4857030000000 1.0
C      1  0.5197520000000  0.4500450000000  0.4357790000000 1.0
C      1  0.4700240000000  0.4812060000000  0.4512980000000 1.0
C      1  0.4720070000000  0.5207060000000  0.5888880000000 1.0
C      1  0.5210330000000  0.4785000000000  0.4457440000000 1.0
C      1  0.5112590000000  0.5182410000000  0.4183330000000 1.0
C      1  0.5537520000000  0.5342750000000  0.5555590000000 1.0
C      1  0.4876320000000  0.5777650000000  0.5458560000000 1.0
C      1  0.5562100000000  0.5159930000000  0.4958960000000 1.0
C      1  0.5560710000000  0.4402340000000  0.4965690000000 1.0
C      1  0.5134880000000  0.5736540000000  0.5313490000000 1.0
C      1  0.4626960000000  0.5686060000000  0.5012450000000 1.0
C      1  0.5319350000000  0.4993970000000  0.4264450000000 1.0
C      1  0.4467750000000  0.4871570000000  0.4739280000000 1.0
C      1  0.5444760000000  0.4358090000000  0.4465470000000 1.0
C      1  0.4163770000000  0.4723070000000  0.5091470000000 1.0
C      1  0.4401520000000  0.5165690000000  0.4352960000000 1.0
C      1  0.4421140000000  0.5424390000000  0.4641850000000 1.0
C      1  0.5119240000000  0.5538420000000  0.4459920000000 1.0
C      1  0.5108620000000  0.5442480000000  0.5719760000000 1.0
C      1  0.5083450000000  0.5706650000000  0.4698960000000 1.0
C      1  0.5799350000000  0.5205350000000  0.4780800000000 1.0
C      1  0.4691270000000  0.4146420000000  0.5275030000000 1.0
C      1  0.5723750000000  0.4732410000000  0.4637980000000 1.0
C      1  0.5636850000000  0.4681170000000  0.4911370000000 1.0
C      1  0.4682110000000  0.5169900000000  0.5110410000000 1.0
C      1  0.4882720000000  0.5637320000000  0.5736420000000 1.0
C      1  0.4386780000000  0.5285340000000  0.5092270000000 1.0
C      1  0.5138730000000  0.4618050000000  0.5672100000000 1.0
C      1  0.4774040000000  0.4934720000000  0.5842510000000 1.0
C      1  0.4944210000000  0.4240760000000  0.5346820000000 1.0
C      1  0.5156970000000  0.5445930000000  0.5215950000000 1.0
C      1  0.5525440000000  0.4427510000000  0.5456830000000 1.0
C      1  0.4574170000000  0.5401540000000  0.5478840000000 1.0
C      1  0.5377670000000  0.5570710000000  0.5672770000000 1.0
C      1  0.5334910000000  0.5136380000000  0.5480160000000 1.0
C      1  0.5746380000000  0.5491780000000  0.4694970000000 1.0
C      1  0.4654690000000  0.5035200000000  0.4317200000000 1.0
C      1  0.4947360000000  0.4482280000000  0.5504800000000 1.0
C      1  0.5600020000000  0.5446460000000  0.4438950000000 1.0
C      1  0.4929580000000  0.4380380000000  0.4437540000000 1.0
C      1  0.4292820000000  0.5309970000000  0.5376080000000 1.0
C      1  0.4776510000000  0.5183070000000  0.5400530000000 1.0
C      1  0.4382810000000  0.5530010000000  0.4928310000000 1.0
C      1  0.5333700000000  0.5750540000000  0.4815440000000 1.0
C      1  0.4641750000000  0.5453010000000  0.5770930000000 1.0
C      1  0.4709990000000  0.5438720000000  0.4604720000000 1.0
C      1  0.5391910000000  0.4663740000000  0.5526060000000 1.0
C      1  0.5117170000000  0.4886230000000  0.5152020000000 1.0
C      1  0.4920420000000  0.4333010000000  0.4734200000000 1.0
C      1  0.4651470000000  0.5653350000000  0.5316360000000 1.0
C      1  0.4185990000000  0.5060370000000  0.5448070000000 1.0
C      1  0.4192780000000  0.4458270000000  0.4678100000000 1.0
C      1  0.4985830000000  0.4595210000000  0.4844190000000 1.0
C      1  0.4847530000000  0.5557430000000  0.4829720000000 1.0
C      1  0.5330470000000  0.5331510000000  0.4528280000000 1.0
C      1  0.5078240000000  0.5056170000000  0.4890500000000 1.0
C      1  0.5349710000000  0.5790070000000  0.5491460000000 1.0
C      1  0.5165240000000  0.4224680000000  0.5152070000000 1.0
C      1  0.5326120000000  0.5160570000000  0.4783180000000 1.0
C      1  0.5370740000000  0.4888910000000  0.5316000000000 1.0
C      1  0.4662330000000  0.4643170000000  0.5170600000000 1.0
C      1  0.4503910000000  0.4708930000000  0.5425830000000 1.0
C      1  0.5609590000000  0.5140060000000  0.4332560000000 1.0
C      1  0.4864350000000  0.5425820000000  0.4358030000000 1.0
C      1  0.4420800000000  0.4317620000000  0.4656060000000 1.0
C      1  0.5419290000000  0.4353540000000  0.5210300000000 1.0
C      1  0.5566150000000  0.5624240000000  0.4908730000000 1.0
C      1  0.4638270000000  0.4257440000000  0.4821340000000 1.0
C      1  0.5594520000000  0.4901390000000  0.5109420000000 1.0
C      1  0.4941260000000  0.5321040000000  0.4996780000000 1.0
C      1  0.4600810000000  0.4803440000000  0.5670420000000 1.0
C      1  0.4979870000000  0.4834360000000  0.4660740000000 1.0
C      1  0.4587120000000  0.4339550000000  0.5098760000000 1.0
C      1  0.5779110000000  0.5009710000000  0.4551570000000 1.0
C      1  0.4635980000000  0.4894440000000  0.4989740000000 1.0
C      1  0.4844630000000  0.5118870000000  0.4121220000000 1.0
C      1  0.4237860000000  0.4800090000000  0.5352820000000 1.0
C      1  0.4977480000000  0.4624910000000  0.5147250000000 1.0
C      1  0.5502340000000  0.5415720000000  0.5120270000000 1.0
C      1  0.5693570000000  0.5431630000000  0.5339380000000 1.0
C      1  0.4710070000000  0.4553290000000  0.4376500000000 1.0
C      1  0.5412200000000  0.4250780000000  0.4749600000000 1.0
C      1  0.5034050000000  0.4835220000000  0.5819370000000 1.0
C      1  0.4242060000000  0.4690380000000  0.4823000000000 1.0
END
