TITL C-950536-5891-517 1.01162552702645e-06 125000 -712.480031642736 0 0 114 (C1) n - 1
REM
REM in /home/bkarasulu/work/CARBON/AIRSS/Generating-Clusters/EDIP-Nigel-Params/with-SteepDescent/Only-C1/SD-CG/HFTN-CG
REM
REM
REM
REM
REM
REM ./C.cell (11c1c37f851c82e70ff6c80c92926a4b)
REM
REM compiler GCC version 9.2.1 20190827 (Red Hat 9.2.1-1)
REM options -cpp -mtune=generic -march=x86-64 -g -O0 -fpre-include=/usr/include/finclude/math-vector-fortran.h
REM seed 1173416567 1608959846 -1322584183 -725991615 -284682537 -369324532 -1368912777 -846194765 -169031200 1321563896 793202135 2057677870 695079918 1677599819 -740702799 1477111963 386359195 1041184433 -1246438744 1299646004 75548880 95255847 456318386 1159843375 -334307201 -802749251 1384854390 1543856815 -1404081434 -74977808 -1685221231 1923994138 -92403242
REM
CELL 1.54180   50.00000   50.00000   50.00000   90.00000   90.00000   90.00000
LATT -1
SFAC C  
C      1  0.4923270000000  0.4686900000000  0.5471420000000 1.0
C      1  0.5117000000000  0.5106750000000  0.4840430000000 1.0
C      1  0.5509600000000  0.5153800000000  0.5094380000000 1.0
C      1  0.5317590000000  0.4923140000000  0.4730040000000 1.0
C      1  0.4950770000000  0.5348560000000  0.4459190000000 1.0
C      1  0.4293800000000  0.4917190000000  0.4421470000000 1.0
C      1  0.5287590000000  0.5344480000000  0.4929470000000 1.0
C      1  0.5208740000000  0.5898570000000  0.4820140000000 1.0
C      1  0.5672600000000  0.5673560000000  0.4983220000000 1.0
C      1  0.4241300000000  0.4543510000000  0.5110560000000 1.0
C      1  0.5299120000000  0.4711420000000  0.4162180000000 1.0
C      1  0.4173990000000  0.4994250000000  0.5244020000000 1.0
C      1  0.4835570000000  0.5594400000000  0.4602530000000 1.0
C      1  0.4579650000000  0.4882310000000  0.4342510000000 1.0
C      1  0.4597500000000  0.5769540000000  0.4996420000000 1.0
C      1  0.4571450000000  0.4802030000000  0.4854900000000 1.0
C      1  0.5220130000000  0.5517750000000  0.5844340000000 1.0
C      1  0.5524940000000  0.4437890000000  0.4875380000000 1.0
C      1  0.4450940000000  0.4803040000000  0.5614910000000 1.0
C      1  0.4817990000000  0.5886150000000  0.5171770000000 1.0
C      1  0.5380610000000  0.5692100000000  0.5696090000000 1.0
C      1  0.4865960000000  0.5131800000000  0.5279150000000 1.0
C      1  0.5262080000000  0.4532870000000  0.5780970000000 1.0
C      1  0.5831300000000  0.4906460000000  0.5537300000000 1.0
C      1  0.4952980000000  0.5021320000000  0.4030920000000 1.0
C      1  0.5394540000000  0.4557400000000  0.4407660000000 1.0
C      1  0.5050350000000  0.4588160000000  0.4065280000000 1.0
C      1  0.5814360000000  0.5236740000000  0.5081120000000 1.0
C      1  0.4225860000000  0.4656620000000  0.4554840000000 1.0
C      1  0.5403000000000  0.4638320000000  0.5075810000000 1.0
C      1  0.5029330000000  0.5808190000000  0.4624600000000 1.0
C      1  0.4904020000000  0.4770890000000  0.3906520000000 1.0
C      1  0.4501150000000  0.4188030000000  0.5137860000000 1.0
C      1  0.5685190000000  0.5155890000000  0.5539660000000 1.0
C      1  0.5491350000000  0.5823060000000  0.4785280000000 1.0
C      1  0.4657100000000  0.5601620000000  0.4366000000000 1.0
C      1  0.5638290000000  0.5609160000000  0.5276090000000 1.0
C      1  0.4706270000000  0.5113990000000  0.4170980000000 1.0
C      1  0.5600100000000  0.5232360000000  0.5806290000000 1.0
C      1  0.5975850000000  0.4989870000000  0.5026670000000 1.0
C      1  0.4675380000000  0.4607500000000  0.5295280000000 1.0
C      1  0.5199940000000  0.4985450000000  0.4193660000000 1.0
C      1  0.4684410000000  0.4298300000000  0.4923680000000 1.0
C      1  0.4632690000000  0.5389620000000  0.4187050000000 1.0
C      1  0.4271910000000  0.5230830000000  0.5441140000000 1.0
C      1  0.4866550000000  0.5016700000000  0.5789090000000 1.0
C      1  0.5005390000000  0.4110790000000  0.4641920000000 1.0
C      1  0.5690570000000  0.4619470000000  0.4452960000000 1.0
C      1  0.5791910000000  0.4853350000000  0.4854870000000 1.0
C      1  0.5751180000000  0.4669060000000  0.5436030000000 1.0
C      1  0.4695110000000  0.5478410000000  0.5790420000000 1.0
C      1  0.4744310000000  0.4883920000000  0.4601250000000 1.0
C      1  0.5423590000000  0.4115960000000  0.5052260000000 1.0
C      1  0.4429720000000  0.5462960000000  0.5351080000000 1.0
C      1  0.4395170000000  0.5091640000000  0.5675780000000 1.0
C      1  0.4601600000000  0.4320270000000  0.5375900000000 1.0
C      1  0.4020530000000  0.5143560000000  0.4772170000000 1.0
C      1  0.4937610000000  0.4140680000000  0.4908680000000 1.0
C      1  0.5624080000000  0.4257660000000  0.5200210000000 1.0
C      1  0.5231380000000  0.4924860000000  0.5498330000000 1.0
C      1  0.4545800000000  0.4304700000000  0.4670030000000 1.0
C      1  0.5062930000000  0.4679480000000  0.5016310000000 1.0
C      1  0.4235680000000  0.5501940000000  0.4912520000000 1.0
C      1  0.5475560000000  0.5779330000000  0.5448310000000 1.0
C      1  0.5060430000000  0.4231150000000  0.4397700000000 1.0
C      1  0.5405470000000  0.5479430000000  0.4669520000000 1.0
C      1  0.5158640000000  0.4489960000000  0.5515340000000 1.0
C      1  0.5641000000000  0.5140890000000  0.4403950000000 1.0
C      1  0.4944320000000  0.4667170000000  0.4547280000000 1.0
C      1  0.4352470000000  0.5649790000000  0.5135300000000 1.0
C      1  0.4420090000000  0.4448110000000  0.4461790000000 1.0
C      1  0.5026510000000  0.4972010000000  0.5077470000000 1.0
C      1  0.4625610000000  0.5200310000000  0.5836610000000 1.0
C      1  0.4458650000000  0.5310720000000  0.4839780000000 1.0
C      1  0.5216170000000  0.4655810000000  0.4659590000000 1.0
C      1  0.4853140000000  0.5443490000000  0.5179520000000 1.0
C      1  0.5764880000000  0.4576500000000  0.4737530000000 1.0
C      1  0.5445300000000  0.5101050000000  0.5379890000000 1.0
C      1  0.5756670000000  0.4883610000000  0.4370290000000 1.0
C      1  0.4076690000000  0.4925890000000  0.4954170000000 1.0
C      1  0.4233300000000  0.4261800000000  0.5105640000000 1.0
C      1  0.5119820000000  0.5821650000000  0.5093560000000 1.0
C      1  0.5090000000000  0.4220380000000  0.5403150000000 1.0
C      1  0.4894300000000  0.5139500000000  0.4655410000000 1.0
C      1  0.5821660000000  0.5442310000000  0.4860350000000 1.0
C      1  0.5665340000000  0.5345690000000  0.4625690000000 1.0
C      1  0.5336260000000  0.4275940000000  0.4362850000000 1.0
C      1  0.4608030000000  0.4576870000000  0.4270710000000 1.0
C      1  0.5243140000000  0.5412260000000  0.4421860000000 1.0
C      1  0.5005030000000  0.5110370000000  0.5537620000000 1.0
C      1  0.4233150000000  0.5154700000000  0.4574010000000 1.0
C      1  0.5379870000000  0.5197970000000  0.4278930000000 1.0
C      1  0.4947540000000  0.5556280000000  0.5886060000000 1.0
C      1  0.5298650000000  0.5930780000000  0.5294570000000 1.0
C      1  0.5341500000000  0.5264180000000  0.5915900000000 1.0
C      1  0.4813860000000  0.5744750000000  0.5421450000000 1.0
C      1  0.4491470000000  0.5048150000000  0.5021580000000 1.0
C      1  0.4903460000000  0.4486570000000  0.4312420000000 1.0
C      1  0.5324990000000  0.4811710000000  0.5768480000000 1.0
C      1  0.5811730000000  0.5375290000000  0.5363090000000 1.0
C      1  0.4821740000000  0.4182640000000  0.5466870000000 1.0
C      1  0.3978530000000  0.5383290000000  0.4921540000000 1.0
C      1  0.4621980000000  0.5576280000000  0.5528930000000 1.0
C      1  0.5149360000000  0.4185320000000  0.5111120000000 1.0
C      1  0.5552120000000  0.4516870000000  0.5311910000000 1.0
C      1  0.5130090000000  0.5522410000000  0.5113030000000 1.0
C      1  0.4752870000000  0.4591140000000  0.5008630000000 1.0
C      1  0.5515200000000  0.4893610000000  0.4947730000000 1.0
C      1  0.4702570000000  0.5504830000000  0.4886850000000 1.0
C      1  0.4602470000000  0.4983310000000  0.5304280000000 1.0
C      1  0.4750330000000  0.4749970000000  0.5709740000000 1.0
C      1  0.5177450000000  0.5011270000000  0.5933490000000 1.0
C      1  0.4257360000000  0.4722570000000  0.5356480000000 1.0
C      1  0.4262580000000  0.4706940000000  0.4853020000000 1.0
END
