TITL C-951334-9093-651 3.17592790073417e-06 125000 -468.170529704511 0 0 75 (C1) n - 1
REM
REM in /home/bkarasulu/work/CARBON/AIRSS/Generating-Clusters/EDIP-Nigel-Params/with-SteepDescent/Only-C1/SD-CG/HFTN-CG
REM
REM
REM
REM
REM
REM ./C.cell (11c1c37f851c82e70ff6c80c92926a4b)
REM
REM compiler GCC version 9.2.1 20190827 (Red Hat 9.2.1-1)
REM options -cpp -mtune=generic -march=x86-64 -g -O0 -fpre-include=/usr/include/finclude/math-vector-fortran.h
REM seed 1495215616 -24429846 395045514 -603531473 -702748995 -1575145374 465628553 -1083455459 769790064 1254495955 -724908853 1508827622 -643640008 1942902490 -466168252 1099209690 1355922209 1244877752 1636211081 344342780 1569080267 246105580 -825985401 1356422782 1141797484 540018405 -1951661573 1007000698 1049722158 -2010854639 -1289306713 -387962754 -1908838202
REM
CELL 1.54180   50.00000   50.00000   50.00000   90.00000   90.00000   90.00000
LATT -1
SFAC C  
C      1  0.5054240000000  0.4539160000000  0.5017610000000 1.0
C      1  0.5588570000000  0.5665880000000  0.4729340000000 1.0
C      1  0.4779120000000  0.5473730000000  0.4707600000000 1.0
C      1  0.5113630000000  0.4309950000000  0.5437950000000 1.0
C      1  0.5618600000000  0.4515070000000  0.4947070000000 1.0
C      1  0.5361470000000  0.4248660000000  0.5310280000000 1.0
C      1  0.5164070000000  0.4806380000000  0.5417180000000 1.0
C      1  0.4911250000000  0.4414950000000  0.5250040000000 1.0
C      1  0.5121040000000  0.5083210000000  0.5283290000000 1.0
C      1  0.4790650000000  0.5660190000000  0.5335210000000 1.0
C      1  0.5375880000000  0.4851250000000  0.5630800000000 1.0
C      1  0.4508390000000  0.5040680000000  0.4634040000000 1.0
C      1  0.5368620000000  0.5628430000000  0.5391980000000 1.0
C      1  0.4879390000000  0.4502030000000  0.4571240000000 1.0
C      1  0.4892950000000  0.5543520000000  0.5581260000000 1.0
C      1  0.4599390000000  0.5280560000000  0.4239400000000 1.0
C      1  0.4874030000000  0.4930900000000  0.5748380000000 1.0
C      1  0.4938400000000  0.4232960000000  0.4688170000000 1.0
C      1  0.4561680000000  0.4657260000000  0.4943230000000 1.0
C      1  0.4385090000000  0.4436490000000  0.4584030000000 1.0
C      1  0.4703980000000  0.4173030000000  0.4833160000000 1.0
C      1  0.5101290000000  0.4505670000000  0.5652640000000 1.0
C      1  0.5672580000000  0.4809320000000  0.4981500000000 1.0
C      1  0.5268520000000  0.5717120000000  0.5125860000000 1.0
C      1  0.5281140000000  0.4701930000000  0.5151390000000 1.0
C      1  0.4383120000000  0.5291700000000  0.4759490000000 1.0
C      1  0.5418160000000  0.4427370000000  0.4727340000000 1.0
C      1  0.5340290000000  0.5081190000000  0.5070970000000 1.0
C      1  0.4763290000000  0.4621290000000  0.5388960000000 1.0
C      1  0.5493040000000  0.4485360000000  0.5226670000000 1.0
C      1  0.4982790000000  0.5292050000000  0.4288730000000 1.0
C      1  0.4492910000000  0.4360900000000  0.4856460000000 1.0
C      1  0.4497480000000  0.5022940000000  0.4336180000000 1.0
C      1  0.4826050000000  0.5747470000000  0.4862300000000 1.0
C      1  0.5228780000000  0.5038710000000  0.5808200000000 1.0
C      1  0.4910590000000  0.5214790000000  0.4864780000000 1.0
C      1  0.5098560000000  0.4584380000000  0.4383980000000 1.0
C      1  0.5009000000000  0.5038540000000  0.4433350000000 1.0
C      1  0.5205150000000  0.5181820000000  0.4826370000000 1.0
C      1  0.5181820000000  0.5490220000000  0.5572830000000 1.0
C      1  0.4780720000000  0.5465060000000  0.4397530000000 1.0
C      1  0.5768340000000  0.5268870000000  0.4866330000000 1.0
C      1  0.5774320000000  0.5474750000000  0.4673370000000 1.0
C      1  0.4410460000000  0.5297130000000  0.5237490000000 1.0
C      1  0.5620260000000  0.4978470000000  0.5511300000000 1.0
C      1  0.4618430000000  0.5075660000000  0.5318900000000 1.0
C      1  0.4406200000000  0.5574980000000  0.4732100000000 1.0
C      1  0.4352770000000  0.4826440000000  0.4791370000000 1.0
C      1  0.4177760000000  0.4944060000000  0.4990580000000 1.0
C      1  0.5700940000000  0.4909480000000  0.5245160000000 1.0
C      1  0.5544820000000  0.4951440000000  0.4533890000000 1.0
C      1  0.4715650000000  0.5372340000000  0.5712220000000 1.0
C      1  0.4963730000000  0.4811360000000  0.4248790000000 1.0
C      1  0.4849590000000  0.4652340000000  0.5668440000000 1.0
C      1  0.5337070000000  0.5307090000000  0.5746180000000 1.0
C      1  0.4811750000000  0.4996140000000  0.4686990000000 1.0
C      1  0.4844470000000  0.4700800000000  0.4815360000000 1.0
C      1  0.5737850000000  0.4986870000000  0.4758260000000 1.0
C      1  0.4623910000000  0.4513540000000  0.4417430000000 1.0
C      1  0.5417520000000  0.5556480000000  0.4924900000000 1.0
C      1  0.4655830000000  0.4769070000000  0.4245620000000 1.0
C      1  0.4684870000000  0.5109840000000  0.5620210000000 1.0
C      1  0.4203560000000  0.4652790000000  0.4608180000000 1.0
C      1  0.4972770000000  0.5717180000000  0.5113790000000 1.0
C      1  0.4526470000000  0.5734880000000  0.4943250000000 1.0
C      1  0.4246510000000  0.5215850000000  0.5004140000000 1.0
C      1  0.5272630000000  0.5050190000000  0.4579860000000 1.0
C      1  0.5359140000000  0.4622020000000  0.4512320000000 1.0
C      1  0.5550040000000  0.5327180000000  0.5072690000000 1.0
C      1  0.5606900000000  0.5451260000000  0.5354680000000 1.0
C      1  0.5171710000000  0.4308300000000  0.4859830000000 1.0
C      1  0.4519740000000  0.5596020000000  0.5220840000000 1.0
C      1  0.4563280000000  0.4771290000000  0.5240500000000 1.0
C      1  0.5598540000000  0.5265410000000  0.5591460000000 1.0
C      1  0.4866420000000  0.5138360000000  0.5156800000000 1.0
END
