TITL C-951334-9093-498 -5.30784242135259e-07 125000 -1162.06043521684 0 0 185 (C1) n - 1
REM
REM in /home/bkarasulu/work/CARBON/AIRSS/Generating-Clusters/EDIP-Nigel-Params/with-SteepDescent/Only-C1/SD-CG/HFTN-CG
REM
REM
REM
REM
REM
REM ./C.cell (11c1c37f851c82e70ff6c80c92926a4b)
REM
REM compiler GCC version 9.2.1 20190827 (Red Hat 9.2.1-1)
REM options -cpp -mtune=generic -march=x86-64 -g -O0 -fpre-include=/usr/include/finclude/math-vector-fortran.h
REM seed -973237927 227379828 218745553 993507153 1822632011 -1765825054 801003797 1699560267 -537793652 -581458957 -657690288 -676640637 2109564566 286186587 -1966316099 1594707098 4768936 755058327 -1524947714 1944801136 -1575972802 -733058979 -1819103931 135652102 -1515679208 -712153543 -798505839 -1775922476 1275013624 -1570620400 -486018705 279014657 -548177945
REM
CELL 1.54180   50.00000   50.00000   50.00000   90.00000   90.00000   90.00000
LATT -1
SFAC C  
C      1  0.4462050000000  0.4607890000000  0.5899990000000 1.0
C      1  0.4888800000000  0.4985010000000  0.3837500000000 1.0
C      1  0.5315280000000  0.4639230000000  0.4939850000000 1.0
C      1  0.4351120000000  0.5423460000000  0.5714100000000 1.0
C      1  0.3924300000000  0.4891290000000  0.5375660000000 1.0
C      1  0.5090190000000  0.5855420000000  0.5442480000000 1.0
C      1  0.3988310000000  0.5008250000000  0.4403450000000 1.0
C      1  0.4678880000000  0.4827810000000  0.3951780000000 1.0
C      1  0.5140870000000  0.5208520000000  0.5799250000000 1.0
C      1  0.5990560000000  0.5460960000000  0.5134350000000 1.0
C      1  0.4211320000000  0.5240190000000  0.5196740000000 1.0
C      1  0.5205420000000  0.5271210000000  0.4436130000000 1.0
C      1  0.4453380000000  0.5255170000000  0.4806350000000 1.0
C      1  0.5586250000000  0.4565270000000  0.4554450000000 1.0
C      1  0.4025390000000  0.5369480000000  0.5400040000000 1.0
C      1  0.4069370000000  0.4466210000000  0.5153010000000 1.0
C      1  0.4983110000000  0.5640030000000  0.4074610000000 1.0
C      1  0.6072190000000  0.4514770000000  0.4712910000000 1.0
C      1  0.4710500000000  0.4552650000000  0.3923130000000 1.0
C      1  0.5358480000000  0.4126310000000  0.4748650000000 1.0
C      1  0.4240940000000  0.5149720000000  0.5748400000000 1.0
C      1  0.4816810000000  0.4047150000000  0.5739360000000 1.0
C      1  0.5417570000000  0.5830580000000  0.4910700000000 1.0
C      1  0.4854730000000  0.4310680000000  0.4309420000000 1.0
C      1  0.5261370000000  0.5361290000000  0.4858650000000 1.0
C      1  0.4132270000000  0.5233760000000  0.4293870000000 1.0
C      1  0.4115340000000  0.4757110000000  0.4453270000000 1.0
C      1  0.5700770000000  0.5118080000000  0.4080880000000 1.0
C      1  0.4560320000000  0.4668610000000  0.4459830000000 1.0
C      1  0.3962080000000  0.4582310000000  0.4909010000000 1.0
C      1  0.5475580000000  0.5658810000000  0.4194170000000 1.0
C      1  0.5325440000000  0.4109350000000  0.5741990000000 1.0
C      1  0.5474740000000  0.5373130000000  0.4266020000000 1.0
C      1  0.4667490000000  0.6077710000000  0.4584690000000 1.0
C      1  0.5120250000000  0.4931270000000  0.5682040000000 1.0
C      1  0.5431140000000  0.4747460000000  0.5986800000000 1.0
C      1  0.6077750000000  0.4987630000000  0.4914650000000 1.0
C      1  0.4829960000000  0.4894400000000  0.4452330000000 1.0
C      1  0.5166970000000  0.6080100000000  0.5264020000000 1.0
C      1  0.5403770000000  0.5119050000000  0.4897790000000 1.0
C      1  0.6044500000000  0.4807670000000  0.4688620000000 1.0
C      1  0.5919440000000  0.5253870000000  0.4904990000000 1.0
C      1  0.5835670000000  0.5372300000000  0.5661560000000 1.0
C      1  0.4779770000000  0.5065050000000  0.6054610000000 1.0
C      1  0.4185800000000  0.5590640000000  0.5534620000000 1.0
C      1  0.5669860000000  0.4626940000000  0.4054180000000 1.0
C      1  0.4803720000000  0.4125460000000  0.4756300000000 1.0
C      1  0.5429210000000  0.4292460000000  0.4327430000000 1.0
C      1  0.5244780000000  0.5725230000000  0.4056100000000 1.0
C      1  0.4339360000000  0.4712910000000  0.4274380000000 1.0
C      1  0.4849650000000  0.4879780000000  0.5513920000000 1.0
C      1  0.5372470000000  0.5259790000000  0.5426020000000 1.0
C      1  0.5014860000000  0.4473040000000  0.5588270000000 1.0
C      1  0.5729350000000  0.5625240000000  0.4609150000000 1.0
C      1  0.5545540000000  0.4235120000000  0.5198060000000 1.0
C      1  0.5107960000000  0.5360650000000  0.5388730000000 1.0
C      1  0.4877030000000  0.6026610000000  0.4406950000000 1.0
C      1  0.4570220000000  0.5958070000000  0.4817970000000 1.0
C      1  0.5694650000000  0.5121340000000  0.5742410000000 1.0
C      1  0.4110320000000  0.5463370000000  0.4464280000000 1.0
C      1  0.4706510000000  0.6008800000000  0.5068810000000 1.0
C      1  0.4997280000000  0.5171910000000  0.5205560000000 1.0
C      1  0.4620690000000  0.5390510000000  0.4610070000000 1.0
C      1  0.5589520000000  0.4595450000000  0.4854560000000 1.0
C      1  0.4118240000000  0.5753500000000  0.4923510000000 1.0
C      1  0.4503840000000  0.4393200000000  0.5114660000000 1.0
C      1  0.4971850000000  0.6129010000000  0.5048880000000 1.0
C      1  0.5661290000000  0.4162950000000  0.4722500000000 1.0
C      1  0.4416720000000  0.4802320000000  0.5466810000000 1.0
C      1  0.4624040000000  0.4866320000000  0.5889480000000 1.0
C      1  0.5730090000000  0.5616440000000  0.5749180000000 1.0
C      1  0.6016280000000  0.4854190000000  0.5175760000000 1.0
C      1  0.5276680000000  0.5164240000000  0.6065240000000 1.0
C      1  0.4870170000000  0.5298740000000  0.5870170000000 1.0
C      1  0.5544370000000  0.5030960000000  0.5999110000000 1.0
C      1  0.4965940000000  0.4636510000000  0.5345140000000 1.0
C      1  0.5405650000000  0.4443040000000  0.5359290000000 1.0
C      1  0.4327830000000  0.5783810000000  0.5341780000000 1.0
C      1  0.5280260000000  0.4941190000000  0.4496280000000 1.0
C      1  0.4707360000000  0.4775820000000  0.4928410000000 1.0
C      1  0.4750340000000  0.5105540000000  0.5322200000000 1.0
C      1  0.4907280000000  0.5603130000000  0.5947500000000 1.0
C      1  0.4270470000000  0.4578510000000  0.5610390000000 1.0
C      1  0.5434730000000  0.6018140000000  0.5155820000000 1.0
C      1  0.4172430000000  0.4196230000000  0.5156540000000 1.0
C      1  0.5812880000000  0.5704650000000  0.5124300000000 1.0
C      1  0.5845780000000  0.5350620000000  0.4614100000000 1.0
C      1  0.5807570000000  0.4164270000000  0.5479520000000 1.0
C      1  0.4224650000000  0.4854230000000  0.4887390000000 1.0
C      1  0.3965050000000  0.5510910000000  0.4949220000000 1.0
C      1  0.5563950000000  0.5418940000000  0.5232330000000 1.0
C      1  0.4400040000000  0.5187900000000  0.4191670000000 1.0
C      1  0.5276780000000  0.5820360000000  0.5672270000000 1.0
C      1  0.4499710000000  0.5008430000000  0.5662340000000 1.0
C      1  0.5702790000000  0.5773270000000  0.4856960000000 1.0
C      1  0.4624380000000  0.5418240000000  0.5601400000000 1.0
C      1  0.4596320000000  0.4378250000000  0.4412190000000 1.0
C      1  0.5158070000000  0.5721960000000  0.5903550000000 1.0
C      1  0.5278570000000  0.3889860000000  0.4891360000000 1.0
C      1  0.4408260000000  0.4307830000000  0.5578980000000 1.0
C      1  0.5611360000000  0.3975390000000  0.5359330000000 1.0
C      1  0.4849750000000  0.3960830000000  0.5461370000000 1.0
C      1  0.5909110000000  0.4623250000000  0.4263070000000 1.0
C      1  0.4823620000000  0.4483670000000  0.5820880000000 1.0
C      1  0.5152910000000  0.4626000000000  0.4087690000000 1.0
C      1  0.4930450000000  0.4353850000000  0.4897460000000 1.0
C      1  0.5843930000000  0.4452470000000  0.5430730000000 1.0
C      1  0.3992700000000  0.5122440000000  0.5566560000000 1.0
C      1  0.5454140000000  0.5278220000000  0.3970060000000 1.0
C      1  0.5753900000000  0.4640960000000  0.5637020000000 1.0
C      1  0.4838100000000  0.5590960000000  0.5090620000000 1.0
C      1  0.5531190000000  0.4549230000000  0.5800270000000 1.0
C      1  0.4652260000000  0.4002420000000  0.5252600000000 1.0
C      1  0.5125660000000  0.6083900000000  0.4558300000000 1.0
C      1  0.4572710000000  0.5405750000000  0.4102380000000 1.0
C      1  0.5085700000000  0.4765980000000  0.4355760000000 1.0
C      1  0.4383100000000  0.5728400000000  0.4791230000000 1.0
C      1  0.5981350000000  0.4893500000000  0.4414780000000 1.0
C      1  0.5196450000000  0.5138120000000  0.4019110000000 1.0
C      1  0.5661230000000  0.4907510000000  0.5537280000000 1.0
C      1  0.4710440000000  0.5683600000000  0.5735010000000 1.0
C      1  0.5415700000000  0.4451290000000  0.4090870000000 1.0
C      1  0.5017360000000  0.4394670000000  0.6026750000000 1.0
C      1  0.4873690000000  0.5345330000000  0.4076940000000 1.0
C      1  0.5342800000000  0.5568170000000  0.5053300000000 1.0
C      1  0.5354090000000  0.3909710000000  0.5513270000000 1.0
C      1  0.4790070000000  0.3916030000000  0.4989720000000 1.0
C      1  0.4856050000000  0.5734550000000  0.4324190000000 1.0
C      1  0.5205820000000  0.4374540000000  0.4861100000000 1.0
C      1  0.6011310000000  0.4386260000000  0.4978900000000 1.0
C      1  0.4784100000000  0.4527990000000  0.5086540000000 1.0
C      1  0.4316820000000  0.4947900000000  0.5178400000000 1.0
C      1  0.5042710000000  0.5596300000000  0.4556070000000 1.0
C      1  0.5841920000000  0.5161760000000  0.4371970000000 1.0
C      1  0.5518560000000  0.5773040000000  0.4451070000000 1.0
C      1  0.4465110000000  0.4691700000000  0.4761960000000 1.0
C      1  0.5657140000000  0.5174000000000  0.5066530000000 1.0
C      1  0.5070360000000  0.3835130000000  0.5069380000000 1.0
C      1  0.5710390000000  0.4339930000000  0.4950040000000 1.0
C      1  0.4801910000000  0.5873820000000  0.5531640000000 1.0
C      1  0.5066840000000  0.6215690000000  0.4799180000000 1.0
C      1  0.4144820000000  0.5894710000000  0.5159900000000 1.0
C      1  0.4607330000000  0.5890860000000  0.5317430000000 1.0
C      1  0.5064320000000  0.4116940000000  0.5903720000000 1.0
C      1  0.4602790000000  0.4977310000000  0.5110240000000 1.0
C      1  0.4209210000000  0.5104910000000  0.4709320000000 1.0
C      1  0.4601480000000  0.4255930000000  0.5799250000000 1.0
C      1  0.5106060000000  0.3909030000000  0.5348430000000 1.0
C      1  0.5221140000000  0.4896080000000  0.4793980000000 1.0
C      1  0.3805870000000  0.4983420000000  0.5132360000000 1.0
C      1  0.4613430000000  0.5456870000000  0.5255080000000 1.0
C      1  0.4436810000000  0.4921380000000  0.4088240000000 1.0
C      1  0.5762320000000  0.4962940000000  0.5261280000000 1.0
C      1  0.5160050000000  0.4864010000000  0.3890250000000 1.0
C      1  0.5103670000000  0.5612890000000  0.5244440000000 1.0
C      1  0.5139060000000  0.4748650000000  0.5958840000000 1.0
C      1  0.4989010000000  0.5282400000000  0.4925330000000 1.0
C      1  0.4908730000000  0.4908350000000  0.4751000000000 1.0
C      1  0.5267700000000  0.4099780000000  0.4472180000000 1.0
C      1  0.4533140000000  0.4226760000000  0.4656080000000 1.0
C      1  0.5316050000000  0.4395570000000  0.5636930000000 1.0
C      1  0.5358280000000  0.4938820000000  0.5463090000000 1.0
C      1  0.3763620000000  0.5186440000000  0.4941410000000 1.0
C      1  0.4026050000000  0.4609460000000  0.5408150000000 1.0
C      1  0.5955180000000  0.5377190000000  0.5403370000000 1.0
C      1  0.5622870000000  0.5848590000000  0.5325340000000 1.0
C      1  0.4380320000000  0.4111760000000  0.5353900000000 1.0
C      1  0.4386200000000  0.5589740000000  0.4508300000000 1.0
C      1  0.4805390000000  0.5585540000000  0.4760180000000 1.0
C      1  0.5535580000000  0.4874430000000  0.4128790000000 1.0
C      1  0.5550880000000  0.5768790000000  0.5596320000000 1.0
C      1  0.4059780000000  0.4533280000000  0.4643870000000 1.0
C      1  0.4557810000000  0.5655420000000  0.4264070000000 1.0
C      1  0.5265060000000  0.5825090000000  0.4615330000000 1.0
C      1  0.5543360000000  0.4841660000000  0.4424830000000 1.0
C      1  0.4926870000000  0.4429020000000  0.4048240000000 1.0
C      1  0.5868080000000  0.4407930000000  0.4508150000000 1.0
C      1  0.3959190000000  0.5308380000000  0.4731330000000 1.0
C      1  0.6039090000000  0.4553910000000  0.5224790000000 1.0
C      1  0.4971420000000  0.4098830000000  0.4473900000000 1.0
C      1  0.5267740000000  0.4681770000000  0.5251160000000 1.0
C      1  0.4381550000000  0.5428630000000  0.5044160000000 1.0
C      1  0.5045830000000  0.4963220000000  0.6155450000000 1.0
C      1  0.4370590000000  0.4408020000000  0.4831710000000 1.0
C      1  0.4863630000000  0.5227940000000  0.4384490000000 1.0
END
