TITL C-950532-2784-368 2.3653719285126e-07 125000 -441.941285747477 0 0 73 (C1) n - 1
REM
REM in /home/bkarasulu/work/CARBON/AIRSS/Generating-Clusters/EDIP-Nigel-Params/with-SteepDescent/Only-C1/SD-CG/HFTN-CG
REM
REM
REM
REM
REM
REM ./C.cell (11c1c37f851c82e70ff6c80c92926a4b)
REM
REM compiler GCC version 9.2.1 20190827 (Red Hat 9.2.1-1)
REM options -cpp -mtune=generic -march=x86-64 -g -O0 -fpre-include=/usr/include/finclude/math-vector-fortran.h
REM seed 801900038 -1953778853 -1263981988 -1895934788 -1092584575 257884881 -677353060 442793424 813320670 -1520525913 -713651840 -746188477 -907270177 -156234801 -1823411050 1107971491 2101257349 1356804928 599855234 817636883 -583912370 110130088 1257613561 -1329148675 -1448511901 271285425 1680481718 500161888 -910870598 887918471 1428996371 406429583 -25733812
REM
CELL 1.54180   50.00000   50.00000   50.00000   90.00000   90.00000   90.00000
LATT -1
SFAC C  
C      1  0.5875560000000  0.4745690000000  0.4675000000000 1.0
C      1  0.4642020000000  0.5420430000000  0.4655640000000 1.0
C      1  0.4996390000000  0.4815870000000  0.4252100000000 1.0
C      1  0.5873590000000  0.5343060000000  0.4915530000000 1.0
C      1  0.5277990000000  0.4737090000000  0.4299480000000 1.0
C      1  0.4976250000000  0.5005290000000  0.4761780000000 1.0
C      1  0.4966990000000  0.5599930000000  0.5555570000000 1.0
C      1  0.4249920000000  0.5119390000000  0.4613340000000 1.0
C      1  0.5315880000000  0.4643030000000  0.5541640000000 1.0
C      1  0.4908690000000  0.5468100000000  0.4841740000000 1.0
C      1  0.5390430000000  0.5569170000000  0.4739800000000 1.0
C      1  0.4886940000000  0.4739120000000  0.5543520000000 1.0
C      1  0.4246190000000  0.5238050000000  0.4879740000000 1.0
C      1  0.5637230000000  0.5308110000000  0.5088920000000 1.0
C      1  0.4906640000000  0.4934120000000  0.5792880000000 1.0
C      1  0.4182820000000  0.4834000000000  0.4634960000000 1.0
C      1  0.4327400000000  0.4475460000000  0.4762310000000 1.0
C      1  0.4975820000000  0.4458080000000  0.4547160000000 1.0
C      1  0.5221490000000  0.5133470000000  0.5453070000000 1.0
C      1  0.4767010000000  0.5381680000000  0.5546170000000 1.0
C      1  0.4431200000000  0.4725430000000  0.4702640000000 1.0
C      1  0.4482880000000  0.5006210000000  0.5582970000000 1.0
C      1  0.5352060000000  0.5392180000000  0.5463030000000 1.0
C      1  0.5648800000000  0.5015110000000  0.5484120000000 1.0
C      1  0.4513790000000  0.4485490000000  0.5222430000000 1.0
C      1  0.4916520000000  0.5052220000000  0.4441620000000 1.0
C      1  0.5691940000000  0.4954360000000  0.4726300000000 1.0
C      1  0.5245430000000  0.4582780000000  0.4550420000000 1.0
C      1  0.5415830000000  0.4980860000000  0.4278850000000 1.0
C      1  0.5500290000000  0.5028660000000  0.4961140000000 1.0
C      1  0.4666300000000  0.4869530000000  0.5371270000000 1.0
C      1  0.5766470000000  0.5233960000000  0.4670500000000 1.0
C      1  0.4595620000000  0.4763710000000  0.4462800000000 1.0
C      1  0.5089050000000  0.5073360000000  0.5201460000000 1.0
C      1  0.4859610000000  0.4488730000000  0.4812800000000 1.0
C      1  0.5475880000000  0.5321490000000  0.4613310000000 1.0
C      1  0.5122170000000  0.4775040000000  0.5169420000000 1.0
C      1  0.4726710000000  0.5075250000000  0.4915380000000 1.0
C      1  0.4549390000000  0.5144600000000  0.4517190000000 1.0
C      1  0.4784300000000  0.4486710000000  0.5644070000000 1.0
C      1  0.5063000000000  0.5298160000000  0.4346440000000 1.0
C      1  0.5433870000000  0.4761210000000  0.5128570000000 1.0
C      1  0.4886450000000  0.4245520000000  0.4979840000000 1.0
C      1  0.5726680000000  0.4523000000000  0.4638780000000 1.0
C      1  0.5246720000000  0.5509080000000  0.5213770000000 1.0
C      1  0.4420400000000  0.5475480000000  0.4863520000000 1.0
C      1  0.4343220000000  0.5173430000000  0.5379050000000 1.0
C      1  0.4813210000000  0.4610070000000  0.4350620000000 1.0
C      1  0.5025230000000  0.5687360000000  0.5271650000000 1.0
C      1  0.4701060000000  0.5156050000000  0.5736000000000 1.0
C      1  0.4952290000000  0.4271100000000  0.5260640000000 1.0
C      1  0.4511190000000  0.4884860000000  0.4944340000000 1.0
C      1  0.4789590000000  0.5108280000000  0.5204360000000 1.0
C      1  0.5454880000000  0.5543960000000  0.5024510000000 1.0
C      1  0.4817310000000  0.5666830000000  0.5052620000000 1.0
C      1  0.4552560000000  0.5385410000000  0.5338060000000 1.0
C      1  0.5147280000000  0.5692700000000  0.4643740000000 1.0
C      1  0.5435200000000  0.4480060000000  0.5009800000000 1.0
C      1  0.4283600000000  0.4972690000000  0.5149060000000 1.0
C      1  0.4539030000000  0.5586660000000  0.5116820000000 1.0
C      1  0.5220350000000  0.5543620000000  0.5685220000000 1.0
C      1  0.5204360000000  0.4919720000000  0.5659930000000 1.0
C      1  0.5212130000000  0.4427050000000  0.5317640000000 1.0
C      1  0.5464730000000  0.4458590000000  0.4716020000000 1.0
C      1  0.5557080000000  0.4761020000000  0.5404760000000 1.0
C      1  0.5354470000000  0.5245110000000  0.4355610000000 1.0
C      1  0.5216340000000  0.5194690000000  0.4899590000000 1.0
C      1  0.4960220000000  0.5550650000000  0.4465270000000 1.0
C      1  0.4329410000000  0.4699950000000  0.5300030000000 1.0
C      1  0.4517200000000  0.4366360000000  0.4952570000000 1.0
C      1  0.5012910000000  0.4732840000000  0.4895620000000 1.0
C      1  0.5637420000000  0.5283040000000  0.5399490000000 1.0
C      1  0.4711160000000  0.4360620000000  0.5404000000000 1.0
END
