TITL C-951333-8791-506 -4.03415611799854e-07 125000 -953.537270679456 0 0 152 (C1) n - 1
REM
REM in /home/bkarasulu/work/CARBON/AIRSS/Generating-Clusters/EDIP-Nigel-Params/with-SteepDescent/Only-C1/SD-CG/HFTN-CG
REM
REM
REM
REM
REM
REM ./C.cell (11c1c37f851c82e70ff6c80c92926a4b)
REM
REM compiler GCC version 9.2.1 20190827 (Red Hat 9.2.1-1)
REM options -cpp -mtune=generic -march=x86-64 -g -O0 -fpre-include=/usr/include/finclude/math-vector-fortran.h
REM seed 1274750149 -1783564285 1256721562 -1732817294 -509295771 1491592128 -882689439 1438088869 -833610378 -1171470815 -508806057 -1680686524 1684171378 -656895118 548599190 -641591031 -1273974671 665040179 1650927660 2051269702 -1064318203 731958073 518170680 -857932129 1917847486 -516941714 320119619 1437302379 1330444480 139665624 -95315323 -1118221240 883586123
REM
CELL 1.54180   50.00000   50.00000   50.00000   90.00000   90.00000   90.00000
LATT -1
SFAC C  
C      1  0.4390620000000  0.5978880000000  0.4842170000000 1.0
C      1  0.5334250000000  0.4676880000000  0.5674870000000 1.0
C      1  0.4271890000000  0.4919370000000  0.4965750000000 1.0
C      1  0.5698230000000  0.4651460000000  0.4984840000000 1.0
C      1  0.5674430000000  0.4533370000000  0.5801360000000 1.0
C      1  0.4309680000000  0.5025390000000  0.5475150000000 1.0
C      1  0.5566140000000  0.4587870000000  0.4484850000000 1.0
C      1  0.4163510000000  0.5586280000000  0.5477080000000 1.0
C      1  0.5359540000000  0.5702760000000  0.5381040000000 1.0
C      1  0.4592320000000  0.4795660000000  0.4194640000000 1.0
C      1  0.5871520000000  0.4758510000000  0.5368670000000 1.0
C      1  0.5094930000000  0.5418500000000  0.5185000000000 1.0
C      1  0.5917790000000  0.5297230000000  0.5131640000000 1.0
C      1  0.5953540000000  0.5100050000000  0.4941760000000 1.0
C      1  0.5847780000000  0.4707270000000  0.4568340000000 1.0
C      1  0.4347930000000  0.5148110000000  0.5747770000000 1.0
C      1  0.4773270000000  0.4836150000000  0.5378670000000 1.0
C      1  0.4850860000000  0.4734720000000  0.5903150000000 1.0
C      1  0.5245190000000  0.5875250000000  0.5183230000000 1.0
C      1  0.5450950000000  0.4210950000000  0.4936860000000 1.0
C      1  0.5902190000000  0.4369960000000  0.5369830000000 1.0
C      1  0.4075620000000  0.4788280000000  0.5180000000000 1.0
C      1  0.4410600000000  0.4472120000000  0.5030190000000 1.0
C      1  0.5529360000000  0.5802370000000  0.4725360000000 1.0
C      1  0.4459730000000  0.4559500000000  0.5689800000000 1.0
C      1  0.4654820000000  0.5195820000000  0.5076490000000 1.0
C      1  0.4967780000000  0.4387100000000  0.4859790000000 1.0
C      1  0.5595940000000  0.4963500000000  0.4101070000000 1.0
C      1  0.4994120000000  0.5335010000000  0.4686810000000 1.0
C      1  0.5844730000000  0.5021460000000  0.4210100000000 1.0
C      1  0.4582410000000  0.5804020000000  0.5442090000000 1.0
C      1  0.4636140000000  0.5454520000000  0.4302650000000 1.0
C      1  0.5089900000000  0.5253410000000  0.5534530000000 1.0
C      1  0.5274810000000  0.3965090000000  0.4925630000000 1.0
C      1  0.4779930000000  0.6107370000000  0.5138080000000 1.0
C      1  0.4504460000000  0.5124640000000  0.4590840000000 1.0
C      1  0.4608330000000  0.4261870000000  0.5130290000000 1.0
C      1  0.4016970000000  0.5137930000000  0.4678580000000 1.0
C      1  0.4094670000000  0.4678730000000  0.4638460000000 1.0
C      1  0.5023320000000  0.5032060000000  0.4805930000000 1.0
C      1  0.4801800000000  0.5440780000000  0.5142130000000 1.0
C      1  0.4778740000000  0.4925400000000  0.5071960000000 1.0
C      1  0.5335880000000  0.4935780000000  0.4755550000000 1.0
C      1  0.4439880000000  0.4419690000000  0.4530340000000 1.0
C      1  0.4876660000000  0.5564260000000  0.4191640000000 1.0
C      1  0.4713810000000  0.3993830000000  0.4713650000000 1.0
C      1  0.4151430000000  0.4720780000000  0.4346200000000 1.0
C      1  0.5463150000000  0.5193520000000  0.4015230000000 1.0
C      1  0.5077010000000  0.4662260000000  0.4501390000000 1.0
C      1  0.5208480000000  0.5468180000000  0.4908680000000 1.0
C      1  0.4599070000000  0.4156470000000  0.4487730000000 1.0
C      1  0.5189490000000  0.3943310000000  0.4636180000000 1.0
C      1  0.4951560000000  0.5554120000000  0.5926740000000 1.0
C      1  0.4361500000000  0.5743120000000  0.4655770000000 1.0
C      1  0.4738640000000  0.5355360000000  0.5932030000000 1.0
C      1  0.5190410000000  0.5136320000000  0.5274920000000 1.0
C      1  0.5902160000000  0.4544930000000  0.5600780000000 1.0
C      1  0.4715470000000  0.5677210000000  0.4980410000000 1.0
C      1  0.5596840000000  0.5563320000000  0.5323920000000 1.0
C      1  0.4821860000000  0.4149920000000  0.4955450000000 1.0
C      1  0.4415460000000  0.5612670000000  0.5585490000000 1.0
C      1  0.5685430000000  0.5356250000000  0.5505550000000 1.0
C      1  0.4650850000000  0.4886660000000  0.4479830000000 1.0
C      1  0.4547960000000  0.4734440000000  0.4933270000000 1.0
C      1  0.4277270000000  0.4594850000000  0.5261220000000 1.0
C      1  0.4813960000000  0.4226200000000  0.4304220000000 1.0
C      1  0.4624170000000  0.4635920000000  0.4646730000000 1.0
C      1  0.4458170000000  0.4749850000000  0.5452900000000 1.0
C      1  0.6034710000000  0.4839720000000  0.5049100000000 1.0
C      1  0.5957470000000  0.4629410000000  0.4830770000000 1.0
C      1  0.4516020000000  0.5544580000000  0.4806700000000 1.0
C      1  0.5372110000000  0.4181080000000  0.5463970000000 1.0
C      1  0.4039130000000  0.5465710000000  0.5264110000000 1.0
C      1  0.5439680000000  0.4428700000000  0.5325460000000 1.0
C      1  0.5897040000000  0.5478520000000  0.4617800000000 1.0
C      1  0.4028490000000  0.5403190000000  0.4798490000000 1.0
C      1  0.5317980000000  0.5577450000000  0.4317160000000 1.0
C      1  0.4841890000000  0.6140050000000  0.4857110000000 1.0
C      1  0.5541620000000  0.5684900000000  0.4456540000000 1.0
C      1  0.5296170000000  0.5739920000000  0.5651680000000 1.0
C      1  0.5548570000000  0.5327480000000  0.4595380000000 1.0
C      1  0.4996320000000  0.5992920000000  0.5302820000000 1.0
C      1  0.5248990000000  0.4464640000000  0.4923520000000 1.0
C      1  0.5031160000000  0.4574470000000  0.5704860000000 1.0
C      1  0.5036810000000  0.5017910000000  0.4089710000000 1.0
C      1  0.4877730000000  0.4474440000000  0.4602320000000 1.0
C      1  0.4669350000000  0.5371610000000  0.4600410000000 1.0
C      1  0.4232340000000  0.5199620000000  0.4475250000000 1.0
C      1  0.5585190000000  0.5256610000000  0.5751870000000 1.0
C      1  0.3938390000000  0.4878670000000  0.4773930000000 1.0
C      1  0.4927120000000  0.3839720000000  0.4612260000000 1.0
C      1  0.4220440000000  0.5425680000000  0.5029920000000 1.0
C      1  0.5639800000000  0.4793050000000  0.5968150000000 1.0
C      1  0.5439600000000  0.4742240000000  0.4243300000000 1.0
C      1  0.4023740000000  0.4984790000000  0.5398310000000 1.0
C      1  0.5881330000000  0.5192000000000  0.5393570000000 1.0
C      1  0.5536970000000  0.4955390000000  0.4987580000000 1.0
C      1  0.4364970000000  0.5169870000000  0.5119660000000 1.0
C      1  0.5400000000000  0.5073730000000  0.4472860000000 1.0
C      1  0.5535390000000  0.4289180000000  0.4496610000000 1.0
C      1  0.5247790000000  0.5778730000000  0.4893050000000 1.0
C      1  0.4889500000000  0.4763840000000  0.4075800000000 1.0
C      1  0.4230540000000  0.4432750000000  0.4761550000000 1.0
C      1  0.5129480000000  0.4597810000000  0.4206740000000 1.0
C      1  0.4559290000000  0.4704940000000  0.5920710000000 1.0
C      1  0.4946520000000  0.4928370000000  0.4519170000000 1.0
C      1  0.5779410000000  0.5662160000000  0.4828750000000 1.0
C      1  0.5075630000000  0.4292230000000  0.5812540000000 1.0
C      1  0.5037220000000  0.3989850000000  0.5111490000000 1.0
C      1  0.4579280000000  0.6171010000000  0.4747400000000 1.0
C      1  0.5486310000000  0.5326970000000  0.4898030000000 1.0
C      1  0.4941670000000  0.4585290000000  0.5405090000000 1.0
C      1  0.5188270000000  0.5058670000000  0.5982520000000 1.0
C      1  0.3906160000000  0.5226920000000  0.5322740000000 1.0
C      1  0.5110720000000  0.5142910000000  0.4363110000000 1.0
C      1  0.5648900000000  0.4186420000000  0.4725910000000 1.0
C      1  0.5304640000000  0.5416360000000  0.4072160000000 1.0
C      1  0.4589670000000  0.4307740000000  0.5629600000000 1.0
C      1  0.5733780000000  0.5021730000000  0.5823450000000 1.0
C      1  0.5090920000000  0.4290110000000  0.4258780000000 1.0
C      1  0.5001830000000  0.5908860000000  0.4494080000000 1.0
C      1  0.4433210000000  0.4956070000000  0.5932980000000 1.0
C      1  0.4138640000000  0.5557530000000  0.4574950000000 1.0
C      1  0.5101850000000  0.4083510000000  0.5392930000000 1.0
C      1  0.5375440000000  0.4297890000000  0.5740430000000 1.0
C      1  0.4749780000000  0.4339040000000  0.5383810000000 1.0
C      1  0.5202490000000  0.5447510000000  0.6015880000000 1.0
C      1  0.5231510000000  0.4612180000000  0.5218460000000 1.0
C      1  0.5265520000000  0.4183500000000  0.4470870000000 1.0
C      1  0.5682960000000  0.4409030000000  0.5176080000000 1.0
C      1  0.5054370000000  0.5660330000000  0.4393380000000 1.0
C      1  0.5953100000000  0.5190650000000  0.4668640000000 1.0
C      1  0.4859560000000  0.5848300000000  0.5522980000000 1.0
C      1  0.4520900000000  0.5277060000000  0.4119330000000 1.0
C      1  0.5326230000000  0.4651560000000  0.4681640000000 1.0
C      1  0.4975140000000  0.5881930000000  0.4771810000000 1.0
C      1  0.5023660000000  0.5389330000000  0.4013080000000 1.0
C      1  0.4885530000000  0.5046860000000  0.5585970000000 1.0
C      1  0.4560780000000  0.5898830000000  0.5134610000000 1.0
C      1  0.4920500000000  0.4107680000000  0.5636910000000 1.0
C      1  0.5616880000000  0.4921260000000  0.5469810000000 1.0
C      1  0.5026340000000  0.5667510000000  0.5671670000000 1.0
C      1  0.5699110000000  0.5481720000000  0.5054020000000 1.0
C      1  0.4897540000000  0.5023590000000  0.5885000000000 1.0
C      1  0.5386190000000  0.4910340000000  0.5246830000000 1.0
C      1  0.4513200000000  0.5386310000000  0.5748010000000 1.0
C      1  0.4387490000000  0.4563530000000  0.4261880000000 1.0
C      1  0.5346020000000  0.4800770000000  0.5948690000000 1.0
C      1  0.5291590000000  0.5272540000000  0.5791020000000 1.0
C      1  0.4424650000000  0.5019700000000  0.4077500000000 1.0
C      1  0.5928290000000  0.4974520000000  0.4470480000000 1.0
C      1  0.4180170000000  0.5003660000000  0.4243280000000 1.0
END
