TITL C-951339-9237-639 1.80684036677085e-06 125000 -787.238022895473 0 0 126 (C1) n - 1
REM
REM in /home/bkarasulu/work/CARBON/AIRSS/Generating-Clusters/EDIP-Nigel-Params/with-SteepDescent/Only-C1/SD-CG/HFTN-CG
REM
REM
REM
REM
REM
REM ./C.cell (11c1c37f851c82e70ff6c80c92926a4b)
REM
REM compiler GCC version 9.2.1 20190827 (Red Hat 9.2.1-1)
REM options -cpp -mtune=generic -march=x86-64 -g -O0 -fpre-include=/usr/include/finclude/math-vector-fortran.h
REM seed -382165293 1280389831 -1906005924 -880206955 681135088 823674849 -673618253 -541133687 -277455545 1081823654 -253304807 1137630828 1900611236 -600409922 472999221 1123199884 -657405755 656514162 1582707333 -1365950072 1256474311 -1379288968 -727301800 -1003891613 -350775848 979826634 -1086648196 1019821264 272569466 171318103 -1997606608 -1273597906 1066978703
REM
CELL 1.54180   50.00000   50.00000   50.00000   90.00000   90.00000   90.00000
LATT -1
SFAC C  
C      1  0.4823340000000  0.4825670000000  0.4867980000000 1.0
C      1  0.4775380000000  0.4532800000000  0.5286450000000 1.0
C      1  0.5019470000000  0.5677530000000  0.4599330000000 1.0
C      1  0.4576640000000  0.5728340000000  0.5481610000000 1.0
C      1  0.5092830000000  0.4858370000000  0.5835880000000 1.0
C      1  0.5871390000000  0.5211410000000  0.5437680000000 1.0
C      1  0.5777290000000  0.5596750000000  0.4871560000000 1.0
C      1  0.4252430000000  0.4661690000000  0.5290550000000 1.0
C      1  0.4166250000000  0.5564100000000  0.5332430000000 1.0
C      1  0.4800350000000  0.5317110000000  0.5791810000000 1.0
C      1  0.5671890000000  0.5221570000000  0.5672760000000 1.0
C      1  0.4963620000000  0.5763180000000  0.5710510000000 1.0
C      1  0.4919340000000  0.5112260000000  0.4930420000000 1.0
C      1  0.4555470000000  0.4743150000000  0.5287160000000 1.0
C      1  0.4357220000000  0.5764270000000  0.5279860000000 1.0
C      1  0.5628360000000  0.5355020000000  0.5308400000000 1.0
C      1  0.4824280000000  0.4402400000000  0.4381420000000 1.0
C      1  0.4388160000000  0.4724010000000  0.5781680000000 1.0
C      1  0.5333930000000  0.5160130000000  0.4036300000000 1.0
C      1  0.4079390000000  0.5357260000000  0.5171290000000 1.0
C      1  0.5195060000000  0.6000020000000  0.4929240000000 1.0
C      1  0.5301430000000  0.4248450000000  0.4593750000000 1.0
C      1  0.5529190000000  0.5776630000000  0.5241040000000 1.0
C      1  0.4440490000000  0.4409660000000  0.4638960000000 1.0
C      1  0.4532940000000  0.5322840000000  0.4880910000000 1.0
C      1  0.4098130000000  0.4877230000000  0.5131010000000 1.0
C      1  0.5550310000000  0.4153940000000  0.5044100000000 1.0
C      1  0.4650920000000  0.4914070000000  0.4119740000000 1.0
C      1  0.4382360000000  0.5527900000000  0.4496190000000 1.0
C      1  0.5569960000000  0.5053750000000  0.4934830000000 1.0
C      1  0.5557380000000  0.5262800000000  0.4224620000000 1.0
C      1  0.4341650000000  0.5542480000000  0.4793630000000 1.0
C      1  0.5283250000000  0.4884560000000  0.5593120000000 1.0
C      1  0.4622520000000  0.5216850000000  0.4153710000000 1.0
C      1  0.5067400000000  0.4021600000000  0.4985940000000 1.0
C      1  0.4822230000000  0.5831930000000  0.5328350000000 1.0
C      1  0.5201560000000  0.5090760000000  0.5409400000000 1.0
C      1  0.5446430000000  0.4286740000000  0.5623520000000 1.0
C      1  0.5564040000000  0.4934320000000  0.5686330000000 1.0
C      1  0.5284500000000  0.4113550000000  0.5157960000000 1.0
C      1  0.5200100000000  0.4975030000000  0.4485860000000 1.0
C      1  0.4187960000000  0.4757540000000  0.5588990000000 1.0
C      1  0.4933880000000  0.4623020000000  0.5054540000000 1.0
C      1  0.6011060000000  0.4930490000000  0.5058730000000 1.0
C      1  0.4082880000000  0.5398630000000  0.4882670000000 1.0
C      1  0.5234050000000  0.4566380000000  0.4640950000000 1.0
C      1  0.4453200000000  0.5770880000000  0.4988220000000 1.0
C      1  0.4822390000000  0.5303540000000  0.4718100000000 1.0
C      1  0.5249490000000  0.4126740000000  0.5452080000000 1.0
C      1  0.5783430000000  0.4850160000000  0.4877570000000 1.0
C      1  0.5185310000000  0.5274040000000  0.4972440000000 1.0
C      1  0.4893680000000  0.5391630000000  0.4204790000000 1.0
C      1  0.4569290000000  0.5708020000000  0.4404520000000 1.0
C      1  0.5075260000000  0.4089960000000  0.4701310000000 1.0
C      1  0.5072140000000  0.4562240000000  0.5838630000000 1.0
C      1  0.4831930000000  0.4204500000000  0.4602910000000 1.0
C      1  0.4151730000000  0.5054060000000  0.5552170000000 1.0
C      1  0.5498110000000  0.5668690000000  0.4756080000000 1.0
C      1  0.4833100000000  0.5016610000000  0.5856020000000 1.0
C      1  0.5473230000000  0.5468170000000  0.5693560000000 1.0
C      1  0.4643110000000  0.4967330000000  0.5460040000000 1.0
C      1  0.4252800000000  0.4909050000000  0.4459270000000 1.0
C      1  0.5296390000000  0.5544280000000  0.4561630000000 1.0
C      1  0.4787630000000  0.5100010000000  0.4493710000000 1.0
C      1  0.4381000000000  0.5070710000000  0.4791040000000 1.0
C      1  0.5727340000000  0.4749260000000  0.5525020000000 1.0
C      1  0.5181680000000  0.5438280000000  0.4069950000000 1.0
C      1  0.4263050000000  0.4420630000000  0.5084740000000 1.0
C      1  0.4477650000000  0.4203460000000  0.5054030000000 1.0
C      1  0.5746470000000  0.5600180000000  0.5168560000000 1.0
C      1  0.4957400000000  0.5885800000000  0.4814110000000 1.0
C      1  0.4741790000000  0.5837050000000  0.5024930000000 1.0
C      1  0.4744800000000  0.4147390000000  0.5337060000000 1.0
C      1  0.5003780000000  0.5515150000000  0.5842460000000 1.0
C      1  0.5396380000000  0.5525800000000  0.4274430000000 1.0
C      1  0.5939550000000  0.5343490000000  0.4779870000000 1.0
C      1  0.3980910000000  0.4900730000000  0.4859740000000 1.0
C      1  0.4587510000000  0.4204420000000  0.4771760000000 1.0
C      1  0.4975190000000  0.4212950000000  0.5520770000000 1.0
C      1  0.5224910000000  0.5260310000000  0.4657600000000 1.0
C      1  0.5564310000000  0.4182670000000  0.4734940000000 1.0
C      1  0.5622350000000  0.5103180000000  0.4471490000000 1.0
C      1  0.5368080000000  0.4633290000000  0.4896740000000 1.0
C      1  0.5748450000000  0.4417230000000  0.4692700000000 1.0
C      1  0.5013050000000  0.5590230000000  0.5313970000000 1.0
C      1  0.5801650000000  0.4873960000000  0.4559130000000 1.0
C      1  0.4828790000000  0.5610380000000  0.4395900000000 1.0
C      1  0.4804760000000  0.3994940000000  0.5098820000000 1.0
C      1  0.5269360000000  0.5439580000000  0.5882790000000 1.0
C      1  0.5136370000000  0.5555820000000  0.5050680000000 1.0
C      1  0.5314930000000  0.4409440000000  0.5846790000000 1.0
C      1  0.5200760000000  0.4679710000000  0.5122110000000 1.0
C      1  0.4320830000000  0.4586100000000  0.4829820000000 1.0
C      1  0.5103590000000  0.5043820000000  0.4208120000000 1.0
C      1  0.4601710000000  0.4855920000000  0.5881180000000 1.0
C      1  0.4475220000000  0.4770760000000  0.4310700000000 1.0
C      1  0.4936160000000  0.4821480000000  0.4095610000000 1.0
C      1  0.5402070000000  0.5685000000000  0.5493830000000 1.0
C      1  0.5705240000000  0.4610790000000  0.4462440000000 1.0
C      1  0.5294100000000  0.4469460000000  0.4207130000000 1.0
C      1  0.5327500000000  0.4206920000000  0.4305220000000 1.0
C      1  0.5344770000000  0.5760900000000  0.4993920000000 1.0
C      1  0.5411010000000  0.4662970000000  0.4404390000000 1.0
C      1  0.4518150000000  0.5392870000000  0.5204070000000 1.0
C      1  0.4438600000000  0.5245830000000  0.4404210000000 1.0
C      1  0.4511850000000  0.4820220000000  0.4909760000000 1.0
C      1  0.5267150000000  0.4630730000000  0.5408310000000 1.0
C      1  0.6086800000000  0.5186650000000  0.4963340000000 1.0
C      1  0.4011650000000  0.5160590000000  0.4734600000000 1.0
C      1  0.5685580000000  0.4392910000000  0.5173150000000 1.0
C      1  0.4426360000000  0.5178930000000  0.5476860000000 1.0
C      1  0.4586880000000  0.4541010000000  0.4436970000000 1.0
C      1  0.4999510000000  0.4509320000000  0.5542790000000 1.0
C      1  0.5645900000000  0.5256120000000  0.4728620000000 1.0
C      1  0.5009880000000  0.4550760000000  0.4207740000000 1.0
C      1  0.5175580000000  0.5856580000000  0.5552330000000 1.0
C      1  0.4025690000000  0.5099560000000  0.5293690000000 1.0
C      1  0.5902570000000  0.4932950000000  0.5345370000000 1.0
C      1  0.4932160000000  0.4777360000000  0.4579550000000 1.0
C      1  0.4905270000000  0.5100710000000  0.5366700000000 1.0
C      1  0.5562510000000  0.4500180000000  0.5432120000000 1.0
C      1  0.4115410000000  0.4731470000000  0.4670250000000 1.0
C      1  0.5658820000000  0.4578450000000  0.4930600000000 1.0
C      1  0.4553030000000  0.5432290000000  0.5648480000000 1.0
C      1  0.5408510000000  0.5160370000000  0.5174860000000 1.0
C      1  0.4806770000000  0.5375890000000  0.5354890000000 1.0
END
