TITL C-951344-124-27 -1.05332651447073e-07 125000 -1126.85587954617 0 0 180 (C1) n - 1
REM
REM in /home/bkarasulu/work/CARBON/AIRSS/Generating-Clusters/EDIP-Nigel-Params/with-SteepDescent/Only-C1/SD-CG/HFTN-CG
REM
REM
REM
REM
REM
REM ./C.cell (11c1c37f851c82e70ff6c80c92926a4b)
REM
REM compiler GCC version 9.2.1 20190827 (Red Hat 9.2.1-1)
REM options -cpp -mtune=generic -march=x86-64 -g -O0 -fpre-include=/usr/include/finclude/math-vector-fortran.h
REM seed 1385148363 1112085764 -1660147653 685108313 -2004969404 1176135209 1367057127 276323191 1137477756 -23969588 2039886978 -504814160 1594064687 1850127074 1577659293 -1808507757 -740110740 -329922286 245839121 -1295818881 277436181 -1927808224 -1137190215 -2119305379 -935602478 -525612017 -601935846 -1842853388 1130166180 -369544031 -1616319725 -66081409 -797872084
REM
CELL 1.54180   50.00000   50.00000   50.00000   90.00000   90.00000   90.00000
LATT -1
SFAC C  
C      1  0.5590260000000  0.5411120000000  0.4323100000000 1.0
C      1  0.4338080000000  0.4958520000000  0.5102280000000 1.0
C      1  0.5091410000000  0.5432170000000  0.5804580000000 1.0
C      1  0.4586240000000  0.5617980000000  0.5664190000000 1.0
C      1  0.4004500000000  0.5347060000000  0.5278250000000 1.0
C      1  0.4519910000000  0.4432270000000  0.5237170000000 1.0
C      1  0.5083470000000  0.4294140000000  0.4327060000000 1.0
C      1  0.4717900000000  0.5743690000000  0.4093650000000 1.0
C      1  0.4365670000000  0.5226220000000  0.6019310000000 1.0
C      1  0.4963670000000  0.4914170000000  0.4708110000000 1.0
C      1  0.4812540000000  0.4364940000000  0.4232860000000 1.0
C      1  0.5968940000000  0.4131550000000  0.5022320000000 1.0
C      1  0.4284950000000  0.5603890000000  0.5715840000000 1.0
C      1  0.5313070000000  0.4946810000000  0.4385630000000 1.0
C      1  0.3811560000000  0.5132880000000  0.5200610000000 1.0
C      1  0.4950270000000  0.5104450000000  0.4063130000000 1.0
C      1  0.4671460000000  0.3924720000000  0.4828800000000 1.0
C      1  0.6026480000000  0.4874440000000  0.5009090000000 1.0
C      1  0.4307190000000  0.4946530000000  0.5994820000000 1.0
C      1  0.5730820000000  0.4148630000000  0.5488050000000 1.0
C      1  0.6128730000000  0.4454630000000  0.5371140000000 1.0
C      1  0.4907020000000  0.5535570000000  0.5353210000000 1.0
C      1  0.4267020000000  0.4920850000000  0.4692850000000 1.0
C      1  0.5340080000000  0.5395280000000  0.5049820000000 1.0
C      1  0.4930780000000  0.4786990000000  0.5533490000000 1.0
C      1  0.4495600000000  0.5730140000000  0.4277570000000 1.0
C      1  0.5603840000000  0.5091090000000  0.5350920000000 1.0
C      1  0.4413060000000  0.4099590000000  0.4767210000000 1.0
C      1  0.4544740000000  0.5318540000000  0.4917560000000 1.0
C      1  0.5301530000000  0.5176530000000  0.4567880000000 1.0
C      1  0.5857520000000  0.5500670000000  0.5371640000000 1.0
C      1  0.5191900000000  0.4509100000000  0.4502960000000 1.0
C      1  0.5544650000000  0.5327160000000  0.4608660000000 1.0
C      1  0.4255570000000  0.4981100000000  0.4253980000000 1.0
C      1  0.5576670000000  0.4948040000000  0.4833620000000 1.0
C      1  0.4656780000000  0.5250120000000  0.5979800000000 1.0
C      1  0.5219240000000  0.6075580000000  0.5008670000000 1.0
C      1  0.4656280000000  0.5109150000000  0.4454610000000 1.0
C      1  0.4677190000000  0.4949550000000  0.5119980000000 1.0
C      1  0.5776490000000  0.5635900000000  0.4889750000000 1.0
C      1  0.5405590000000  0.4634670000000  0.5443980000000 1.0
C      1  0.5924310000000  0.5347770000000  0.4920320000000 1.0
C      1  0.4104440000000  0.5406830000000  0.4445260000000 1.0
C      1  0.5610000000000  0.5378250000000  0.5480750000000 1.0
C      1  0.6012660000000  0.4999320000000  0.5284030000000 1.0
C      1  0.4641650000000  0.5419220000000  0.5440710000000 1.0
C      1  0.5350700000000  0.6127280000000  0.4397830000000 1.0
C      1  0.5118980000000  0.6142490000000  0.4247980000000 1.0
C      1  0.5318440000000  0.5628750000000  0.5837850000000 1.0
C      1  0.4318690000000  0.4498620000000  0.5699420000000 1.0
C      1  0.5043070000000  0.4587160000000  0.5059790000000 1.0
C      1  0.4316440000000  0.4624230000000  0.4747190000000 1.0
C      1  0.3942350000000  0.5069300000000  0.4941830000000 1.0
C      1  0.4395280000000  0.4241270000000  0.4496680000000 1.0
C      1  0.4914310000000  0.5728130000000  0.5054420000000 1.0
C      1  0.5420030000000  0.4067540000000  0.5499930000000 1.0
C      1  0.4962880000000  0.5904680000000  0.5457690000000 1.0
C      1  0.4698140000000  0.5243360000000  0.4006240000000 1.0
C      1  0.5610390000000  0.5928020000000  0.5262350000000 1.0
C      1  0.4289530000000  0.3865960000000  0.5321110000000 1.0
C      1  0.5471780000000  0.5916420000000  0.4537090000000 1.0
C      1  0.5552050000000  0.4812870000000  0.4505690000000 1.0
C      1  0.5380030000000  0.5790750000000  0.5386650000000 1.0
C      1  0.4985120000000  0.4120460000000  0.5214240000000 1.0
C      1  0.5963870000000  0.4576880000000  0.5563570000000 1.0
C      1  0.4646530000000  0.5149400000000  0.5546230000000 1.0
C      1  0.5123340000000  0.5374490000000  0.5500660000000 1.0
C      1  0.5430740000000  0.4924680000000  0.5525910000000 1.0
C      1  0.4127220000000  0.4049680000000  0.5198360000000 1.0
C      1  0.5371550000000  0.5496940000000  0.5349860000000 1.0
C      1  0.5287100000000  0.5714750000000  0.4659600000000 1.0
C      1  0.4671130000000  0.5874410000000  0.5516820000000 1.0
C      1  0.5281860000000  0.4747540000000  0.3998810000000 1.0
C      1  0.5103640000000  0.4579590000000  0.5358100000000 1.0
C      1  0.4241470000000  0.5063150000000  0.5631250000000 1.0
C      1  0.4191120000000  0.5373620000000  0.5850430000000 1.0
C      1  0.3886280000000  0.4993060000000  0.4665570000000 1.0
C      1  0.5488530000000  0.5528680000000  0.4812730000000 1.0
C      1  0.4549050000000  0.5922690000000  0.4496550000000 1.0
C      1  0.6065850000000  0.5274400000000  0.4388800000000 1.0
C      1  0.4378340000000  0.4715450000000  0.4315540000000 1.0
C      1  0.5407210000000  0.4484710000000  0.4013620000000 1.0
C      1  0.5580780000000  0.4573470000000  0.5223110000000 1.0
C      1  0.5416130000000  0.5021900000000  0.4018540000000 1.0
C      1  0.4284020000000  0.5703600000000  0.5248910000000 1.0
C      1  0.5526710000000  0.6072710000000  0.5010550000000 1.0
C      1  0.4621090000000  0.4566710000000  0.4773220000000 1.0
C      1  0.4771180000000  0.4980070000000  0.5994440000000 1.0
C      1  0.4977670000000  0.4305240000000  0.4978800000000 1.0
C      1  0.4872230000000  0.3913030000000  0.4623180000000 1.0
C      1  0.5973010000000  0.5289650000000  0.5204150000000 1.0
C      1  0.5116900000000  0.5849420000000  0.4866050000000 1.0
C      1  0.4661000000000  0.4331480000000  0.4467460000000 1.0
C      1  0.5194830000000  0.5184270000000  0.5940330000000 1.0
C      1  0.4154920000000  0.5282040000000  0.4909990000000 1.0
C      1  0.6101100000000  0.4371100000000  0.5106410000000 1.0
C      1  0.5118030000000  0.5559920000000  0.4439630000000 1.0
C      1  0.4654320000000  0.5883870000000  0.5013640000000 1.0
C      1  0.4163960000000  0.4500610000000  0.4979400000000 1.0
C      1  0.4279700000000  0.4643460000000  0.5216450000000 1.0
C      1  0.4914660000000  0.5932660000000  0.4215560000000 1.0
C      1  0.5682280000000  0.4179120000000  0.4958090000000 1.0
C      1  0.4511020000000  0.5779680000000  0.4759980000000 1.0
C      1  0.4037940000000  0.5109630000000  0.4428670000000 1.0
C      1  0.4109820000000  0.5803840000000  0.5045050000000 1.0
C      1  0.5038200000000  0.5373700000000  0.4968230000000 1.0
C      1  0.5422630000000  0.5104730000000  0.5088580000000 1.0
C      1  0.4151410000000  0.4612240000000  0.5497260000000 1.0
C      1  0.5267010000000  0.4011380000000  0.5228550000000 1.0
C      1  0.5983530000000  0.5037670000000  0.4522610000000 1.0
C      1  0.5208930000000  0.5238420000000  0.4029330000000 1.0
C      1  0.5559000000000  0.5434730000000  0.5783380000000 1.0
C      1  0.4676460000000  0.4782550000000  0.4402260000000 1.0
C      1  0.5666800000000  0.4447710000000  0.4773580000000 1.0
C      1  0.5071990000000  0.6080080000000  0.5254320000000 1.0
C      1  0.4505930000000  0.5902120000000  0.5272390000000 1.0
C      1  0.4742900000000  0.3938650000000  0.5125850000000 1.0
C      1  0.5880140000000  0.4869100000000  0.5540730000000 1.0
C      1  0.5493410000000  0.4479380000000  0.5698270000000 1.0
C      1  0.5340300000000  0.3915200000000  0.4426240000000 1.0
C      1  0.4902970000000  0.5159850000000  0.5127110000000 1.0
C      1  0.5254090000000  0.4243750000000  0.4079350000000 1.0
C      1  0.4995680000000  0.4815350000000  0.4027560000000 1.0
C      1  0.4019980000000  0.4859840000000  0.5581560000000 1.0
C      1  0.4745210000000  0.5511720000000  0.3941830000000 1.0
C      1  0.4547610000000  0.4793120000000  0.6001950000000 1.0
C      1  0.4784140000000  0.4650060000000  0.4150540000000 1.0
C      1  0.4695340000000  0.4475510000000  0.5485140000000 1.0
C      1  0.5293730000000  0.5854870000000  0.5656160000000 1.0
C      1  0.5470950000000  0.4682480000000  0.5915390000000 1.0
C      1  0.5064310000000  0.4776050000000  0.4460380000000 1.0
C      1  0.4070240000000  0.5497860000000  0.4721210000000 1.0
C      1  0.4649080000000  0.4337870000000  0.4961260000000 1.0
C      1  0.4503920000000  0.5092700000000  0.4718720000000 1.0
C      1  0.5288300000000  0.4260230000000  0.5727260000000 1.0
C      1  0.5804760000000  0.5722030000000  0.5179500000000 1.0
C      1  0.5038480000000  0.5210530000000  0.4705600000000 1.0
C      1  0.4437180000000  0.5424310000000  0.5221100000000 1.0
C      1  0.4533140000000  0.4526090000000  0.5885470000000 1.0
C      1  0.5618560000000  0.4335880000000  0.4294070000000 1.0
C      1  0.5148360000000  0.4999170000000  0.5178740000000 1.0
C      1  0.4825830000000  0.4756070000000  0.4921370000000 1.0
C      1  0.4790140000000  0.6071390000000  0.4436230000000 1.0
C      1  0.4206080000000  0.5747570000000  0.4793960000000 1.0
C      1  0.5884460000000  0.5059030000000  0.4812800000000 1.0
C      1  0.4679030000000  0.5523310000000  0.4755190000000 1.0
C      1  0.4956280000000  0.4315340000000  0.5445250000000 1.0
C      1  0.5559840000000  0.4663400000000  0.4948500000000 1.0
C      1  0.4788250000000  0.5498650000000  0.5879150000000 1.0
C      1  0.5178280000000  0.4680850000000  0.5963600000000 1.0
C      1  0.4478760000000  0.5203070000000  0.4220960000000 1.0
C      1  0.5870430000000  0.5342720000000  0.4197770000000 1.0
C      1  0.5707040000000  0.5086910000000  0.4142400000000 1.0
C      1  0.4238730000000  0.4496940000000  0.4486360000000 1.0
C      1  0.5789980000000  0.4894250000000  0.4352760000000 1.0
C      1  0.4778090000000  0.4367600000000  0.5848110000000 1.0
C      1  0.5611240000000  0.4283210000000  0.5235580000000 1.0
C      1  0.4364170000000  0.5464180000000  0.4318680000000 1.0
C      1  0.5662180000000  0.5952240000000  0.4764140000000 1.0
C      1  0.3817820000000  0.4945410000000  0.5406410000000 1.0
C      1  0.5143400000000  0.5030130000000  0.5477810000000 1.0
C      1  0.4858130000000  0.5386260000000  0.4537160000000 1.0
C      1  0.5462050000000  0.4079690000000  0.4223600000000 1.0
C      1  0.4225860000000  0.4212690000000  0.4985590000000 1.0
C      1  0.5773440000000  0.4376780000000  0.5671100000000 1.0
C      1  0.5198740000000  0.4182010000000  0.4797020000000 1.0
C      1  0.5299280000000  0.5452910000000  0.4216900000000 1.0
C      1  0.5065160000000  0.4426280000000  0.5858980000000 1.0
C      1  0.5498430000000  0.4504700000000  0.4512650000000 1.0
C      1  0.5587050000000  0.4929910000000  0.5785900000000 1.0
C      1  0.5940640000000  0.4512530000000  0.4687470000000 1.0
C      1  0.5046070000000  0.4936940000000  0.5929370000000 1.0
C      1  0.6058740000000  0.4591670000000  0.4927500000000 1.0
C      1  0.4121290000000  0.5652930000000  0.5486270000000 1.0
C      1  0.5397030000000  0.4031000000000  0.4956890000000 1.0
C      1  0.4683810000000  0.4901800000000  0.5417240000000 1.0
C      1  0.4511250000000  0.4042990000000  0.5277900000000 1.0
C      1  0.5486730000000  0.5179840000000  0.5916480000000 1.0
C      1  0.5112920000000  0.4058300000000  0.4538850000000 1.0
C      1  0.4260620000000  0.5184890000000  0.5327400000000 1.0
END
