TITL C-951337-3020-265 -1.09431865569979e-06 125000 -750.245994050373 0 0 121 (C1) n - 1
REM
REM in /home/bkarasulu/work/CARBON/AIRSS/Generating-Clusters/EDIP-Nigel-Params/with-SteepDescent/Only-C1/SD-CG/HFTN-CG
REM
REM
REM
REM
REM
REM ./C.cell (11c1c37f851c82e70ff6c80c92926a4b)
REM
REM compiler GCC version 9.2.1 20190827 (Red Hat 9.2.1-1)
REM options -cpp -mtune=generic -march=x86-64 -g -O0 -fpre-include=/usr/include/finclude/math-vector-fortran.h
REM seed 1050480137 -1821192213 -1882860056 -622675927 1528038342 19770553 1277376875 -774013408 -1810688662 -552684382 -1788023651 2124357932 1803321601 -240309668 -368475269 511064822 735274216 -1525296485 1913594033 1034129942 1166616510 58400361 1502447491 2082097719 663196597 730621203 2042732556 878314800 967876448 -160189228 -534644151 1025663746 715162822
REM
CELL 1.54180   50.00000   50.00000   50.00000   90.00000   90.00000   90.00000
LATT -1
SFAC C  
C      1  0.5576320000000  0.5516100000000  0.5028100000000 1.0
C      1  0.4072670000000  0.5072440000000  0.4685520000000 1.0
C      1  0.4952170000000  0.5412340000000  0.4934290000000 1.0
C      1  0.5252240000000  0.5611050000000  0.4429140000000 1.0
C      1  0.5068400000000  0.4606470000000  0.5762360000000 1.0
C      1  0.5580320000000  0.5142920000000  0.5935090000000 1.0
C      1  0.4817080000000  0.5657110000000  0.5602410000000 1.0
C      1  0.4624070000000  0.5461810000000  0.5692740000000 1.0
C      1  0.4981440000000  0.5539860000000  0.4592710000000 1.0
C      1  0.4646000000000  0.4377720000000  0.5635740000000 1.0
C      1  0.4438870000000  0.4996190000000  0.5093390000000 1.0
C      1  0.5300000000000  0.5876810000000  0.5340540000000 1.0
C      1  0.5436450000000  0.5351920000000  0.5801490000000 1.0
C      1  0.5089810000000  0.4922070000000  0.5993220000000 1.0
C      1  0.4577680000000  0.5044820000000  0.5555570000000 1.0
C      1  0.5784920000000  0.4535930000000  0.4998160000000 1.0
C      1  0.5186170000000  0.5142320000000  0.5303770000000 1.0
C      1  0.5151900000000  0.5356740000000  0.5780590000000 1.0
C      1  0.4655900000000  0.5397080000000  0.4992200000000 1.0
C      1  0.5175580000000  0.4735770000000  0.4667060000000 1.0
C      1  0.5294640000000  0.4264440000000  0.5042210000000 1.0
C      1  0.5971370000000  0.4744300000000  0.4948810000000 1.0
C      1  0.4259880000000  0.4471460000000  0.4935580000000 1.0
C      1  0.5947490000000  0.5219780000000  0.5049140000000 1.0
C      1  0.4304720000000  0.5320330000000  0.5525150000000 1.0
C      1  0.5893620000000  0.5179510000000  0.5583330000000 1.0
C      1  0.5190630000000  0.4284290000000  0.4432810000000 1.0
C      1  0.4280560000000  0.4868820000000  0.4631890000000 1.0
C      1  0.5909790000000  0.4717770000000  0.4411980000000 1.0
C      1  0.4599300000000  0.5217970000000  0.5211960000000 1.0
C      1  0.4218540000000  0.4797880000000  0.5575520000000 1.0
C      1  0.4457300000000  0.5346960000000  0.4770880000000 1.0
C      1  0.4549520000000  0.4519110000000  0.5013590000000 1.0
C      1  0.5399910000000  0.4598720000000  0.5360350000000 1.0
C      1  0.4142550000000  0.5048270000000  0.5176600000000 1.0
C      1  0.4503420000000  0.5912790000000  0.5336200000000 1.0
C      1  0.5054490000000  0.4264040000000  0.4848070000000 1.0
C      1  0.5639960000000  0.5342460000000  0.4535400000000 1.0
C      1  0.5464970000000  0.5437450000000  0.4303020000000 1.0
C      1  0.5817750000000  0.4965770000000  0.4315330000000 1.0
C      1  0.4793870000000  0.5318010000000  0.4463170000000 1.0
C      1  0.5011870000000  0.5977570000000  0.5264470000000 1.0
C      1  0.4982450000000  0.4919050000000  0.5236090000000 1.0
C      1  0.4942600000000  0.4368400000000  0.5290620000000 1.0
C      1  0.5024720000000  0.5118860000000  0.4893950000000 1.0
C      1  0.5309140000000  0.5743540000000  0.5597620000000 1.0
C      1  0.4092670000000  0.5328710000000  0.5097240000000 1.0
C      1  0.5026950000000  0.4181450000000  0.5521980000000 1.0
C      1  0.5655250000000  0.4810700000000  0.5743510000000 1.0
C      1  0.4989990000000  0.4896100000000  0.4502690000000 1.0
C      1  0.5528680000000  0.4638190000000  0.5094410000000 1.0
C      1  0.5029520000000  0.4658260000000  0.6043510000000 1.0
C      1  0.5322420000000  0.4984870000000  0.4819260000000 1.0
C      1  0.4148180000000  0.5053730000000  0.5474540000000 1.0
C      1  0.4768830000000  0.5844540000000  0.5388990000000 1.0
C      1  0.5014010000000  0.5973390000000  0.4964070000000 1.0
C      1  0.5437730000000  0.4336540000000  0.5506110000000 1.0
C      1  0.4804550000000  0.4608460000000  0.5623420000000 1.0
C      1  0.5094850000000  0.4637120000000  0.5179920000000 1.0
C      1  0.5781560000000  0.5397880000000  0.5183540000000 1.0
C      1  0.4281230000000  0.5767650000000  0.5291830000000 1.0
C      1  0.4516390000000  0.6073480000000  0.4795570000000 1.0
C      1  0.4193320000000  0.4580380000000  0.4666700000000 1.0
C      1  0.4713120000000  0.4644130000000  0.4815440000000 1.0
C      1  0.5307810000000  0.4094010000000  0.4613970000000 1.0
C      1  0.4764510000000  0.4062140000000  0.4537380000000 1.0
C      1  0.5207710000000  0.4336480000000  0.5713370000000 1.0
C      1  0.4543690000000  0.5742110000000  0.4482780000000 1.0
C      1  0.4767610000000  0.5943820000000  0.4811610000000 1.0
C      1  0.4740870000000  0.4822630000000  0.5420890000000 1.0
C      1  0.5819440000000  0.5037530000000  0.5812840000000 1.0
C      1  0.4934400000000  0.4581070000000  0.4065280000000 1.0
C      1  0.4663070000000  0.4285620000000  0.5175640000000 1.0
C      1  0.4516830000000  0.4735590000000  0.5228160000000 1.0
C      1  0.5328720000000  0.5647040000000  0.5139280000000 1.0
C      1  0.4814440000000  0.5788140000000  0.4576840000000 1.0
C      1  0.5544480000000  0.5575470000000  0.5652320000000 1.0
C      1  0.4461420000000  0.4330770000000  0.5435110000000 1.0
C      1  0.5728580000000  0.4374200000000  0.4763290000000 1.0
C      1  0.4705720000000  0.5191050000000  0.5774450000000 1.0
C      1  0.5131880000000  0.4775410000000  0.4066870000000 1.0
C      1  0.5116930000000  0.5432460000000  0.5249140000000 1.0
C      1  0.4836260000000  0.5195120000000  0.4179210000000 1.0
C      1  0.4632870000000  0.5025100000000  0.4092570000000 1.0
C      1  0.4163430000000  0.5319750000000  0.4809010000000 1.0
C      1  0.4761250000000  0.4443010000000  0.4230650000000 1.0
C      1  0.5329570000000  0.4550570000000  0.4473150000000 1.0
C      1  0.5892130000000  0.5217010000000  0.4435590000000 1.0
C      1  0.5858770000000  0.4477480000000  0.4530280000000 1.0
C      1  0.4895590000000  0.4284290000000  0.4433810000000 1.0
C      1  0.4564780000000  0.4916080000000  0.4779110000000 1.0
C      1  0.5470710000000  0.5061870000000  0.5336420000000 1.0
C      1  0.4319060000000  0.4446260000000  0.4454090000000 1.0
C      1  0.5210640000000  0.5765000000000  0.4897770000000 1.0
C      1  0.4512060000000  0.4575740000000  0.4296640000000 1.0
C      1  0.4819550000000  0.4110130000000  0.4972020000000 1.0
C      1  0.4096440000000  0.4535820000000  0.5162510000000 1.0
C      1  0.5382730000000  0.5732810000000  0.4663570000000 1.0
C      1  0.5615320000000  0.5566370000000  0.4745170000000 1.0
C      1  0.4447370000000  0.4842880000000  0.4195380000000 1.0
C      1  0.5374010000000  0.5192510000000  0.4163890000000 1.0
C      1  0.4673250000000  0.3974890000000  0.4775520000000 1.0
C      1  0.5516740000000  0.4962540000000  0.4308680000000 1.0
C      1  0.4364670000000  0.5910300000000  0.4630970000000 1.0
C      1  0.4521990000000  0.5440700000000  0.4496770000000 1.0
C      1  0.5466530000000  0.5096070000000  0.4587390000000 1.0
C      1  0.5541740000000  0.4930970000000  0.5056270000000 1.0
C      1  0.4988840000000  0.5129920000000  0.5822580000000 1.0
C      1  0.4250260000000  0.4963760000000  0.4357820000000 1.0
C      1  0.5470700000000  0.4832950000000  0.5526100000000 1.0
C      1  0.5072970000000  0.5021470000000  0.4237500000000 1.0
C      1  0.5084420000000  0.5547790000000  0.5564820000000 1.0
C      1  0.5825640000000  0.4979250000000  0.4980970000000 1.0
C      1  0.4824640000000  0.5072500000000  0.4662170000000 1.0
C      1  0.5674840000000  0.5293060000000  0.5434730000000 1.0
C      1  0.4257590000000  0.5488820000000  0.5285780000000 1.0
C      1  0.5281920000000  0.4146240000000  0.5320400000000 1.0
C      1  0.5489490000000  0.4187710000000  0.4825090000000 1.0
C      1  0.5005730000000  0.4576900000000  0.4866620000000 1.0
C      1  0.4290800000000  0.4590680000000  0.5378800000000 1.0
C      1  0.5384300000000  0.4699550000000  0.4220390000000 1.0
END
