TITL C-950536-5891-299 -3.76682028696371e-06 125000 -175.263969958039 0 0 31 (C1) n - 1
REM
REM in /home/bkarasulu/work/CARBON/AIRSS/Generating-Clusters/EDIP-Nigel-Params/with-SteepDescent/Only-C1/SD-CG/HFTN-CG
REM
REM
REM
REM
REM
REM ./C.cell (11c1c37f851c82e70ff6c80c92926a4b)
REM
REM compiler GCC version 9.2.1 20190827 (Red Hat 9.2.1-1)
REM options -cpp -mtune=generic -march=x86-64 -g -O0 -fpre-include=/usr/include/finclude/math-vector-fortran.h
REM seed -117638035 -1800983032 -2088361726 881285299 -894625399 1077802912 -869502619 1705913197 705431357 -1067420385 -251701766 -2086895202 -1849540461 837290678 1538176975 -515896389 -161901904 -1675472605 959649739 -521083229 923523264 -2012410391 1613860844 13851855 -339234812 -681705004 -814591425 -52069707 69151514 -1657553415 -1272368297 -491081601 227796566
REM
CELL 1.54180   50.00000   50.00000   50.00000   90.00000   90.00000   90.00000
LATT -1
SFAC C  
C      1  0.4787300000000  0.5001280000000  0.5185950000000 1.0
C      1  0.5076240000000  0.4624020000000  0.5428600000000 1.0
C      1  0.5194550000000  0.5602130000000  0.5171500000000 1.0
C      1  0.5088260000000  0.5366080000000  0.5226090000000 1.0
C      1  0.4508110000000  0.4707290000000  0.4933150000000 1.0
C      1  0.4577150000000  0.5116240000000  0.4426680000000 1.0
C      1  0.4888500000000  0.4368120000000  0.5016470000000 1.0
C      1  0.4351770000000  0.5121350000000  0.5077080000000 1.0
C      1  0.5176550000000  0.4685430000000  0.4935760000000 1.0
C      1  0.4698320000000  0.4720360000000  0.4723790000000 1.0
C      1  0.4857790000000  0.5267300000000  0.5063440000000 1.0
C      1  0.5613760000000  0.4693020000000  0.5093970000000 1.0
C      1  0.4807480000000  0.5014740000000  0.4324820000000 1.0
C      1  0.4770600000000  0.5000250000000  0.4618430000000 1.0
C      1  0.4932400000000  0.4551400000000  0.4780920000000 1.0
C      1  0.5552280000000  0.4671380000000  0.5355440000000 1.0
C      1  0.5300470000000  0.5004990000000  0.5582320000000 1.0
C      1  0.5454340000000  0.4718930000000  0.4868490000000 1.0
C      1  0.4934820000000  0.5202550000000  0.4776530000000 1.0
C      1  0.5249780000000  0.5164700000000  0.5351240000000 1.0
C      1  0.4634210000000  0.5467150000000  0.5072990000000 1.0
C      1  0.4691480000000  0.5725310000000  0.5074920000000 1.0
C      1  0.5119920000000  0.4484570000000  0.5167940000000 1.0
C      1  0.4515570000000  0.4904110000000  0.5132420000000 1.0
C      1  0.4966520000000  0.4910750000000  0.5408870000000 1.0
C      1  0.5475570000000  0.5161530000000  0.4572960000000 1.0
C      1  0.5343140000000  0.4718820000000  0.5538960000000 1.0
C      1  0.5516590000000  0.4915080000000  0.4685600000000 1.0
C      1  0.5142690000000  0.5339980000000  0.4636010000000 1.0
C      1  0.4370880000000  0.5386410000000  0.5047820000000 1.0
C      1  0.5402980000000  0.5384720000000  0.4720850000000 1.0
END
