TITL C-951333-8791-128 -2.42639064089484e-06 125000 -219.039196732126 0 0 36 (C1) n - 1
REM
REM in /home/bkarasulu/work/CARBON/AIRSS/Generating-Clusters/EDIP-Nigel-Params/with-SteepDescent/Only-C1/SD-CG/HFTN-CG
REM
REM
REM
REM
REM
REM ./C.cell (11c1c37f851c82e70ff6c80c92926a4b)
REM
REM compiler GCC version 9.2.1 20190827 (Red Hat 9.2.1-1)
REM options -cpp -mtune=generic -march=x86-64 -g -O0 -fpre-include=/usr/include/finclude/math-vector-fortran.h
REM seed 1255050360 1678526765 587897621 629759074 1072750811 -1478137854 1608311273 1094412326 1080195938 -906966557 -266125307 1764645248 -367114381 855526892 -2131807355 -733315900 -2128902867 1978775709 1807276281 1151067869 -332127209 1503916345 -1141573556 -481287457 814698661 1615319427 1221883869 -819407817 1316849250 -1581350738 -1477347740 1845090149 103442710
REM
CELL 1.54180   50.00000   50.00000   50.00000   90.00000   90.00000   90.00000
LATT -1
SFAC C  
C      1  0.4672910000000  0.5253720000000  0.5353740000000 1.0
C      1  0.5043280000000  0.4475410000000  0.4904550000000 1.0
C      1  0.5230890000000  0.4614420000000  0.4710410000000 1.0
C      1  0.4792820000000  0.4703640000000  0.5498760000000 1.0
C      1  0.5029880000000  0.5574860000000  0.4872660000000 1.0
C      1  0.5117960000000  0.4683220000000  0.5131580000000 1.0
C      1  0.4570880000000  0.4964860000000  0.4635020000000 1.0
C      1  0.4779560000000  0.5508780000000  0.5256590000000 1.0
C      1  0.5053180000000  0.4820550000000  0.4602660000000 1.0
C      1  0.5493190000000  0.4616830000000  0.5123170000000 1.0
C      1  0.4756050000000  0.4517850000000  0.4827860000000 1.0
C      1  0.4877520000000  0.5214350000000  0.5570540000000 1.0
C      1  0.4579620000000  0.5112880000000  0.4895840000000 1.0
C      1  0.5482130000000  0.4809960000000  0.5341600000000 1.0
C      1  0.5484930000000  0.4696380000000  0.4843980000000 1.0
C      1  0.4631950000000  0.5187250000000  0.4436580000000 1.0
C      1  0.5642350000000  0.4922120000000  0.4767280000000 1.0
C      1  0.4614170000000  0.4762880000000  0.5260060000000 1.0
C      1  0.5645800000000  0.5083810000000  0.4987190000000 1.0
C      1  0.4872100000000  0.4939890000000  0.5632840000000 1.0
C      1  0.5129020000000  0.5070970000000  0.4475570000000 1.0
C      1  0.5056090000000  0.4597230000000  0.5414060000000 1.0
C      1  0.4716680000000  0.5025610000000  0.5151980000000 1.0
C      1  0.4554770000000  0.5438850000000  0.4543220000000 1.0
C      1  0.5012800000000  0.4973390000000  0.5094210000000 1.0
C      1  0.4577250000000  0.5398530000000  0.4823650000000 1.0
C      1  0.5096780000000  0.5347070000000  0.5396380000000 1.0
C      1  0.5202890000000  0.5198580000000  0.5153010000000 1.0
C      1  0.5267530000000  0.5243260000000  0.4649930000000 1.0
C      1  0.5479390000000  0.5083860000000  0.5215460000000 1.0
C      1  0.4900420000000  0.5174430000000  0.4352990000000 1.0
C      1  0.5218440000000  0.5371170000000  0.4896420000000 1.0
C      1  0.4600070000000  0.4567960000000  0.5058220000000 1.0
C      1  0.5277250000000  0.4738310000000  0.5531020000000 1.0
C      1  0.4770960000000  0.4734780000000  0.4615120000000 1.0
C      1  0.4768480000000  0.5572350000000  0.4975860000000 1.0
END
