TITL C-951348-1603-574 -1.25144910468059e-06 125000 -200.77892126857 0 0 34 (C1) n - 1
REM
REM in /home/bkarasulu/work/CARBON/AIRSS/Generating-Clusters/EDIP-Nigel-Params/with-SteepDescent/Only-C1/SD-CG/HFTN-CG
REM
REM
REM
REM
REM
REM ./C.cell (11c1c37f851c82e70ff6c80c92926a4b)
REM
REM compiler GCC version 9.2.1 20190827 (Red Hat 9.2.1-1)
REM options -cpp -mtune=generic -march=x86-64 -g -O0 -fpre-include=/usr/include/finclude/math-vector-fortran.h
REM seed 2041520073 109397950 1230369455 -809883998 591138197 1850481308 1213824626 -583973919 1074729519 672360160 -947057226 -951417812 -2081644884 -935475851 -1261618117 739046632 -226105342 -835400713 -1920681902 175757876 1523974403 -465576932 -1480047245 -1413178622 1304543868 -436736550 1396299061 1769199620 649050749 1604462236 -1658626215 -1786436930 -389283399
REM
CELL 1.54180   50.00000   50.00000   50.00000   90.00000   90.00000   90.00000
LATT -1
SFAC C  
C      1  0.4585020000000  0.5067300000000  0.5266910000000 1.0
C      1  0.4636140000000  0.5246080000000  0.5454990000000 1.0
C      1  0.5135370000000  0.5460890000000  0.4824160000000 1.0
C      1  0.5238760000000  0.5508340000000  0.5088460000000 1.0
C      1  0.5310860000000  0.5175570000000  0.4440680000000 1.0
C      1  0.5333180000000  0.5297910000000  0.4691070000000 1.0
C      1  0.4701730000000  0.4357970000000  0.5338260000000 1.0
C      1  0.5207380000000  0.4928960000000  0.4478120000000 1.0
C      1  0.4477380000000  0.4463500000000  0.5193820000000 1.0
C      1  0.5164530000000  0.5712480000000  0.5533160000000 1.0
C      1  0.4887820000000  0.5696310000000  0.5547200000000 1.0
C      1  0.5663110000000  0.5073050000000  0.5152430000000 1.0
C      1  0.4687370000000  0.4630780000000  0.5041440000000 1.0
C      1  0.4693450000000  0.4493310000000  0.4777180000000 1.0
C      1  0.4961440000000  0.4438220000000  0.5287090000000 1.0
C      1  0.4447620000000  0.4356740000000  0.4738770000000 1.0
C      1  0.4569220000000  0.5053130000000  0.4779200000000 1.0
C      1  0.5111610000000  0.4642070000000  0.5164480000000 1.0
C      1  0.5513330000000  0.4828360000000  0.5139330000000 1.0
C      1  0.4612890000000  0.4924100000000  0.5034150000000 1.0
C      1  0.5203530000000  0.4642110000000  0.4880320000000 1.0
C      1  0.4747710000000  0.5462200000000  0.5559050000000 1.0
C      1  0.4865860000000  0.5456910000000  0.4766020000000 1.0
C      1  0.5474450000000  0.4722430000000  0.4883250000000 1.0
C      1  0.5587970000000  0.5346840000000  0.4824880000000 1.0
C      1  0.4793680000000  0.4684480000000  0.4580040000000 1.0
C      1  0.4604330000000  0.4892140000000  0.4552090000000 1.0
C      1  0.5134810000000  0.5712700000000  0.5257430000000 1.0
C      1  0.5514440000000  0.5424370000000  0.5099390000000 1.0
C      1  0.4636710000000  0.5320350000000  0.4757900000000 1.0
C      1  0.5771480000000  0.5136050000000  0.4891670000000 1.0
C      1  0.5059990000000  0.4777030000000  0.4660550000000 1.0
C      1  0.5317410000000  0.4752590000000  0.5324780000000 1.0
C      1  0.4349420000000  0.4314750000000  0.4991720000000 1.0
END
