TITL C-951338-5626-131 -3.62912046377723e-06 125000 -1074.69115685922 0 0 170 (C1) n - 1
REM
REM in /home/bkarasulu/work/CARBON/AIRSS/Generating-Clusters/EDIP-Nigel-Params/with-SteepDescent/Only-C1/SD-CG/HFTN-CG
REM
REM
REM
REM
REM
REM ./C.cell (11c1c37f851c82e70ff6c80c92926a4b)
REM
REM compiler GCC version 9.2.1 20190827 (Red Hat 9.2.1-1)
REM options -cpp -mtune=generic -march=x86-64 -g -O0 -fpre-include=/usr/include/finclude/math-vector-fortran.h
REM seed -1327171726 -1683363820 1862909946 230294342 2052463541 -1332482441 213522164 8018951 830263966 -793758629 1643353471 902329076 1239723733 -1322184899 167400178 2053896376 1506692396 -1971442590 344520743 1075691557 407874275 -1585501400 -374277830 1393673313 1150345531 1332073966 1567548026 -689656601 -691718887 -616735591 -2068938094 -2029731916 -787720867
REM
CELL 1.54180   50.00000   50.00000   50.00000   90.00000   90.00000   90.00000
LATT -1
SFAC C  
C      1  0.5377570000000  0.6050720000000  0.4729260000000 1.0
C      1  0.5122190000000  0.5466980000000  0.4628150000000 1.0
C      1  0.4720080000000  0.5544980000000  0.4008080000000 1.0
C      1  0.5518190000000  0.4319430000000  0.4539350000000 1.0
C      1  0.5708000000000  0.4835900000000  0.4300520000000 1.0
C      1  0.4124390000000  0.4758830000000  0.5562980000000 1.0
C      1  0.4347760000000  0.4504530000000  0.4269720000000 1.0
C      1  0.3897250000000  0.4546700000000  0.5129370000000 1.0
C      1  0.5936200000000  0.5171050000000  0.5519910000000 1.0
C      1  0.4119970000000  0.5452710000000  0.4938130000000 1.0
C      1  0.5196260000000  0.5521770000000  0.5888780000000 1.0
C      1  0.4796990000000  0.4616640000000  0.4109600000000 1.0
C      1  0.5428840000000  0.4086070000000  0.4692720000000 1.0
C      1  0.5030680000000  0.3813040000000  0.5134310000000 1.0
C      1  0.4104690000000  0.5675490000000  0.4501440000000 1.0
C      1  0.4882980000000  0.5051330000000  0.4427300000000 1.0
C      1  0.5903350000000  0.5242830000000  0.4762390000000 1.0
C      1  0.4658120000000  0.5093290000000  0.4655900000000 1.0
C      1  0.5833640000000  0.5462820000000  0.4577850000000 1.0
C      1  0.4726410000000  0.4952080000000  0.4924530000000 1.0
C      1  0.4779550000000  0.5882510000000  0.5481790000000 1.0
C      1  0.4988090000000  0.4582670000000  0.5523520000000 1.0
C      1  0.4566100000000  0.5999750000000  0.5032490000000 1.0
C      1  0.5751530000000  0.5688680000000  0.4740630000000 1.0
C      1  0.5590440000000  0.5161500000000  0.4209680000000 1.0
C      1  0.4193270000000  0.5219980000000  0.4383240000000 1.0
C      1  0.6025570000000  0.4820720000000  0.4741310000000 1.0
C      1  0.5458050000000  0.4543190000000  0.5368940000000 1.0
C      1  0.5027110000000  0.5827390000000  0.4262710000000 1.0
C      1  0.5918670000000  0.5446890000000  0.5553880000000 1.0
C      1  0.4787340000000  0.3783550000000  0.5268850000000 1.0
C      1  0.5185440000000  0.4292860000000  0.4185360000000 1.0
C      1  0.6111800000000  0.5073140000000  0.4661600000000 1.0
C      1  0.5665280000000  0.5436040000000  0.4339560000000 1.0
C      1  0.5606730000000  0.5202240000000  0.5183090000000 1.0
C      1  0.5556550000000  0.4171600000000  0.4983270000000 1.0
C      1  0.3759280000000  0.4523700000000  0.4890460000000 1.0
C      1  0.4545110000000  0.5466560000000  0.5204710000000 1.0
C      1  0.4639830000000  0.4137270000000  0.5548950000000 1.0
C      1  0.5988710000000  0.5122470000000  0.5225960000000 1.0
C      1  0.5125300000000  0.4258610000000  0.5177010000000 1.0
C      1  0.4349910000000  0.5088410000000  0.5835460000000 1.0
C      1  0.4449340000000  0.4349420000000  0.5632470000000 1.0
C      1  0.5791860000000  0.5692660000000  0.5522580000000 1.0
C      1  0.5377870000000  0.4394450000000  0.5113950000000 1.0
C      1  0.4340040000000  0.5881240000000  0.4876400000000 1.0
C      1  0.4598250000000  0.5187750000000  0.5378010000000 1.0
C      1  0.4103500000000  0.5235050000000  0.5448720000000 1.0
C      1  0.5070490000000  0.4528210000000  0.4046660000000 1.0
C      1  0.5401720000000  0.5655120000000  0.5235200000000 1.0
C      1  0.5826660000000  0.5624700000000  0.5020780000000 1.0
C      1  0.4997700000000  0.5506210000000  0.5382250000000 1.0
C      1  0.4828660000000  0.5150300000000  0.5858290000000 1.0
C      1  0.5063980000000  0.5980430000000  0.5410770000000 1.0
C      1  0.4527760000000  0.4789630000000  0.4459030000000 1.0
C      1  0.5939520000000  0.4494730000000  0.5128160000000 1.0
C      1  0.5264800000000  0.5234680000000  0.5869250000000 1.0
C      1  0.4438120000000  0.5565470000000  0.5647630000000 1.0
C      1  0.4549950000000  0.4154720000000  0.5072840000000 1.0
C      1  0.4325990000000  0.5830580000000  0.4583700000000 1.0
C      1  0.5817410000000  0.4716850000000  0.4565050000000 1.0
C      1  0.4304870000000  0.4553290000000  0.5432730000000 1.0
C      1  0.4318100000000  0.4287020000000  0.4704610000000 1.0
C      1  0.5087210000000  0.6063810000000  0.5132020000000 1.0
C      1  0.4617500000000  0.4421570000000  0.4231640000000 1.0
C      1  0.4015530000000  0.5407020000000  0.4513760000000 1.0
C      1  0.5368500000000  0.6043440000000  0.5023480000000 1.0
C      1  0.4093370000000  0.5828680000000  0.5022720000000 1.0
C      1  0.4838260000000  0.5906770000000  0.4464930000000 1.0
C      1  0.5336740000000  0.5703960000000  0.5713950000000 1.0
C      1  0.5712760000000  0.4985520000000  0.5641530000000 1.0
C      1  0.5980730000000  0.5362020000000  0.5026860000000 1.0
C      1  0.5127850000000  0.4406270000000  0.4713790000000 1.0
C      1  0.4906710000000  0.5076700000000  0.3926180000000 1.0
C      1  0.4554310000000  0.5805850000000  0.4399570000000 1.0
C      1  0.5320910000000  0.4850610000000  0.4507220000000 1.0
C      1  0.4805640000000  0.5624470000000  0.5190550000000 1.0
C      1  0.5327850000000  0.4578070000000  0.5930540000000 1.0
C      1  0.5545610000000  0.4459080000000  0.5789300000000 1.0
C      1  0.4686440000000  0.4667090000000  0.4804320000000 1.0
C      1  0.5834680000000  0.4419150000000  0.5415340000000 1.0
C      1  0.5620420000000  0.4763390000000  0.5262410000000 1.0
C      1  0.4595110000000  0.5012880000000  0.5970280000000 1.0
C      1  0.4917620000000  0.5580600000000  0.5876050000000 1.0
C      1  0.4528790000000  0.5944480000000  0.5321860000000 1.0
C      1  0.4361400000000  0.5376700000000  0.4228700000000 1.0
C      1  0.4923390000000  0.4608650000000  0.4639560000000 1.0
C      1  0.4157680000000  0.4445070000000  0.5185600000000 1.0
C      1  0.5044360000000  0.4843590000000  0.4549620000000 1.0
C      1  0.5062040000000  0.5099420000000  0.6008210000000 1.0
C      1  0.4962450000000  0.3949870000000  0.4861410000000 1.0
C      1  0.5487610000000  0.5676610000000  0.4349710000000 1.0
C      1  0.4543860000000  0.4961630000000  0.5178520000000 1.0
C      1  0.4589640000000  0.3977890000000  0.5314090000000 1.0
C      1  0.5103570000000  0.4425100000000  0.5763970000000 1.0
C      1  0.5393660000000  0.5222390000000  0.3972330000000 1.0
C      1  0.5659890000000  0.4156470000000  0.5444740000000 1.0
C      1  0.5300010000000  0.5073390000000  0.4824310000000 1.0
C      1  0.4909940000000  0.4398780000000  0.5316890000000 1.0
C      1  0.5527400000000  0.4644590000000  0.4148700000000 1.0
C      1  0.5216300000000  0.3995220000000  0.5299180000000 1.0
C      1  0.4411720000000  0.5377400000000  0.4948790000000 1.0
C      1  0.5006090000000  0.4233480000000  0.4920900000000 1.0
C      1  0.3982660000000  0.5441380000000  0.5290150000000 1.0
C      1  0.5526940000000  0.3991500000000  0.5229980000000 1.0
C      1  0.5676420000000  0.5761640000000  0.5246390000000 1.0
C      1  0.6002720000000  0.4784760000000  0.5042530000000 1.0
C      1  0.4267840000000  0.4957750000000  0.4508170000000 1.0
C      1  0.4083580000000  0.4743440000000  0.4593510000000 1.0
C      1  0.5520320000000  0.5075110000000  0.5873910000000 1.0
C      1  0.4541170000000  0.4118030000000  0.4606790000000 1.0
C      1  0.4629490000000  0.4726030000000  0.5944300000000 1.0
C      1  0.5599910000000  0.5047120000000  0.4914300000000 1.0
C      1  0.4862560000000  0.4300080000000  0.5919750000000 1.0
C      1  0.5458160000000  0.4374180000000  0.4262830000000 1.0
C      1  0.4853880000000  0.5895560000000  0.5009230000000 1.0
C      1  0.5248860000000  0.5680440000000  0.4179440000000 1.0
C      1  0.5530990000000  0.5830710000000  0.4601710000000 1.0
C      1  0.5159780000000  0.6180450000000  0.4605840000000 1.0
C      1  0.5626340000000  0.4752380000000  0.4958060000000 1.0
C      1  0.5175000000000  0.5402560000000  0.4105050000000 1.0
C      1  0.5468790000000  0.4208980000000  0.5655860000000 1.0
C      1  0.5162660000000  0.5046150000000  0.5486670000000 1.0
C      1  0.5205340000000  0.5717340000000  0.5444860000000 1.0
C      1  0.5202340000000  0.4993890000000  0.3905920000000 1.0
C      1  0.5315770000000  0.4611420000000  0.4912560000000 1.0
C      1  0.5739990000000  0.4454850000000  0.4655330000000 1.0
C      1  0.5185080000000  0.4071280000000  0.5614600000000 1.0
C      1  0.4611150000000  0.4450560000000  0.5864790000000 1.0
C      1  0.5797330000000  0.4344210000000  0.4919380000000 1.0
C      1  0.4845130000000  0.5048800000000  0.5574780000000 1.0
C      1  0.5190510000000  0.4742480000000  0.5380330000000 1.0
C      1  0.4520980000000  0.5600280000000  0.4188970000000 1.0
C      1  0.3888680000000  0.4752750000000  0.4803470000000 1.0
C      1  0.4869160000000  0.4068220000000  0.5732080000000 1.0
C      1  0.5364430000000  0.5383880000000  0.5136420000000 1.0
C      1  0.5124200000000  0.4762810000000  0.5092470000000 1.0
C      1  0.4720390000000  0.5667190000000  0.5689580000000 1.0
C      1  0.5541020000000  0.5009520000000  0.5396750000000 1.0
C      1  0.4368220000000  0.5267970000000  0.5590000000000 1.0
C      1  0.4190910000000  0.4858060000000  0.5813440000000 1.0
C      1  0.5419580000000  0.4837290000000  0.5988020000000 1.0
C      1  0.4855650000000  0.5488120000000  0.4776090000000 1.0
C      1  0.5041060000000  0.5022360000000  0.5008480000000 1.0
C      1  0.5113260000000  0.5250290000000  0.5261980000000 1.0
C      1  0.4744420000000  0.4919600000000  0.4160750000000 1.0
C      1  0.3931050000000  0.5320240000000  0.4763830000000 1.0
C      1  0.4899680000000  0.6186840000000  0.4516910000000 1.0
C      1  0.5117280000000  0.5270550000000  0.4383710000000 1.0
C      1  0.4922960000000  0.5779500000000  0.4732220000000 1.0
C      1  0.4749210000000  0.4752940000000  0.5574680000000 1.0
C      1  0.4929270000000  0.5375040000000  0.3943950000000 1.0
C      1  0.4026960000000  0.4969340000000  0.5407510000000 1.0
C      1  0.4275510000000  0.4250690000000  0.4999540000000 1.0
C      1  0.5272580000000  0.4734450000000  0.4024710000000 1.0
C      1  0.4689540000000  0.4472970000000  0.5114290000000 1.0
C      1  0.4655700000000  0.3982210000000  0.4836500000000 1.0
C      1  0.5613270000000  0.5733880000000  0.5729710000000 1.0
C      1  0.4561430000000  0.4694260000000  0.5322940000000 1.0
C      1  0.4598580000000  0.5371190000000  0.4721580000000 1.0
C      1  0.4208970000000  0.4487020000000  0.4519840000000 1.0
C      1  0.5759110000000  0.4635440000000  0.5655690000000 1.0
C      1  0.4095650000000  0.5708560000000  0.5289840000000 1.0
C      1  0.5159290000000  0.3969500000000  0.4606500000000 1.0
C      1  0.5612730000000  0.6040920000000  0.5182060000000 1.0
C      1  0.5311290000000  0.5370380000000  0.4830720000000 1.0
C      1  0.4724260000000  0.4199440000000  0.4389860000000 1.0
C      1  0.5369380000000  0.5108020000000  0.4398110000000 1.0
C      1  0.4382040000000  0.5681020000000  0.5369140000000 1.0
C      1  0.5028230000000  0.4177050000000  0.4415230000000 1.0
END
