TITL C-951345-2650-155 -2.43023254941202e-06 125000 -895.465615720746 0 0 144 (C1) n - 1
REM
REM in /home/bkarasulu/work/CARBON/AIRSS/Generating-Clusters/EDIP-Nigel-Params/with-SteepDescent/Only-C1/SD-CG/HFTN-CG
REM
REM
REM
REM
REM
REM ./C.cell (11c1c37f851c82e70ff6c80c92926a4b)
REM
REM compiler GCC version 9.2.1 20190827 (Red Hat 9.2.1-1)
REM options -cpp -mtune=generic -march=x86-64 -g -O0 -fpre-include=/usr/include/finclude/math-vector-fortran.h
REM seed 1405669234 149961896 1710301703 888301015 365802997 1534022661 -881732279 1419883701 -1798167936 -837913309 412381448 -1226125852 -1133984574 -546514127 -1793955337 -320033456 1754028263 273644138 -548936152 -579452569 2026281275 1070307192 1449108498 1164538118 -904080158 -1914988210 390848100 -95670429 1368844540 -41994147 -469092190 1181964292 -1725056636
REM
CELL 1.54180   50.00000   50.00000   50.00000   90.00000   90.00000   90.00000
LATT -1
SFAC C  
C      1  0.4327470000000  0.4566360000000  0.4853680000000 1.0
C      1  0.5141140000000  0.5799010000000  0.5041830000000 1.0
C      1  0.4443410000000  0.5047230000000  0.5744360000000 1.0
C      1  0.4763520000000  0.5838930000000  0.5358680000000 1.0
C      1  0.4613830000000  0.5654310000000  0.5753470000000 1.0
C      1  0.5571650000000  0.4771690000000  0.4037880000000 1.0
C      1  0.4467460000000  0.4703380000000  0.4020490000000 1.0
C      1  0.5149720000000  0.4054030000000  0.5092480000000 1.0
C      1  0.5899820000000  0.5606400000000  0.5264120000000 1.0
C      1  0.5181310000000  0.5328840000000  0.4070020000000 1.0
C      1  0.5353380000000  0.4988720000000  0.4850060000000 1.0
C      1  0.4821070000000  0.4069550000000  0.5478860000000 1.0
C      1  0.5487800000000  0.4928440000000  0.5563990000000 1.0
C      1  0.4895150000000  0.3959200000000  0.5212830000000 1.0
C      1  0.5368400000000  0.4053410000000  0.5294230000000 1.0
C      1  0.4043260000000  0.4957870000000  0.5027060000000 1.0
C      1  0.4547080000000  0.5289060000000  0.4975490000000 1.0
C      1  0.4747630000000  0.5013900000000  0.5754690000000 1.0
C      1  0.4723430000000  0.4202490000000  0.4571120000000 1.0
C      1  0.4054870000000  0.5068230000000  0.5311120000000 1.0
C      1  0.5492670000000  0.4475040000000  0.5351770000000 1.0
C      1  0.5862730000000  0.4464600000000  0.4871040000000 1.0
C      1  0.4194020000000  0.5329240000000  0.5307030000000 1.0
C      1  0.5474810000000  0.4460250000000  0.5741170000000 1.0
C      1  0.4279100000000  0.5441490000000  0.5044650000000 1.0
C      1  0.5182370000000  0.4509770000000  0.5351610000000 1.0
C      1  0.5871550000000  0.5238540000000  0.4956450000000 1.0
C      1  0.5858780000000  0.4660210000000  0.5502860000000 1.0
C      1  0.5894040000000  0.5324290000000  0.5240490000000 1.0
C      1  0.5750410000000  0.5053950000000  0.4406720000000 1.0
C      1  0.4260280000000  0.4363240000000  0.4430230000000 1.0
C      1  0.5459920000000  0.5258140000000  0.4103880000000 1.0
C      1  0.5427040000000  0.4568150000000  0.4705610000000 1.0
C      1  0.4788910000000  0.4912780000000  0.4366080000000 1.0
C      1  0.4469100000000  0.5850310000000  0.4857940000000 1.0
C      1  0.4320720000000  0.5731110000000  0.5082590000000 1.0
C      1  0.4872110000000  0.4642570000000  0.4768970000000 1.0
C      1  0.4817060000000  0.6068110000000  0.5187310000000 1.0
C      1  0.5702300000000  0.4852580000000  0.5086600000000 1.0
C      1  0.4926010000000  0.5075370000000  0.4582940000000 1.0
C      1  0.5072820000000  0.5370280000000  0.4973390000000 1.0
C      1  0.5844990000000  0.5422310000000  0.4727390000000 1.0
C      1  0.4314410000000  0.4844200000000  0.4961460000000 1.0
C      1  0.4700130000000  0.5555090000000  0.4418290000000 1.0
C      1  0.4097670000000  0.5391430000000  0.4819960000000 1.0
C      1  0.5187410000000  0.4905310000000  0.5099330000000 1.0
C      1  0.4592950000000  0.5078480000000  0.4217400000000 1.0
C      1  0.4961780000000  0.5719540000000  0.4346910000000 1.0
C      1  0.4847690000000  0.5367190000000  0.4591340000000 1.0
C      1  0.4544370000000  0.4184710000000  0.5482850000000 1.0
C      1  0.5011010000000  0.4184780000000  0.4522440000000 1.0
C      1  0.4664480000000  0.3996970000000  0.5035470000000 1.0
C      1  0.5228740000000  0.5930750000000  0.5454390000000 1.0
C      1  0.5450450000000  0.4851330000000  0.5260210000000 1.0
C      1  0.5498140000000  0.4118650000000  0.4689990000000 1.0
C      1  0.5328130000000  0.4424930000000  0.4945070000000 1.0
C      1  0.5627300000000  0.5817800000000  0.4937180000000 1.0
C      1  0.5308210000000  0.5453290000000  0.4794530000000 1.0
C      1  0.4372340000000  0.4723720000000  0.5459440000000 1.0
C      1  0.5651930000000  0.4704490000000  0.5683830000000 1.0
C      1  0.4888720000000  0.4918830000000  0.5512190000000 1.0
C      1  0.4542210000000  0.5387420000000  0.4219460000000 1.0
C      1  0.5112680000000  0.4606820000000  0.5072340000000 1.0
C      1  0.4603300000000  0.4926240000000  0.3875860000000 1.0
C      1  0.5300230000000  0.5060450000000  0.5795900000000 1.0
C      1  0.4786190000000  0.4950840000000  0.4816140000000 1.0
C      1  0.5679410000000  0.5779250000000  0.5226690000000 1.0
C      1  0.6044720000000  0.4518030000000  0.5078250000000 1.0
C      1  0.4817990000000  0.5472620000000  0.4860610000000 1.0
C      1  0.5003060000000  0.5366690000000  0.5442420000000 1.0
C      1  0.4717820000000  0.6013850000000  0.4905480000000 1.0
C      1  0.4259690000000  0.5332690000000  0.4343980000000 1.0
C      1  0.5126740000000  0.6056920000000  0.5199440000000 1.0
C      1  0.5093030000000  0.4720310000000  0.5537880000000 1.0
C      1  0.4988580000000  0.4373370000000  0.5859750000000 1.0
C      1  0.4293590000000  0.5830210000000  0.5345410000000 1.0
C      1  0.5538900000000  0.5468730000000  0.4291780000000 1.0
C      1  0.5197200000000  0.5472800000000  0.5239390000000 1.0
C      1  0.5567670000000  0.5002020000000  0.4190810000000 1.0
C      1  0.5093130000000  0.5526300000000  0.5904300000000 1.0
C      1  0.4894510000000  0.4951270000000  0.3898330000000 1.0
C      1  0.5062460000000  0.5849110000000  0.4586510000000 1.0
C      1  0.4630940000000  0.4683690000000  0.4552610000000 1.0
C      1  0.4980040000000  0.4817170000000  0.4148150000000 1.0
C      1  0.5667730000000  0.4237180000000  0.4930030000000 1.0
C      1  0.4899510000000  0.5717390000000  0.5790460000000 1.0
C      1  0.5352020000000  0.5756590000000  0.4821030000000 1.0
C      1  0.5437560000000  0.5292330000000  0.5215480000000 1.0
C      1  0.4909530000000  0.5789560000000  0.4837500000000 1.0
C      1  0.5207160000000  0.4965610000000  0.4589740000000 1.0
C      1  0.4941050000000  0.4527090000000  0.4130820000000 1.0
C      1  0.5538520000000  0.4354410000000  0.4512530000000 1.0
C      1  0.5654950000000  0.5215000000000  0.5414370000000 1.0
C      1  0.4793020000000  0.4503710000000  0.5410450000000 1.0
C      1  0.5234550000000  0.4534560000000  0.5914580000000 1.0
C      1  0.5153500000000  0.4822110000000  0.5964620000000 1.0
C      1  0.4645760000000  0.4479980000000  0.4143090000000 1.0
C      1  0.4920980000000  0.5106750000000  0.5291080000000 1.0
C      1  0.5492060000000  0.4518490000000  0.4067250000000 1.0
C      1  0.4613640000000  0.5136240000000  0.5240250000000 1.0
C      1  0.4236040000000  0.5502730000000  0.4581050000000 1.0
C      1  0.4562080000000  0.4417540000000  0.4422620000000 1.0
C      1  0.5112230000000  0.4423050000000  0.4361720000000 1.0
C      1  0.5181110000000  0.5585560000000  0.4206090000000 1.0
C      1  0.5917560000000  0.4714000000000  0.5234460000000 1.0
C      1  0.4102710000000  0.4581850000000  0.4324720000000 1.0
C      1  0.5535880000000  0.5626970000000  0.5690160000000 1.0
C      1  0.5531650000000  0.5202180000000  0.5913020000000 1.0
C      1  0.5094310000000  0.5286300000000  0.5723040000000 1.0
C      1  0.4841710000000  0.4820230000000  0.5959450000000 1.0
C      1  0.5824570000000  0.5695460000000  0.4783180000000 1.0
C      1  0.5010170000000  0.5206730000000  0.3885610000000 1.0
C      1  0.5634390000000  0.5352620000000  0.5688410000000 1.0
C      1  0.4327250000000  0.5321660000000  0.5790810000000 1.0
C      1  0.4521910000000  0.5779180000000  0.5499880000000 1.0
C      1  0.4530950000000  0.4417960000000  0.5008130000000 1.0
C      1  0.4419390000000  0.5348210000000  0.5497970000000 1.0
C      1  0.5819660000000  0.4865570000000  0.4597590000000 1.0
C      1  0.4143770000000  0.4435020000000  0.4682960000000 1.0
C      1  0.4475110000000  0.5677340000000  0.4611230000000 1.0
C      1  0.4159750000000  0.4895350000000  0.5531220000000 1.0
C      1  0.4447790000000  0.4161830000000  0.5197010000000 1.0
C      1  0.5149020000000  0.4661550000000  0.4585200000000 1.0
C      1  0.5709230000000  0.5326220000000  0.4485310000000 1.0
C      1  0.4245580000000  0.4803680000000  0.4209050000000 1.0
C      1  0.5699200000000  0.4712300000000  0.4808720000000 1.0
C      1  0.4494560000000  0.4841140000000  0.5213800000000 1.0
C      1  0.5469050000000  0.5759350000000  0.5434410000000 1.0
C      1  0.5494100000000  0.5249530000000  0.4921480000000 1.0
C      1  0.5199120000000  0.4103960000000  0.4772290000000 1.0
C      1  0.3961730000000  0.5147380000000  0.4833940000000 1.0
C      1  0.5311360000000  0.4154690000000  0.5566510000000 1.0
C      1  0.5595840000000  0.4218520000000  0.5223220000000 1.0
C      1  0.4478380000000  0.5025380000000  0.4772240000000 1.0
C      1  0.4992490000000  0.5748860000000  0.5509620000000 1.0
C      1  0.4342520000000  0.5035740000000  0.4405820000000 1.0
C      1  0.5348860000000  0.5647280000000  0.5900420000000 1.0
C      1  0.4725390000000  0.4235510000000  0.4858350000000 1.0
C      1  0.5033340000000  0.4200630000000  0.5627740000000 1.0
C      1  0.4739660000000  0.4542180000000  0.5877120000000 1.0
C      1  0.4460120000000  0.5515290000000  0.5946610000000 1.0
C      1  0.5385970000000  0.4353200000000  0.4263620000000 1.0
C      1  0.4554080000000  0.4510990000000  0.5614030000000 1.0
C      1  0.4685800000000  0.4620600000000  0.5159990000000 1.0
END
