TITL C-950532-2784-278 -1.04547735258926e-06 125000 -135.507082871822 0 0 25 (C1) n - 1
REM
REM in /home/bkarasulu/work/CARBON/AIRSS/Generating-Clusters/EDIP-Nigel-Params/with-SteepDescent/Only-C1/SD-CG/HFTN-CG
REM
REM
REM
REM
REM
REM ./C.cell (11c1c37f851c82e70ff6c80c92926a4b)
REM
REM compiler GCC version 9.2.1 20190827 (Red Hat 9.2.1-1)
REM options -cpp -mtune=generic -march=x86-64 -g -O0 -fpre-include=/usr/include/finclude/math-vector-fortran.h
REM seed 2084095437 -547852934 517349273 -1242541515 1156034015 -1728399932 1471207010 904954146 -928560196 988592701 1916925369 1923903466 -1626559610 -1125334210 1427784413 428893951 851833967 1993754440 -710583049 -1559214454 1025779072 990255224 1121630857 -1496172329 1165773273 1052344593 1638713946 -1088829661 -1544973734 1856105066 1506049082 -1611443959 1966563408
REM
CELL 1.54180   50.00000   50.00000   50.00000   90.00000   90.00000   90.00000
LATT -1
SFAC C  
C      1  0.4837650000000  0.4907130000000  0.5306990000000 1.0
C      1  0.5462270000000  0.4646490000000  0.4670740000000 1.0
C      1  0.5199880000000  0.5037520000000  0.4623780000000 1.0
C      1  0.4828350000000  0.5091280000000  0.5113470000000 1.0
C      1  0.4487590000000  0.5521710000000  0.5138260000000 1.0
C      1  0.4831150000000  0.5272680000000  0.4907340000000 1.0
C      1  0.5152690000000  0.4210010000000  0.5312070000000 1.0
C      1  0.4653740000000  0.5495050000000  0.4922040000000 1.0
C      1  0.5005550000000  0.5243130000000  0.4682080000000 1.0
C      1  0.4947920000000  0.4017820000000  0.5337200000000 1.0
C      1  0.5275650000000  0.4804210000000  0.4770940000000 1.0
C      1  0.5323710000000  0.5094470000000  0.4377330000000 1.0
C      1  0.4604400000000  0.5881290000000  0.4564850000000 1.0
C      1  0.4646920000000  0.5683330000000  0.4722460000000 1.0
C      1  0.4865310000000  0.4259820000000  0.5455970000000 1.0
C      1  0.5199930000000  0.5333500000000  0.4294260000000 1.0
C      1  0.5080790000000  0.4490300000000  0.5439330000000 1.0
C      1  0.5219280000000  0.4553790000000  0.5697680000000 1.0
C      1  0.5163010000000  0.4737470000000  0.5011760000000 1.0
C      1  0.5261400000000  0.5455350000000  0.4067800000000 1.0
C      1  0.5019990000000  0.4710360000000  0.5244550000000 1.0
C      1  0.5182770000000  0.4804120000000  0.5824940000000 1.0
C      1  0.5419910000000  0.4753240000000  0.5709830000000 1.0
C      1  0.4325020000000  0.5564010000000  0.5331670000000 1.0
C      1  0.5005110000000  0.5431940000000  0.4472650000000 1.0
END
