TITL C-951341-1326-696 -4.56779051022289e-06 125000 -946.828640328311 0 0 151 (C1) n - 1
REM
REM in /home/bkarasulu/work/CARBON/AIRSS/Generating-Clusters/EDIP-Nigel-Params/with-SteepDescent/Only-C1/SD-CG/HFTN-CG
REM
REM
REM
REM
REM
REM ./C.cell (11c1c37f851c82e70ff6c80c92926a4b)
REM
REM compiler GCC version 9.2.1 20190827 (Red Hat 9.2.1-1)
REM options -cpp -mtune=generic -march=x86-64 -g -O0 -fpre-include=/usr/include/finclude/math-vector-fortran.h
REM seed 2140073974 1016792717 -2045110074 2064038245 1793285307 -1403386849 1953500204 -176826827 754101939 496471944 1648618927 1594076409 -213965237 751012684 -1597022883 -559188522 -1640761571 -193411437 2013531433 1527263711 -1636765284 -1315347484 -2017056202 1664039481 -316454449 55035713 125701879 957881726 -938933673 -1215002834 -150325440 182009531 -149546859
REM
CELL 1.54180   50.00000   50.00000   50.00000   90.00000   90.00000   90.00000
LATT -1
SFAC C  
C      1  0.5745810000000  0.4592940000000  0.4795080000000 1.0
C      1  0.4250620000000  0.4434570000000  0.5207390000000 1.0
C      1  0.4697430000000  0.5072120000000  0.5940370000000 1.0
C      1  0.4303130000000  0.5485270000000  0.5021770000000 1.0
C      1  0.5819310000000  0.5489950000000  0.4773550000000 1.0
C      1  0.3997810000000  0.5267620000000  0.4717680000000 1.0
C      1  0.4810050000000  0.4476780000000  0.4825370000000 1.0
C      1  0.5237300000000  0.5985530000000  0.4719150000000 1.0
C      1  0.5745070000000  0.5202190000000  0.5674020000000 1.0
C      1  0.5337610000000  0.6049340000000  0.5173190000000 1.0
C      1  0.4217460000000  0.5652410000000  0.4531260000000 1.0
C      1  0.5662250000000  0.5597430000000  0.5019060000000 1.0
C      1  0.4155750000000  0.4491070000000  0.4933070000000 1.0
C      1  0.4720360000000  0.5177950000000  0.4989010000000 1.0
C      1  0.4343440000000  0.4333850000000  0.4753200000000 1.0
C      1  0.4974140000000  0.5050990000000  0.4398720000000 1.0
C      1  0.5067220000000  0.4005910000000  0.5465850000000 1.0
C      1  0.5900920000000  0.5042320000000  0.4513280000000 1.0
C      1  0.4653080000000  0.4663780000000  0.5213060000000 1.0
C      1  0.5039150000000  0.6047090000000  0.5146570000000 1.0
C      1  0.5310410000000  0.3980540000000  0.5321390000000 1.0
C      1  0.4349040000000  0.5738410000000  0.5194410000000 1.0
C      1  0.4575380000000  0.4323080000000  0.4313650000000 1.0
C      1  0.4170280000000  0.5242800000000  0.5152660000000 1.0
C      1  0.5949830000000  0.5043800000000  0.5140340000000 1.0
C      1  0.6012770000000  0.4851150000000  0.5344390000000 1.0
C      1  0.4567480000000  0.5901270000000  0.4791960000000 1.0
C      1  0.4685210000000  0.4728390000000  0.4079490000000 1.0
C      1  0.5292390000000  0.4339910000000  0.4169330000000 1.0
C      1  0.5189190000000  0.5200960000000  0.5029050000000 1.0
C      1  0.4565530000000  0.4958170000000  0.4839150000000 1.0
C      1  0.4263990000000  0.4668700000000  0.4387180000000 1.0
C      1  0.5129470000000  0.5845620000000  0.5543080000000 1.0
C      1  0.5009520000000  0.4876260000000  0.4683010000000 1.0
C      1  0.4519480000000  0.5281390000000  0.4116700000000 1.0
C      1  0.5120020000000  0.4825310000000  0.6013700000000 1.0
C      1  0.4412820000000  0.5542090000000  0.4222190000000 1.0
C      1  0.5439280000000  0.4669110000000  0.5177340000000 1.0
C      1  0.4836650000000  0.4801010000000  0.5935210000000 1.0
C      1  0.5098970000000  0.5350510000000  0.4098130000000 1.0
C      1  0.4917650000000  0.5183860000000  0.3944780000000 1.0
C      1  0.5698880000000  0.5232780000000  0.4639960000000 1.0
C      1  0.5296980000000  0.4636430000000  0.5831750000000 1.0
C      1  0.4638180000000  0.4193820000000  0.5384450000000 1.0
C      1  0.4407200000000  0.4818440000000  0.4162260000000 1.0
C      1  0.4298390000000  0.5007870000000  0.5281430000000 1.0
C      1  0.5304770000000  0.4317150000000  0.5793980000000 1.0
C      1  0.4906840000000  0.5834220000000  0.5331280000000 1.0
C      1  0.5297850000000  0.4945140000000  0.4223210000000 1.0
C      1  0.4851400000000  0.5716510000000  0.4350110000000 1.0
C      1  0.4502140000000  0.4116780000000  0.5621670000000 1.0
C      1  0.5254610000000  0.5157090000000  0.5683840000000 1.0
C      1  0.4826820000000  0.4626090000000  0.5690870000000 1.0
C      1  0.5047440000000  0.4181080000000  0.5707720000000 1.0
C      1  0.5527780000000  0.4776470000000  0.4274170000000 1.0
C      1  0.4615300000000  0.4269870000000  0.4904460000000 1.0
C      1  0.5014150000000  0.5614810000000  0.4140300000000 1.0
C      1  0.4081630000000  0.4861410000000  0.5406620000000 1.0
C      1  0.5776200000000  0.4030110000000  0.5270200000000 1.0
C      1  0.4777320000000  0.5236960000000  0.5330480000000 1.0
C      1  0.5850940000000  0.4467460000000  0.5062020000000 1.0
C      1  0.4749660000000  0.6125380000000  0.4759880000000 1.0
C      1  0.4074340000000  0.4788950000000  0.4861170000000 1.0
C      1  0.4458590000000  0.5098970000000  0.4581960000000 1.0
C      1  0.4408130000000  0.4821850000000  0.5057960000000 1.0
C      1  0.6008030000000  0.5163080000000  0.5557460000000 1.0
C      1  0.4906670000000  0.5278070000000  0.5993420000000 1.0
C      1  0.4607140000000  0.4739200000000  0.5501570000000 1.0
C      1  0.5628720000000  0.5456700000000  0.5561660000000 1.0
C      1  0.5710780000000  0.4213510000000  0.5067160000000 1.0
C      1  0.5110980000000  0.4596000000000  0.5576160000000 1.0
C      1  0.5459790000000  0.4937920000000  0.5307410000000 1.0
C      1  0.5933700000000  0.4774870000000  0.4640100000000 1.0
C      1  0.5756320000000  0.5696160000000  0.5663920000000 1.0
C      1  0.4882020000000  0.4911830000000  0.3997090000000 1.0
C      1  0.4812680000000  0.4015520000000  0.4969020000000 1.0
C      1  0.5789510000000  0.4889560000000  0.4295570000000 1.0
C      1  0.4543730000000  0.5048320000000  0.5475630000000 1.0
C      1  0.5557660000000  0.4043370000000  0.5445560000000 1.0
C      1  0.5687560000000  0.5749810000000  0.4658210000000 1.0
C      1  0.4961140000000  0.4741980000000  0.5143620000000 1.0
C      1  0.3995430000000  0.5098410000000  0.4957980000000 1.0
C      1  0.4846410000000  0.5542770000000  0.4587070000000 1.0
C      1  0.5565460000000  0.4736940000000  0.5748440000000 1.0
C      1  0.4769900000000  0.4467480000000  0.4173190000000 1.0
C      1  0.4362560000000  0.4411550000000  0.4469850000000 1.0
C      1  0.4901540000000  0.5559930000000  0.5161950000000 1.0
C      1  0.4389050000000  0.5947200000000  0.5013960000000 1.0
C      1  0.5059760000000  0.4245140000000  0.4519140000000 1.0
C      1  0.5622540000000  0.5904780000000  0.5560660000000 1.0
C      1  0.4552230000000  0.5746240000000  0.5409080000000 1.0
C      1  0.4122390000000  0.5529600000000  0.4775820000000 1.0
C      1  0.5533760000000  0.4284090000000  0.5606250000000 1.0
C      1  0.4154640000000  0.5104040000000  0.4515390000000 1.0
C      1  0.4476100000000  0.5148190000000  0.5745650000000 1.0
C      1  0.5063380000000  0.3948300000000  0.4844800000000 1.0
C      1  0.5029160000000  0.5117510000000  0.5472000000000 1.0
C      1  0.5650940000000  0.4359780000000  0.4631090000000 1.0
C      1  0.5849120000000  0.4614460000000  0.5329510000000 1.0
C      1  0.5032610000000  0.4462600000000  0.4294160000000 1.0
C      1  0.6006980000000  0.5302030000000  0.5289960000000 1.0
C      1  0.5521660000000  0.4996320000000  0.5612120000000 1.0
C      1  0.5362050000000  0.5605870000000  0.4899950000000 1.0
C      1  0.5729270000000  0.4329660000000  0.4360700000000 1.0
C      1  0.4292760000000  0.5089650000000  0.4075130000000 1.0
C      1  0.5018030000000  0.5313040000000  0.4587960000000 1.0
C      1  0.5092700000000  0.4393440000000  0.4790050000000 1.0
C      1  0.4414050000000  0.5862800000000  0.4532140000000 1.0
C      1  0.4643360000000  0.5079810000000  0.4340300000000 1.0
C      1  0.5590270000000  0.4135960000000  0.4812180000000 1.0
C      1  0.5168300000000  0.4550650000000  0.5256660000000 1.0
C      1  0.4759440000000  0.4750840000000  0.4747250000000 1.0
C      1  0.4088470000000  0.4821440000000  0.4563190000000 1.0
C      1  0.4186980000000  0.4606130000000  0.5441030000000 1.0
C      1  0.4391650000000  0.5413660000000  0.5735450000000 1.0
C      1  0.5558750000000  0.5054680000000  0.4847570000000 1.0
C      1  0.4571330000000  0.5419540000000  0.4913000000000 1.0
C      1  0.5488160000000  0.4745930000000  0.4878480000000 1.0
C      1  0.4784460000000  0.4332040000000  0.5774060000000 1.0
C      1  0.5540770000000  0.4488170000000  0.4220700000000 1.0
C      1  0.4082050000000  0.5168980000000  0.4239850000000 1.0
C      1  0.5140380000000  0.4258380000000  0.5117340000000 1.0
C      1  0.5706120000000  0.5398930000000  0.5250650000000 1.0
C      1  0.5279910000000  0.4108680000000  0.4364320000000 1.0
C      1  0.5341760000000  0.5432210000000  0.5645480000000 1.0
C      1  0.4540410000000  0.4375950000000  0.5182380000000 1.0
C      1  0.4697500000000  0.5724390000000  0.5872900000000 1.0
C      1  0.5239120000000  0.5749780000000  0.4560250000000 1.0
C      1  0.4406440000000  0.4314090000000  0.5796710000000 1.0
C      1  0.5643880000000  0.5103890000000  0.5128110000000 1.0
C      1  0.5233660000000  0.4666790000000  0.4732430000000 1.0
C      1  0.5333690000000  0.5228370000000  0.4224650000000 1.0
C      1  0.5153130000000  0.5001730000000  0.5241270000000 1.0
C      1  0.4567030000000  0.5785260000000  0.4286220000000 1.0
C      1  0.5704620000000  0.4525740000000  0.5585250000000 1.0
C      1  0.5495340000000  0.5353120000000  0.4440870000000 1.0
C      1  0.4501180000000  0.5663490000000  0.5683970000000 1.0
C      1  0.4845140000000  0.4032840000000  0.5271420000000 1.0
C      1  0.5385040000000  0.5904270000000  0.5418100000000 1.0
C      1  0.5331850000000  0.4014620000000  0.4816310000000 1.0
C      1  0.4897130000000  0.5530520000000  0.5836400000000 1.0
C      1  0.5183490000000  0.5478530000000  0.5102000000000 1.0
C      1  0.5146630000000  0.5626780000000  0.5728720000000 1.0
C      1  0.4326020000000  0.4563360000000  0.5687820000000 1.0
C      1  0.4680540000000  0.5313140000000  0.3874770000000 1.0
C      1  0.4747060000000  0.5644400000000  0.4852070000000 1.0
C      1  0.4986700000000  0.5152520000000  0.4836500000000 1.0
C      1  0.4988040000000  0.6020060000000  0.4866050000000 1.0
C      1  0.5485460000000  0.5644350000000  0.4474270000000 1.0
C      1  0.5467000000000  0.5973240000000  0.4907880000000 1.0
C      1  0.5162070000000  0.5117960000000  0.5968050000000 1.0
END
