TITL C-951339-9237-25 -1.78718844772005e-06 125000 -352.903081861723 0 0 58 (C1) n - 1
REM
REM in /home/bkarasulu/work/CARBON/AIRSS/Generating-Clusters/EDIP-Nigel-Params/with-SteepDescent/Only-C1/SD-CG/HFTN-CG
REM
REM
REM
REM
REM
REM ./C.cell (11c1c37f851c82e70ff6c80c92926a4b)
REM
REM compiler GCC version 9.2.1 20190827 (Red Hat 9.2.1-1)
REM options -cpp -mtune=generic -march=x86-64 -g -O0 -fpre-include=/usr/include/finclude/math-vector-fortran.h
REM seed -671956731 -2066126929 1960034538 523546237 -1906856225 254499404 -608171279 212898881 -780564489 1489880884 1919902262 -995451619 -1472017779 -999765898 -1457593388 975879242 769463912 815547497 596822305 1936201520 1838275895 362455352 -1752496116 -1587675043 -742125878 131270785 -1885357665 1241117219 1803629167 1275637824 738497016 -648440540 1504271303
REM
CELL 1.54180   50.00000   50.00000   50.00000   90.00000   90.00000   90.00000
LATT -1
SFAC C  
C      1  0.4661910000000  0.4856190000000  0.4321560000000 1.0
C      1  0.5617690000000  0.5306000000000  0.4824680000000 1.0
C      1  0.4577080000000  0.5049900000000  0.5640930000000 1.0
C      1  0.5811330000000  0.5223520000000  0.5046140000000 1.0
C      1  0.5348720000000  0.5420910000000  0.5606550000000 1.0
C      1  0.4428470000000  0.4790660000000  0.5116960000000 1.0
C      1  0.5012270000000  0.5470420000000  0.5161540000000 1.0
C      1  0.5197240000000  0.5517210000000  0.4682610000000 1.0
C      1  0.4398180000000  0.4829120000000  0.4416090000000 1.0
C      1  0.5395540000000  0.4645210000000  0.5538490000000 1.0
C      1  0.5533550000000  0.5042600000000  0.5402920000000 1.0
C      1  0.4746390000000  0.5489920000000  0.4618390000000 1.0
C      1  0.4463780000000  0.5450090000000  0.5027100000000 1.0
C      1  0.5680060000000  0.4755170000000  0.5103850000000 1.0
C      1  0.5060370000000  0.5027790000000  0.5654890000000 1.0
C      1  0.5700160000000  0.5268880000000  0.5330570000000 1.0
C      1  0.4329650000000  0.4522350000000  0.5166110000000 1.0
C      1  0.4521240000000  0.4369600000000  0.5018050000000 1.0
C      1  0.4863890000000  0.5040140000000  0.4433800000000 1.0
C      1  0.4887060000000  0.5331590000000  0.4400300000000 1.0
C      1  0.5164080000000  0.4755870000000  0.5088710000000 1.0
C      1  0.5315200000000  0.5493660000000  0.5143290000000 1.0
C      1  0.4917920000000  0.4465400000000  0.5408850000000 1.0
C      1  0.5642610000000  0.4769610000000  0.5406800000000 1.0
C      1  0.5496960000000  0.5483440000000  0.5373140000000 1.0
C      1  0.5419210000000  0.4913470000000  0.5054180000000 1.0
C      1  0.5011050000000  0.4350030000000  0.4656570000000 1.0
C      1  0.5035000000000  0.4426350000000  0.4931920000000 1.0
C      1  0.5125970000000  0.5203670000000  0.4749880000000 1.0
C      1  0.4286420000000  0.4903790000000  0.4875300000000 1.0
C      1  0.5875850000000  0.4942720000000  0.5017460000000 1.0
C      1  0.4922640000000  0.5445220000000  0.5438190000000 1.0
C      1  0.4804710000000  0.4898650000000  0.5673050000000 1.0
C      1  0.4719290000000  0.4763430000000  0.5055780000000 1.0
C      1  0.5433700000000  0.5533340000000  0.4879340000000 1.0
C      1  0.4944210000000  0.5668320000000  0.4749920000000 1.0
C      1  0.4392040000000  0.5162760000000  0.4784880000000 1.0
C      1  0.4445410000000  0.5239350000000  0.5509220000000 1.0
C      1  0.4539100000000  0.4501460000000  0.4743530000000 1.0
C      1  0.4425340000000  0.5388000000000  0.5290440000000 1.0
C      1  0.4745320000000  0.4414600000000  0.4546770000000 1.0
C      1  0.5218130000000  0.4422980000000  0.4475950000000 1.0
C      1  0.4926250000000  0.5216700000000  0.4988610000000 1.0
C      1  0.4802220000000  0.4477530000000  0.5115550000000 1.0
C      1  0.4804810000000  0.4628170000000  0.5608230000000 1.0
C      1  0.4896990000000  0.5700700000000  0.5026460000000 1.0
C      1  0.5333250000000  0.5118970000000  0.4410000000000 1.0
C      1  0.5099990000000  0.4636390000000  0.4329490000000 1.0
C      1  0.5198860000000  0.4551920000000  0.5324510000000 1.0
C      1  0.4651100000000  0.5307900000000  0.4844880000000 1.0
C      1  0.4334060000000  0.4700770000000  0.4658510000000 1.0
C      1  0.5089470000000  0.5316310000000  0.5622640000000 1.0
C      1  0.4803170000000  0.4591860000000  0.4310540000000 1.0
C      1  0.5418490000000  0.5080780000000  0.4789040000000 1.0
C      1  0.4927830000000  0.4946890000000  0.5118630000000 1.0
C      1  0.5121560000000  0.4918710000000  0.4412340000000 1.0
C      1  0.5281390000000  0.4858830000000  0.5693200000000 1.0
C      1  0.5195810000000  0.5394210000000  0.4382660000000 1.0
END
