TITL C-951342-2639-226 -3.96509804185592e-05 125000 -187.93032109828 0 0 32 (C1) n - 1
REM
REM in /home/bkarasulu/work/CARBON/AIRSS/Generating-Clusters/EDIP-Nigel-Params/with-SteepDescent/Only-C1/SD-CG/HFTN-CG
REM
REM
REM
REM
REM
REM ./C.cell (11c1c37f851c82e70ff6c80c92926a4b)
REM
REM compiler GCC version 9.2.1 20190827 (Red Hat 9.2.1-1)
REM options -cpp -mtune=generic -march=x86-64 -g -O0 -fpre-include=/usr/include/finclude/math-vector-fortran.h
REM seed 1441190556 139174491 -536400340 -998556678 -181382138 2023689070 14338299 660798037 97966806 -398810512 -1501598151 -1207149977 -1311923451 -2096342447 -134280950 -1026352475 1715665994 -1656793668 -423998690 -1775272350 1413327362 -1446082574 -372069214 -1156967495 -1316398734 -645780103 -178643318 117501472 60592729 2098735939 2051555981 575256738 783373240
REM
CELL 1.54180   50.00000   50.00000   50.00000   90.00000   90.00000   90.00000
LATT -1
SFAC C  
C      1  0.4533800000000  0.4920810000000  0.4497630000000 1.0
C      1  0.4652250000000  0.4723820000000  0.4928820000000 1.0
C      1  0.5539920000000  0.5094350000000  0.4722580000000 1.0
C      1  0.4527620000000  0.5474140000000  0.5208030000000 1.0
C      1  0.5591370000000  0.5450580000000  0.5021560000000 1.0
C      1  0.4731250000000  0.5348130000000  0.4605270000000 1.0
C      1  0.5122680000000  0.4944390000000  0.4565340000000 1.0
C      1  0.5311390000000  0.5449050000000  0.5075040000000 1.0
C      1  0.5517180000000  0.5033240000000  0.5199330000000 1.0
C      1  0.4288480000000  0.5196570000000  0.5105560000000 1.0
C      1  0.4733470000000  0.5535330000000  0.5036640000000 1.0
C      1  0.4326170000000  0.5103120000000  0.4839730000000 1.0
C      1  0.5091080000000  0.4679570000000  0.4647520000000 1.0
C      1  0.4589890000000  0.4645080000000  0.5185150000000 1.0
C      1  0.5329750000000  0.4524980000000  0.4675270000000 1.0
C      1  0.5187250000000  0.5096430000000  0.5541280000000 1.0
C      1  0.4875640000000  0.5430440000000  0.4825310000000 1.0
C      1  0.5541320000000  0.4573200000000  0.4995490000000 1.0
C      1  0.4511730000000  0.5206310000000  0.4519600000000 1.0
C      1  0.5366260000000  0.5216690000000  0.5366540000000 1.0
C      1  0.4659970000000  0.4662410000000  0.5440900000000 1.0
C      1  0.5127080000000  0.4825910000000  0.5562560000000 1.0
C      1  0.5398340000000  0.4360960000000  0.4887960000000 1.0
C      1  0.5270100000000  0.5154870000000  0.4672270000000 1.0
C      1  0.5641130000000  0.5174070000000  0.4972860000000 1.0
C      1  0.4488080000000  0.5214710000000  0.5297730000000 1.0
C      1  0.5287150000000  0.4664430000000  0.5402920000000 1.0
C      1  0.4451830000000  0.4849580000000  0.4764050000000 1.0
C      1  0.4863410000000  0.4750090000000  0.5588440000000 1.0
C      1  0.5142570000000  0.5331410000000  0.4867460000000 1.0
C      1  0.4865800000000  0.4610470000000  0.4794260000000 1.0
C      1  0.5436050000000  0.4754850000000  0.5186870000000 1.0
END
