TITL C-951335-1172-656 -2.2559242790928e-06 125000 -1257.4726967435 0 0 200 (C1) n - 1
REM
REM in /home/bkarasulu/work/CARBON/AIRSS/Generating-Clusters/EDIP-Nigel-Params/with-SteepDescent/Only-C1/SD-CG/HFTN-CG
REM
REM
REM
REM
REM
REM ./C.cell (11c1c37f851c82e70ff6c80c92926a4b)
REM
REM compiler GCC version 9.2.1 20190827 (Red Hat 9.2.1-1)
REM options -cpp -mtune=generic -march=x86-64 -g -O0 -fpre-include=/usr/include/finclude/math-vector-fortran.h
REM seed -70186492 212297137 191090790 593950814 -998205264 -1087228840 1121851245 539142754 267096248 -1603392338 261900725 1703838700 -1216148484 1143361127 -1112384618 1629019903 -1726985540 -35526092 -1476702663 590305748 1412834655 1873889562 1055233146 1421916461 -825532830 1958416239 -379952542 1370763530 -694648690 -1644925348 1023525931 -2068945795 -1471646507
REM
CELL 1.54180   50.00000   50.00000   50.00000   90.00000   90.00000   90.00000
LATT -1
SFAC C  
C      1  0.5687180000000  0.5150120000000  0.5183850000000 1.0
C      1  0.4486090000000  0.4398380000000  0.4295360000000 1.0
C      1  0.4233880000000  0.4834910000000  0.4333820000000 1.0
C      1  0.4515240000000  0.5429060000000  0.4046840000000 1.0
C      1  0.6010320000000  0.5752620000000  0.5082660000000 1.0
C      1  0.4523430000000  0.5445830000000  0.5441650000000 1.0
C      1  0.5708330000000  0.4692100000000  0.4884510000000 1.0
C      1  0.3863400000000  0.4568160000000  0.4877710000000 1.0
C      1  0.5951330000000  0.4878780000000  0.5517470000000 1.0
C      1  0.5383010000000  0.4841940000000  0.5647710000000 1.0
C      1  0.5182470000000  0.5252650000000  0.3802590000000 1.0
C      1  0.4248560000000  0.4124680000000  0.4832590000000 1.0
C      1  0.6023900000000  0.5357380000000  0.5434870000000 1.0
C      1  0.3869250000000  0.4379150000000  0.4669330000000 1.0
C      1  0.5677330000000  0.4833990000000  0.5176880000000 1.0
C      1  0.4814030000000  0.4258610000000  0.3992790000000 1.0
C      1  0.4550780000000  0.5215140000000  0.5233660000000 1.0
C      1  0.5022120000000  0.4809610000000  0.6014760000000 1.0
C      1  0.4531580000000  0.4942260000000  0.3922990000000 1.0
C      1  0.5654940000000  0.4277810000000  0.5228760000000 1.0
C      1  0.5292470000000  0.4434210000000  0.5893660000000 1.0
C      1  0.6088350000000  0.4517710000000  0.4972990000000 1.0
C      1  0.5317870000000  0.5756130000000  0.5745090000000 1.0
C      1  0.4095730000000  0.4571290000000  0.5586410000000 1.0
C      1  0.4919410000000  0.5239990000000  0.6158300000000 1.0
C      1  0.4737140000000  0.4843360000000  0.6001740000000 1.0
C      1  0.5479710000000  0.5519980000000  0.4118910000000 1.0
C      1  0.5441320000000  0.5638300000000  0.4396650000000 1.0
C      1  0.4048420000000  0.5279030000000  0.5099100000000 1.0
C      1  0.4878320000000  0.4378390000000  0.4525160000000 1.0
C      1  0.4788890000000  0.5915190000000  0.4282620000000 1.0
C      1  0.4289450000000  0.4075670000000  0.5376820000000 1.0
C      1  0.5316060000000  0.4325120000000  0.4047260000000 1.0
C      1  0.4209710000000  0.5425490000000  0.4278040000000 1.0
C      1  0.6018210000000  0.5976250000000  0.5259090000000 1.0
C      1  0.4974120000000  0.4498910000000  0.4253070000000 1.0
C      1  0.4713110000000  0.4711170000000  0.3970170000000 1.0
C      1  0.5163030000000  0.5740840000000  0.4440660000000 1.0
C      1  0.5150670000000  0.5181760000000  0.5392330000000 1.0
C      1  0.4645080000000  0.5211600000000  0.3865440000000 1.0
C      1  0.4962460000000  0.5508830000000  0.4087700000000 1.0
C      1  0.4630990000000  0.5152410000000  0.4296620000000 1.0
C      1  0.5115170000000  0.4775990000000  0.4293580000000 1.0
C      1  0.4539650000000  0.4107100000000  0.4760340000000 1.0
C      1  0.4280000000000  0.5052310000000  0.5684000000000 1.0
C      1  0.5891110000000  0.5853090000000  0.4846530000000 1.0
C      1  0.3956380000000  0.4448130000000  0.5133550000000 1.0
C      1  0.5588230000000  0.5264850000000  0.5464340000000 1.0
C      1  0.4934640000000  0.5482890000000  0.4560050000000 1.0
C      1  0.5598880000000  0.4873960000000  0.5882720000000 1.0
C      1  0.5636820000000  0.4607850000000  0.4300220000000 1.0
C      1  0.4511930000000  0.6015720000000  0.4699410000000 1.0
C      1  0.4916900000000  0.5482150000000  0.4881350000000 1.0
C      1  0.4896220000000  0.5191860000000  0.5533990000000 1.0
C      1  0.3824270000000  0.4907600000000  0.5321270000000 1.0
C      1  0.4245360000000  0.5673750000000  0.4865340000000 1.0
C      1  0.4943570000000  0.5039700000000  0.4312960000000 1.0
C      1  0.5349220000000  0.3711040000000  0.5060350000000 1.0
C      1  0.4141570000000  0.4316840000000  0.4641170000000 1.0
C      1  0.5967340000000  0.5226150000000  0.4870740000000 1.0
C      1  0.5711430000000  0.5480910000000  0.5892370000000 1.0
C      1  0.5210990000000  0.5051460000000  0.4940300000000 1.0
C      1  0.4665310000000  0.4222110000000  0.5016370000000 1.0
C      1  0.5016180000000  0.6006950000000  0.5037130000000 1.0
C      1  0.3845970000000  0.5055340000000  0.5050450000000 1.0
C      1  0.5175610000000  0.4942520000000  0.5214980000000 1.0
C      1  0.4998070000000  0.6058030000000  0.4737180000000 1.0
C      1  0.5476090000000  0.6031910000000  0.4703640000000 1.0
C      1  0.3863730000000  0.5341420000000  0.5566150000000 1.0
C      1  0.4388250000000  0.5710210000000  0.5360910000000 1.0
C      1  0.5469400000000  0.5387040000000  0.6033860000000 1.0
C      1  0.3921600000000  0.5483860000000  0.5293380000000 1.0
C      1  0.5499670000000  0.5060860000000  0.4896500000000 1.0
C      1  0.4399060000000  0.5230430000000  0.4646970000000 1.0
C      1  0.5686070000000  0.4001390000000  0.5131820000000 1.0
C      1  0.4221230000000  0.4839580000000  0.5130890000000 1.0
C      1  0.5520760000000  0.5531750000000  0.5324540000000 1.0
C      1  0.5000000000000  0.5643180000000  0.5353690000000 1.0
C      1  0.5707950000000  0.4446520000000  0.5644720000000 1.0
C      1  0.5767760000000  0.5068990000000  0.4129170000000 1.0
C      1  0.4845830000000  0.4002550000000  0.5464590000000 1.0
C      1  0.4966760000000  0.4654770000000  0.3853710000000 1.0
C      1  0.4950910000000  0.6059790000000  0.5596030000000 1.0
C      1  0.3919290000000  0.5415520000000  0.4651170000000 1.0
C      1  0.5655700000000  0.5995500000000  0.4906080000000 1.0
C      1  0.4468140000000  0.4416460000000  0.5149770000000 1.0
C      1  0.5416870000000  0.4738720000000  0.5297580000000 1.0
C      1  0.4767850000000  0.5960020000000  0.4579450000000 1.0
C      1  0.4509020000000  0.4882620000000  0.5582730000000 1.0
C      1  0.4022130000000  0.4677020000000  0.5310230000000 1.0
C      1  0.5394990000000  0.5203750000000  0.4461180000000 1.0
C      1  0.4972990000000  0.5502710000000  0.6033440000000 1.0
C      1  0.4288520000000  0.4963100000000  0.5967800000000 1.0
C      1  0.4402690000000  0.4491570000000  0.5886640000000 1.0
C      1  0.4602650000000  0.4448960000000  0.4028900000000 1.0
C      1  0.4605250000000  0.5072340000000  0.4783970000000 1.0
C      1  0.5440290000000  0.4810130000000  0.3894610000000 1.0
C      1  0.5336480000000  0.5075490000000  0.3973440000000 1.0
C      1  0.4352550000000  0.5348440000000  0.5687990000000 1.0
C      1  0.4899550000000  0.4188280000000  0.5693570000000 1.0
C      1  0.4419810000000  0.4643550000000  0.4440310000000 1.0
C      1  0.5226960000000  0.5927610000000  0.4653630000000 1.0
C      1  0.5570670000000  0.4236220000000  0.5499340000000 1.0
C      1  0.5432300000000  0.5090600000000  0.6066980000000 1.0
C      1  0.5185780000000  0.4182630000000  0.5772220000000 1.0
C      1  0.5817590000000  0.5288460000000  0.5668560000000 1.0
C      1  0.4342580000000  0.5669830000000  0.4369060000000 1.0
C      1  0.5152100000000  0.4154640000000  0.4257040000000 1.0
C      1  0.5111290000000  0.4348890000000  0.5208720000000 1.0
C      1  0.5611880000000  0.5732100000000  0.5771500000000 1.0
C      1  0.4853890000000  0.4071340000000  0.4210660000000 1.0
C      1  0.5400320000000  0.4448790000000  0.5144860000000 1.0
C      1  0.4808850000000  0.4461400000000  0.5594580000000 1.0
C      1  0.5104840000000  0.3874140000000  0.5055520000000 1.0
C      1  0.5490020000000  0.5431100000000  0.4653930000000 1.0
C      1  0.4598300000000  0.4766450000000  0.4822280000000 1.0
C      1  0.5496480000000  0.4160270000000  0.4436680000000 1.0
C      1  0.5067960000000  0.5916680000000  0.4221080000000 1.0
C      1  0.5239450000000  0.5534150000000  0.5917830000000 1.0
C      1  0.4752510000000  0.5555590000000  0.5847100000000 1.0
C      1  0.4714450000000  0.5661760000000  0.4122060000000 1.0
C      1  0.4316160000000  0.4544860000000  0.4678270000000 1.0
C      1  0.4305130000000  0.5816870000000  0.4619200000000 1.0
C      1  0.4201840000000  0.4252170000000  0.5117620000000 1.0
C      1  0.5838430000000  0.4915650000000  0.4583660000000 1.0
C      1  0.5884860000000  0.4630630000000  0.4489800000000 1.0
C      1  0.4720080000000  0.6091820000000  0.5446840000000 1.0
C      1  0.4014930000000  0.5267620000000  0.4432370000000 1.0
C      1  0.5278330000000  0.4617170000000  0.4676230000000 1.0
C      1  0.5939090000000  0.5102100000000  0.4364670000000 1.0
C      1  0.4618140000000  0.4684740000000  0.5787270000000 1.0
C      1  0.4309020000000  0.4347330000000  0.5613860000000 1.0
C      1  0.4609820000000  0.5415080000000  0.4471480000000 1.0
C      1  0.5149420000000  0.5880380000000  0.5495620000000 1.0
C      1  0.5901840000000  0.4461850000000  0.5209350000000 1.0
C      1  0.4525040000000  0.5385250000000  0.5927410000000 1.0
C      1  0.5689190000000  0.4783450000000  0.4058130000000 1.0
C      1  0.5514460000000  0.3815660000000  0.5289680000000 1.0
C      1  0.5102110000000  0.4053100000000  0.5304030000000 1.0
C      1  0.5482680000000  0.4486440000000  0.4848360000000 1.0
C      1  0.5897720000000  0.4596360000000  0.5471440000000 1.0
C      1  0.4620280000000  0.5126330000000  0.6083970000000 1.0
C      1  0.4857450000000  0.5741080000000  0.5092940000000 1.0
C      1  0.5937730000000  0.5374730000000  0.4437470000000 1.0
C      1  0.5529890000000  0.4975070000000  0.4594050000000 1.0
C      1  0.5209160000000  0.5388010000000  0.4929960000000 1.0
C      1  0.4929050000000  0.4376520000000  0.4969190000000 1.0
C      1  0.5586860000000  0.4539380000000  0.5894440000000 1.0
C      1  0.5137540000000  0.5058740000000  0.6074920000000 1.0
C      1  0.5543140000000  0.5947050000000  0.5169390000000 1.0
C      1  0.3935660000000  0.5060550000000  0.5552250000000 1.0
C      1  0.3968590000000  0.4860220000000  0.4838290000000 1.0
C      1  0.4092920000000  0.5509870000000  0.5696260000000 1.0
C      1  0.5090080000000  0.4817400000000  0.4784850000000 1.0
C      1  0.5149270000000  0.4672190000000  0.5789040000000 1.0
C      1  0.4542240000000  0.4424150000000  0.5438260000000 1.0
C      1  0.5231430000000  0.5544170000000  0.3942600000000 1.0
C      1  0.5506790000000  0.5223010000000  0.4165190000000 1.0
C      1  0.4997890000000  0.4557610000000  0.5393340000000 1.0
C      1  0.5885910000000  0.5499360000000  0.5202980000000 1.0
C      1  0.4584340000000  0.4004830000000  0.5310580000000 1.0
C      1  0.6181130000000  0.4784360000000  0.4972960000000 1.0
C      1  0.5361240000000  0.4005260000000  0.5491490000000 1.0
C      1  0.5755420000000  0.5973140000000  0.5369450000000 1.0
C      1  0.6093640000000  0.5039240000000  0.5051130000000 1.0
C      1  0.5639270000000  0.3969730000000  0.4849750000000 1.0
C      1  0.4271780000000  0.5118690000000  0.5207690000000 1.0
C      1  0.5241100000000  0.4588030000000  0.3914030000000 1.0
C      1  0.5047720000000  0.4245490000000  0.4734190000000 1.0
C      1  0.5090000000000  0.5224020000000  0.4485880000000 1.0
C      1  0.4102650000000  0.4997110000000  0.4544640000000 1.0
C      1  0.4508290000000  0.5925540000000  0.5504910000000 1.0
C      1  0.5581040000000  0.4219950000000  0.4704600000000 1.0
C      1  0.4658080000000  0.4192540000000  0.4448270000000 1.0
C      1  0.4520990000000  0.6014560000000  0.4998390000000 1.0
C      1  0.4755990000000  0.6118400000000  0.5153540000000 1.0
C      1  0.4326160000000  0.4996720000000  0.4118910000000 1.0
C      1  0.5029760000000  0.3968360000000  0.4796860000000 1.0
C      1  0.4914330000000  0.4792690000000  0.5232040000000 1.0
C      1  0.4186520000000  0.4689190000000  0.5918380000000 1.0
C      1  0.5847920000000  0.5000360000000  0.5760090000000 1.0
C      1  0.4707570000000  0.5007500000000  0.5395720000000 1.0
C      1  0.4805200000000  0.5475670000000  0.5552270000000 1.0
C      1  0.5390710000000  0.4745170000000  0.4445470000000 1.0
C      1  0.5265250000000  0.6012680000000  0.5240660000000 1.0
C      1  0.5494330000000  0.3726280000000  0.4809720000000 1.0
C      1  0.5757030000000  0.5747850000000  0.5535030000000 1.0
C      1  0.4418430000000  0.5761470000000  0.5075080000000 1.0
C      1  0.4921370000000  0.5231890000000  0.3978120000000 1.0
C      1  0.6090870000000  0.5079720000000  0.5345020000000 1.0
C      1  0.5556440000000  0.4331210000000  0.4216220000000 1.0
C      1  0.4722040000000  0.5254330000000  0.4978990000000 1.0
C      1  0.4103140000000  0.5689600000000  0.5444650000000 1.0
C      1  0.4149870000000  0.5401360000000  0.4830430000000 1.0
C      1  0.5958200000000  0.4452090000000  0.4713540000000 1.0
C      1  0.5351660000000  0.5130440000000  0.5582030000000 1.0
C      1  0.5804760000000  0.5377630000000  0.4684700000000 1.0
C      1  0.4456020000000  0.4696240000000  0.5067910000000 1.0
C      1  0.5223540000000  0.5448800000000  0.5242030000000 1.0
C      1  0.4879430000000  0.4683710000000  0.4937570000000 1.0
END
