TITL C-950524-1808-389 -1.25439260517084e-06 125000 -323.503778034109 0 0 53 (C1) n - 1
REM
REM in /home/bkarasulu/work/CARBON/AIRSS/Generating-Clusters/EDIP-Nigel-Params/with-SteepDescent/Only-C1/SD-CG/HFTN-CG
REM
REM
REM
REM
REM
REM ./C.cell (11c1c37f851c82e70ff6c80c92926a4b)
REM
REM compiler GCC version 9.2.1 20190827 (Red Hat 9.2.1-1)
REM options -cpp -mtune=generic -march=x86-64 -g -O0 -fpre-include=/usr/include/finclude/math-vector-fortran.h
REM seed 539990836 1673618652 -360352273 783294706 -1011151683 1595491496 -1793352055 1785593063 2078556525 -828357207 -705193624 -1650588154 435416932 1972835011 1896119617 -742410220 194162610 -471695298 1476668716 1989240798 -955061901 1712405494 1842442390 1892202644 -1677018127 -1748754325 978923105 1703595085 -1029559947 266282287 1161053290 599887062 -1004270163
REM
CELL 1.54180   50.00000   50.00000   50.00000   90.00000   90.00000   90.00000
LATT -1
SFAC C  
C      1  0.5032270000000  0.5118520000000  0.4725040000000 1.0
C      1  0.4863480000000  0.4770660000000  0.5128390000000 1.0
C      1  0.4364510000000  0.4862710000000  0.4651550000000 1.0
C      1  0.4939570000000  0.5225490000000  0.5599360000000 1.0
C      1  0.4631520000000  0.4441340000000  0.5317840000000 1.0
C      1  0.4827390000000  0.5063790000000  0.5157360000000 1.0
C      1  0.4589590000000  0.5131510000000  0.4977590000000 1.0
C      1  0.4758900000000  0.4375130000000  0.4613180000000 1.0
C      1  0.5404670000000  0.4566090000000  0.5202310000000 1.0
C      1  0.5693480000000  0.4765520000000  0.4869430000000 1.0
C      1  0.5777560000000  0.5004070000000  0.4749260000000 1.0
C      1  0.5337940000000  0.5597810000000  0.4596270000000 1.0
C      1  0.5715740000000  0.4942040000000  0.5330340000000 1.0
C      1  0.5681730000000  0.5246290000000  0.4816450000000 1.0
C      1  0.4386240000000  0.4923460000000  0.4922850000000 1.0
C      1  0.4545210000000  0.5380020000000  0.5372360000000 1.0
C      1  0.4968000000000  0.5021960000000  0.4277020000000 1.0
C      1  0.5089390000000  0.4824420000000  0.4750440000000 1.0
C      1  0.5194010000000  0.5088250000000  0.5566680000000 1.0
C      1  0.5276450000000  0.4639060000000  0.4633850000000 1.0
C      1  0.4561420000000  0.5020800000000  0.4523100000000 1.0
C      1  0.5540530000000  0.5329550000000  0.5042040000000 1.0
C      1  0.5598700000000  0.5196890000000  0.5296310000000 1.0
C      1  0.5207810000000  0.5657560000000  0.4852630000000 1.0
C      1  0.4865780000000  0.4709520000000  0.4859330000000 1.0
C      1  0.4603950000000  0.5595700000000  0.4987440000000 1.0
C      1  0.4742310000000  0.4864010000000  0.4352440000000 1.0
C      1  0.5590820000000  0.4779200000000  0.5140770000000 1.0
C      1  0.4931280000000  0.4523000000000  0.5281880000000 1.0
C      1  0.5543770000000  0.4583680000000  0.4704060000000 1.0
C      1  0.5176250000000  0.5462040000000  0.4403400000000 1.0
C      1  0.4720800000000  0.5201590000000  0.4713900000000 1.0
C      1  0.5257640000000  0.5442420000000  0.5065390000000 1.0
C      1  0.4739650000000  0.5598800000000  0.5348420000000 1.0
C      1  0.4459610000000  0.5371860000000  0.5094730000000 1.0
C      1  0.4566990000000  0.4893370000000  0.5517660000000 1.0
C      1  0.5395580000000  0.5286940000000  0.5488130000000 1.0
C      1  0.5204940000000  0.4589920000000  0.5420590000000 1.0
C      1  0.4710600000000  0.5509220000000  0.4731110000000 1.0
C      1  0.4321680000000  0.4751700000000  0.5133090000000 1.0
C      1  0.5069580000000  0.5212670000000  0.5015310000000 1.0
C      1  0.4957550000000  0.5656740000000  0.4650310000000 1.0
C      1  0.4711030000000  0.5132080000000  0.5432060000000 1.0
C      1  0.4760800000000  0.4589580000000  0.4437870000000 1.0
C      1  0.4973430000000  0.5509770000000  0.5503040000000 1.0
C      1  0.4453950000000  0.4677620000000  0.5370830000000 1.0
C      1  0.4777940000000  0.4275530000000  0.4884510000000 1.0
C      1  0.5296480000000  0.4427560000000  0.4959960000000 1.0
C      1  0.5229240000000  0.4811210000000  0.5590590000000 1.0
C      1  0.4563370000000  0.4304220000000  0.5073070000000 1.0
C      1  0.5020530000000  0.4340440000000  0.5051910000000 1.0
C      1  0.5124870000000  0.5185330000000  0.4446190000000 1.0
C      1  0.5243470000000  0.5521320000000  0.5370360000000 1.0
END
