TITL C-950525-1983-68 7.84114356320534e-07 125000 -456.170059916346 0 0 73 (C1) n - 1
REM
REM in /home/bkarasulu/work/CARBON/AIRSS/Generating-Clusters/EDIP-Nigel-Params/with-SteepDescent/Only-C1/SD-CG/HFTN-CG
REM
REM
REM
REM
REM
REM ./C.cell (11c1c37f851c82e70ff6c80c92926a4b)
REM
REM compiler GCC version 9.2.1 20190827 (Red Hat 9.2.1-1)
REM options -cpp -mtune=generic -march=x86-64 -g -O0 -fpre-include=/usr/include/finclude/math-vector-fortran.h
REM seed -1243274629 -2007458954 -1376309779 -318216170 -1046193699 1776774797 -96379586 1330340578 -716541236 -1313197245 43927310 2130962678 866534722 744762244 -1682615707 -482839026 -1452061140 -1404847458 -1497667398 -1963548464 -1020033086 1520388973 -1219848868 925388124 1360960494 -653619533 255032049 -311949877 -1045631979 -1404335678 -1579343841 -850212874 -346166269
REM
CELL 1.54180   50.00000   50.00000   50.00000   90.00000   90.00000   90.00000
LATT -1
SFAC C  
C      1  0.4234350000000  0.5542030000000  0.4868000000000 1.0
C      1  0.5264300000000  0.4654730000000  0.5363110000000 1.0
C      1  0.5260970000000  0.4810060000000  0.4582380000000 1.0
C      1  0.5114710000000  0.4572140000000  0.5618050000000 1.0
C      1  0.4922090000000  0.4181400000000  0.5400530000000 1.0
C      1  0.5044990000000  0.4817020000000  0.5764680000000 1.0
C      1  0.5079070000000  0.4217190000000  0.5170870000000 1.0
C      1  0.4473350000000  0.5019700000000  0.5487370000000 1.0
C      1  0.5493040000000  0.5598330000000  0.4915410000000 1.0
C      1  0.4882120000000  0.4924060000000  0.5337120000000 1.0
C      1  0.4313520000000  0.5209190000000  0.4371540000000 1.0
C      1  0.5166070000000  0.5275070000000  0.4890080000000 1.0
C      1  0.5583180000000  0.5147010000000  0.5111270000000 1.0
C      1  0.5123710000000  0.5400970000000  0.5659210000000 1.0
C      1  0.4879800000000  0.4441010000000  0.5499860000000 1.0
C      1  0.5036090000000  0.4334780000000  0.4680820000000 1.0
C      1  0.4790980000000  0.4350430000000  0.4508120000000 1.0
C      1  0.4482860000000  0.4875470000000  0.4677540000000 1.0
C      1  0.4196720000000  0.5262920000000  0.4850560000000 1.0
C      1  0.5192290000000  0.5578750000000  0.4942210000000 1.0
C      1  0.5195170000000  0.5330130000000  0.4396960000000 1.0
C      1  0.4471390000000  0.4757760000000  0.4948120000000 1.0
C      1  0.5496700000000  0.5007810000000  0.4639560000000 1.0
C      1  0.5196360000000  0.4835000000000  0.4289620000000 1.0
C      1  0.4728740000000  0.5430340000000  0.4445790000000 1.0
C      1  0.4879560000000  0.5161690000000  0.4861870000000 1.0
C      1  0.5005720000000  0.5543950000000  0.4464590000000 1.0
C      1  0.5512040000000  0.5112460000000  0.5461420000000 1.0
C      1  0.4956290000000  0.4632530000000  0.4912890000000 1.0
C      1  0.5177560000000  0.4495380000000  0.5108480000000 1.0
C      1  0.5073700000000  0.5103050000000  0.4245160000000 1.0
C      1  0.4770150000000  0.4638560000000  0.5312750000000 1.0
C      1  0.4656610000000  0.4279050000000  0.4925510000000 1.0
C      1  0.4512620000000  0.5573200000000  0.4846250000000 1.0
C      1  0.5635410000000  0.4624900000000  0.5074160000000 1.0
C      1  0.5187520000000  0.4946360000000  0.5326180000000 1.0
C      1  0.5654560000000  0.4861870000000  0.5551280000000 1.0
C      1  0.4537330000000  0.5241150000000  0.5280300000000 1.0
C      1  0.4799980000000  0.5667750000000  0.5263550000000 1.0
C      1  0.4395590000000  0.5158970000000  0.4647910000000 1.0
C      1  0.5088050000000  0.5637880000000  0.5219560000000 1.0
C      1  0.5704210000000  0.5005300000000  0.4861530000000 1.0
C      1  0.5530890000000  0.5493240000000  0.5401150000000 1.0
C      1  0.5022370000000  0.4631530000000  0.4202790000000 1.0
C      1  0.5249070000000  0.5536290000000  0.5437310000000 1.0
C      1  0.4669000000000  0.5468070000000  0.5442540000000 1.0
C      1  0.4774570000000  0.5021520000000  0.5614540000000 1.0
C      1  0.4687250000000  0.4565270000000  0.5031380000000 1.0
C      1  0.4553840000000  0.5276680000000  0.4245470000000 1.0
C      1  0.4935190000000  0.4162710000000  0.4921010000000 1.0
C      1  0.5634420000000  0.5448790000000  0.5130630000000 1.0
C      1  0.5308900000000  0.4515920000000  0.4665450000000 1.0
C      1  0.5062540000000  0.5687710000000  0.4704320000000 1.0
C      1  0.5290860000000  0.5226490000000  0.5800170000000 1.0
C      1  0.4319980000000  0.4885330000000  0.5168490000000 1.0
C      1  0.5286870000000  0.4953190000000  0.5857230000000 1.0
C      1  0.4639900000000  0.5339350000000  0.4711560000000 1.0
C      1  0.4651220000000  0.5718270000000  0.5034280000000 1.0
C      1  0.4964050000000  0.4879360000000  0.4721790000000 1.0
C      1  0.5363870000000  0.5273820000000  0.4637200000000 1.0
C      1  0.4767170000000  0.5108060000000  0.5135810000000 1.0
C      1  0.4778960000000  0.5073580000000  0.4303840000000 1.0
C      1  0.5534810000000  0.4829110000000  0.5803990000000 1.0
C      1  0.4841380000000  0.5320470000000  0.5636480000000 1.0
C      1  0.5567000000000  0.4644720000000  0.5368130000000 1.0
C      1  0.5417560000000  0.4479880000000  0.4939310000000 1.0
C      1  0.4559280000000  0.4285780000000  0.4658800000000 1.0
C      1  0.4206270000000  0.5143160000000  0.5109710000000 1.0
C      1  0.5563090000000  0.5488050000000  0.4665660000000 1.0
C      1  0.4738020000000  0.4844530000000  0.4514240000000 1.0
C      1  0.5831420000000  0.4758020000000  0.4920680000000 1.0
C      1  0.4786040000000  0.4594190000000  0.4351330000000 1.0
C      1  0.5294700000000  0.5089520000000  0.5082600000000 1.0
END
