TITL C-950525-1983-659 2.34906543836943e-06 125000 -1255.9628125821 0 0 200 (C1) n - 1
REM
REM in /home/bkarasulu/work/CARBON/AIRSS/Generating-Clusters/EDIP-Nigel-Params/with-SteepDescent/Only-C1/SD-CG/HFTN-CG
REM
REM
REM
REM
REM
REM ./C.cell (11c1c37f851c82e70ff6c80c92926a4b)
REM
REM compiler GCC version 9.2.1 20190827 (Red Hat 9.2.1-1)
REM options -cpp -mtune=generic -march=x86-64 -g -O0 -fpre-include=/usr/include/finclude/math-vector-fortran.h
REM seed -1053473094 1188980846 -459652616 1846490082 1321830049 44564590 -761280291 847880928 -1596637072 657938174 1216836304 -447200693 536291370 -1733345599 1583565479 906281052 -1416758959 1235120298 1916783023 719457177 -1514152247 1701215076 -713121064 -1289551135 -2142293058 1960927447 -83243682 1739516401 1992808392 223378650 249853112 192342456 600684143
REM
CELL 1.54180   50.00000   50.00000   50.00000   90.00000   90.00000   90.00000
LATT -1
SFAC C  
C      1  0.5388180000000  0.4896210000000  0.3885800000000 1.0
C      1  0.5330470000000  0.5849530000000  0.5745540000000 1.0
C      1  0.4938650000000  0.5429960000000  0.5457100000000 1.0
C      1  0.4948710000000  0.5718410000000  0.5320860000000 1.0
C      1  0.4204120000000  0.4046050000000  0.5171880000000 1.0
C      1  0.4740690000000  0.4291480000000  0.5362470000000 1.0
C      1  0.5562470000000  0.4554300000000  0.4872470000000 1.0
C      1  0.4548760000000  0.5068410000000  0.4407080000000 1.0
C      1  0.5853610000000  0.5103410000000  0.5666660000000 1.0
C      1  0.5104280000000  0.6066060000000  0.4528940000000 1.0
C      1  0.4776480000000  0.5437680000000  0.6014450000000 1.0
C      1  0.4779600000000  0.4621380000000  0.4452640000000 1.0
C      1  0.4217470000000  0.4776360000000  0.4211810000000 1.0
C      1  0.4402110000000  0.4610880000000  0.4068210000000 1.0
C      1  0.5020080000000  0.5603640000000  0.4415610000000 1.0
C      1  0.4059730000000  0.5647430000000  0.5091450000000 1.0
C      1  0.5055880000000  0.4684650000000  0.5690150000000 1.0
C      1  0.5536160000000  0.5786190000000  0.5542390000000 1.0
C      1  0.4136410000000  0.4312390000000  0.4359340000000 1.0
C      1  0.4908130000000  0.4939690000000  0.5729840000000 1.0
C      1  0.5005310000000  0.5186060000000  0.4651970000000 1.0
C      1  0.3900710000000  0.4851820000000  0.5468180000000 1.0
C      1  0.5293240000000  0.4672040000000  0.4073700000000 1.0
C      1  0.4565130000000  0.5242160000000  0.5073640000000 1.0
C      1  0.5885650000000  0.4592610000000  0.4544070000000 1.0
C      1  0.5074050000000  0.3864080000000  0.5110040000000 1.0
C      1  0.5018040000000  0.5257730000000  0.5227950000000 1.0
C      1  0.4954050000000  0.6000520000000  0.5445570000000 1.0
C      1  0.5313740000000  0.4856590000000  0.4351960000000 1.0
C      1  0.4734280000000  0.3822770000000  0.5263980000000 1.0
C      1  0.5459420000000  0.4400480000000  0.4115930000000 1.0
C      1  0.4876360000000  0.4316880000000  0.4939540000000 1.0
C      1  0.4837620000000  0.4832740000000  0.4014040000000 1.0
C      1  0.4087890000000  0.4276440000000  0.5299240000000 1.0
C      1  0.5140450000000  0.6029590000000  0.5651350000000 1.0
C      1  0.4722780000000  0.5819600000000  0.5772640000000 1.0
C      1  0.4690570000000  0.5506230000000  0.4138810000000 1.0
C      1  0.4630550000000  0.4359500000000  0.5098040000000 1.0
C      1  0.5159840000000  0.5716150000000  0.4884940000000 1.0
C      1  0.5410770000000  0.4325820000000  0.5020510000000 1.0
C      1  0.5417700000000  0.5486620000000  0.5244110000000 1.0
C      1  0.5768180000000  0.5713740000000  0.4373090000000 1.0
C      1  0.5238110000000  0.4900830000000  0.6066490000000 1.0
C      1  0.4844690000000  0.4189070000000  0.4631860000000 1.0
C      1  0.3981160000000  0.5190870000000  0.5119260000000 1.0
C      1  0.5424870000000  0.5314900000000  0.5596490000000 1.0
C      1  0.5656140000000  0.4213230000000  0.5170070000000 1.0
C      1  0.3920950000000  0.5147730000000  0.5408690000000 1.0
C      1  0.4233530000000  0.5421120000000  0.4710770000000 1.0
C      1  0.5232960000000  0.4435520000000  0.6117760000000 1.0
C      1  0.4786850000000  0.3998350000000  0.5731110000000 1.0
C      1  0.4895680000000  0.4275330000000  0.5794780000000 1.0
C      1  0.5012450000000  0.4596330000000  0.3985200000000 1.0
C      1  0.4029390000000  0.4741560000000  0.5712590000000 1.0
C      1  0.4898570000000  0.4966140000000  0.4837160000000 1.0
C      1  0.6026010000000  0.4903690000000  0.5543640000000 1.0
C      1  0.4365870000000  0.4911330000000  0.5790960000000 1.0
C      1  0.4008160000000  0.5415760000000  0.4929720000000 1.0
C      1  0.5765280000000  0.5799210000000  0.5113910000000 1.0
C      1  0.5374520000000  0.5536280000000  0.4763710000000 1.0
C      1  0.5580040000000  0.4173290000000  0.4579700000000 1.0
C      1  0.4589070000000  0.4578670000000  0.4644120000000 1.0
C      1  0.4992140000000  0.5314400000000  0.3878470000000 1.0
C      1  0.5626760000000  0.5031490000000  0.5011750000000 1.0
C      1  0.5121310000000  0.6191590000000  0.5023520000000 1.0
C      1  0.5476680000000  0.5793090000000  0.4312640000000 1.0
C      1  0.5621080000000  0.4330100000000  0.5430370000000 1.0
C      1  0.5214330000000  0.3951240000000  0.5618540000000 1.0
C      1  0.5775180000000  0.4377320000000  0.4718690000000 1.0
C      1  0.4005430000000  0.4733200000000  0.5198790000000 1.0
C      1  0.4996950000000  0.4112950000000  0.4137430000000 1.0
C      1  0.4354400000000  0.4085100000000  0.4712110000000 1.0
C      1  0.5626190000000  0.5534820000000  0.5030680000000 1.0
C      1  0.5998970000000  0.5291220000000  0.5256980000000 1.0
C      1  0.4191240000000  0.5356340000000  0.4394230000000 1.0
C      1  0.4933200000000  0.5885820000000  0.4358450000000 1.0
C      1  0.4885820000000  0.4358380000000  0.4085550000000 1.0
C      1  0.4710670000000  0.4982020000000  0.5530000000000 1.0
C      1  0.5263250000000  0.5255840000000  0.4769510000000 1.0
C      1  0.5860590000000  0.5350650000000  0.5515140000000 1.0
C      1  0.5218220000000  0.5717460000000  0.5169550000000 1.0
C      1  0.4047530000000  0.4596850000000  0.4368190000000 1.0
C      1  0.5101650000000  0.4694220000000  0.5201320000000 1.0
C      1  0.5179090000000  0.4485830000000  0.4674060000000 1.0
C      1  0.5190690000000  0.3900960000000  0.4837080000000 1.0
C      1  0.5667890000000  0.4901800000000  0.3875550000000 1.0
C      1  0.4560690000000  0.4797220000000  0.3902250000000 1.0
C      1  0.4651720000000  0.5293670000000  0.5544870000000 1.0
C      1  0.4818290000000  0.5088980000000  0.5101040000000 1.0
C      1  0.4718960000000  0.5258650000000  0.3985980000000 1.0
C      1  0.6152890000000  0.4878350000000  0.4816440000000 1.0
C      1  0.5154210000000  0.5417290000000  0.5662780000000 1.0
C      1  0.5372600000000  0.5044400000000  0.5446850000000 1.0
C      1  0.4305810000000  0.5072390000000  0.4218040000000 1.0
C      1  0.5541820000000  0.5332460000000  0.4256920000000 1.0
C      1  0.4458290000000  0.5776870000000  0.5317810000000 1.0
C      1  0.4370580000000  0.5696530000000  0.4737960000000 1.0
C      1  0.4556600000000  0.4678670000000  0.5113140000000 1.0
C      1  0.5701780000000  0.4741360000000  0.5075790000000 1.0
C      1  0.4838150000000  0.5456060000000  0.4611490000000 1.0
C      1  0.5254650000000  0.5169620000000  0.3925280000000 1.0
C      1  0.4336100000000  0.5589230000000  0.4268440000000 1.0
C      1  0.4743350000000  0.4468220000000  0.5998320000000 1.0
C      1  0.5027600000000  0.5989630000000  0.4809560000000 1.0
C      1  0.5380160000000  0.4371740000000  0.5890560000000 1.0
C      1  0.5934490000000  0.5275340000000  0.4519240000000 1.0
C      1  0.5746840000000  0.5059430000000  0.4588840000000 1.0
C      1  0.5177930000000  0.5615960000000  0.5876450000000 1.0
C      1  0.4968950000000  0.6202970000000  0.5255330000000 1.0
C      1  0.4297030000000  0.4718990000000  0.5298740000000 1.0
C      1  0.5349800000000  0.4156010000000  0.4786330000000 1.0
C      1  0.5149980000000  0.4797710000000  0.4901750000000 1.0
C      1  0.4366970000000  0.6004670000000  0.5133300000000 1.0
C      1  0.4674000000000  0.4028390000000  0.5461150000000 1.0
C      1  0.5373420000000  0.4243340000000  0.4360180000000 1.0
C      1  0.5316270000000  0.5416410000000  0.6076210000000 1.0
C      1  0.5818030000000  0.5437560000000  0.4289550000000 1.0
C      1  0.5158720000000  0.5173370000000  0.6143880000000 1.0
C      1  0.5777180000000  0.5904640000000  0.4838060000000 1.0
C      1  0.5904560000000  0.4325830000000  0.5038220000000 1.0
C      1  0.4667440000000  0.5670960000000  0.4849880000000 1.0
C      1  0.5167560000000  0.4025100000000  0.4337570000000 1.0
C      1  0.5826750000000  0.5302890000000  0.5005360000000 1.0
C      1  0.5386540000000  0.4664080000000  0.4565530000000 1.0
C      1  0.4219220000000  0.4505720000000  0.5733810000000 1.0
C      1  0.5811650000000  0.4627800000000  0.4256710000000 1.0
C      1  0.4828460000000  0.5054180000000  0.5994050000000 1.0
C      1  0.3948220000000  0.5345480000000  0.5606620000000 1.0
C      1  0.5120740000000  0.4406940000000  0.5102530000000 1.0
C      1  0.5526660000000  0.6042080000000  0.4787890000000 1.0
C      1  0.4475310000000  0.5084390000000  0.3959110000000 1.0
C      1  0.4502920000000  0.5098080000000  0.5971920000000 1.0
C      1  0.5589100000000  0.4631260000000  0.5387780000000 1.0
C      1  0.5666740000000  0.5088280000000  0.5888250000000 1.0
C      1  0.4320780000000  0.4979540000000  0.5480340000000 1.0
C      1  0.4422890000000  0.4297440000000  0.4283300000000 1.0
C      1  0.5445450000000  0.5384810000000  0.3983320000000 1.0
C      1  0.4626560000000  0.5371120000000  0.4417480000000 1.0
C      1  0.4482490000000  0.5820230000000  0.5625350000000 1.0
C      1  0.4471460000000  0.4563180000000  0.5900870000000 1.0
C      1  0.3958490000000  0.4455030000000  0.5097710000000 1.0
C      1  0.5055760000000  0.4643270000000  0.6026050000000 1.0
C      1  0.4691200000000  0.5656840000000  0.5164290000000 1.0
C      1  0.5576710000000  0.5033820000000  0.4335540000000 1.0
C      1  0.4414920000000  0.5285620000000  0.5328130000000 1.0
C      1  0.5056150000000  0.5020060000000  0.4406010000000 1.0
C      1  0.4244140000000  0.5562500000000  0.5317530000000 1.0
C      1  0.5832780000000  0.4265270000000  0.5618100000000 1.0
C      1  0.5822410000000  0.5683480000000  0.4658860000000 1.0
C      1  0.4581620000000  0.6124590000000  0.4994410000000 1.0
C      1  0.5396770000000  0.6021390000000  0.4508630000000 1.0
C      1  0.4894900000000  0.5685590000000  0.5952030000000 1.0
C      1  0.4788680000000  0.4835260000000  0.5264810000000 1.0
C      1  0.5327680000000  0.5557170000000  0.4451490000000 1.0
C      1  0.5318690000000  0.5652070000000  0.4018880000000 1.0
C      1  0.5880400000000  0.4826510000000  0.4731300000000 1.0
C      1  0.5301520000000  0.5202830000000  0.5204170000000 1.0
C      1  0.5386560000000  0.5006140000000  0.4842120000000 1.0
C      1  0.4097310000000  0.4208220000000  0.4642390000000 1.0
C      1  0.5575880000000  0.5944980000000  0.5293460000000 1.0
C      1  0.4272890000000  0.5686950000000  0.5761170000000 1.0
C      1  0.5751610000000  0.4891650000000  0.4142800000000 1.0
C      1  0.5388200000000  0.6051390000000  0.5061290000000 1.0
C      1  0.5742070000000  0.4410250000000  0.4093850000000 1.0
C      1  0.4399240000000  0.5805990000000  0.4457050000000 1.0
C      1  0.4035000000000  0.4440050000000  0.4813690000000 1.0
C      1  0.4419260000000  0.4992380000000  0.4679160000000 1.0
C      1  0.4976260000000  0.4404640000000  0.4458030000000 1.0
C      1  0.5568670000000  0.5346160000000  0.5956270000000 1.0
C      1  0.4100930000000  0.5575020000000  0.5571240000000 1.0
C      1  0.4735650000000  0.5959320000000  0.4824110000000 1.0
C      1  0.4428040000000  0.4101940000000  0.5000730000000 1.0
C      1  0.6133110000000  0.4807950000000  0.5088740000000 1.0
C      1  0.5499810000000  0.4855690000000  0.5939440000000 1.0
C      1  0.4448290000000  0.5244930000000  0.4806520000000 1.0
C      1  0.3970910000000  0.4661800000000  0.4639250000000 1.0
C      1  0.5230470000000  0.3902980000000  0.5340170000000 1.0
C      1  0.4996990000000  0.3808510000000  0.5734320000000 1.0
C      1  0.5962490000000  0.5441450000000  0.4754290000000 1.0
C      1  0.5033480000000  0.5587140000000  0.3976710000000 1.0
C      1  0.6118750000000  0.5017850000000  0.5294150000000 1.0
C      1  0.4199220000000  0.5856580000000  0.4936750000000 1.0
C      1  0.5195380000000  0.4238610000000  0.5707940000000 1.0
C      1  0.3971040000000  0.4941790000000  0.4993030000000 1.0
C      1  0.4805500000000  0.4886060000000  0.4317520000000 1.0
C      1  0.5301390000000  0.4752270000000  0.5449250000000 1.0
C      1  0.4047660000000  0.4918740000000  0.4722800000000 1.0
C      1  0.4596880000000  0.4796560000000  0.4817580000000 1.0
C      1  0.5835460000000  0.4507800000000  0.5774390000000 1.0
C      1  0.4650780000000  0.5917190000000  0.4393670000000 1.0
C      1  0.6056720000000  0.4540180000000  0.5203940000000 1.0
C      1  0.4560250000000  0.5357150000000  0.5835740000000 1.0
C      1  0.5549480000000  0.4599540000000  0.5783410000000 1.0
C      1  0.4555780000000  0.4155440000000  0.4513650000000 1.0
C      1  0.4846570000000  0.4472170000000  0.5568110000000 1.0
C      1  0.5739970000000  0.5596320000000  0.5592610000000 1.0
C      1  0.4284040000000  0.4450450000000  0.5451050000000 1.0
C      1  0.5999600000000  0.4604560000000  0.5516790000000 1.0
C      1  0.4525300000000  0.3841900000000  0.5077760000000 1.0
C      1  0.5017020000000  0.3940320000000  0.4592080000000 1.0
END
