TITL C-951346-9544-129 -3.08376858898779e-06 125000 -1153.89091268159 0 0 184 (C1) n - 1
REM
REM in /home/bkarasulu/work/CARBON/AIRSS/Generating-Clusters/EDIP-Nigel-Params/with-SteepDescent/Only-C1/SD-CG/HFTN-CG
REM
REM
REM
REM
REM
REM ./C.cell (11c1c37f851c82e70ff6c80c92926a4b)
REM
REM compiler GCC version 9.2.1 20190827 (Red Hat 9.2.1-1)
REM options -cpp -mtune=generic -march=x86-64 -g -O0 -fpre-include=/usr/include/finclude/math-vector-fortran.h
REM seed -905336639 -1052504065 1030499596 655634603 1673954225 1512823731 -944633656 222686919 -285266175 276047719 -1834007486 1250037406 707265539 1360917643 2071328006 -359116678 1845076765 813124156 -2063651654 1141286986 1127117836 -289418930 -2038919843 -839604509 -1895477201 -885124885 765098834 415127854 1992323341 -1209777305 703751436 1316173121 -1672508027
REM
CELL 1.54180   50.00000   50.00000   50.00000   90.00000   90.00000   90.00000
LATT -1
SFAC C  
C      1  0.4930170000000  0.5441700000000  0.5911990000000 1.0
C      1  0.4911500000000  0.4558160000000  0.5099150000000 1.0
C      1  0.5112840000000  0.5278140000000  0.4426680000000 1.0
C      1  0.5521160000000  0.4224070000000  0.4919850000000 1.0
C      1  0.5011600000000  0.4447990000000  0.5848040000000 1.0
C      1  0.5532220000000  0.4563570000000  0.3887220000000 1.0
C      1  0.5810440000000  0.5218190000000  0.4553780000000 1.0
C      1  0.4799530000000  0.4369660000000  0.4909060000000 1.0
C      1  0.4885600000000  0.5328560000000  0.6161490000000 1.0
C      1  0.5463770000000  0.4083500000000  0.5611770000000 1.0
C      1  0.5332700000000  0.5398280000000  0.5286660000000 1.0
C      1  0.4522330000000  0.5126780000000  0.5780860000000 1.0
C      1  0.5784640000000  0.4339760000000  0.5013270000000 1.0
C      1  0.5345800000000  0.5573250000000  0.4772990000000 1.0
C      1  0.4975340000000  0.5872110000000  0.5642150000000 1.0
C      1  0.4076190000000  0.4892740000000  0.5142680000000 1.0
C      1  0.4098860000000  0.4308520000000  0.4701590000000 1.0
C      1  0.4389690000000  0.4325690000000  0.5689210000000 1.0
C      1  0.5202640000000  0.5126500000000  0.4873590000000 1.0
C      1  0.5787250000000  0.4948830000000  0.5810900000000 1.0
C      1  0.4383950000000  0.5574260000000  0.5612220000000 1.0
C      1  0.5913130000000  0.5654260000000  0.5525100000000 1.0
C      1  0.3993660000000  0.5560580000000  0.5345880000000 1.0
C      1  0.4351580000000  0.4496670000000  0.4300740000000 1.0
C      1  0.5642620000000  0.4911820000000  0.4279410000000 1.0
C      1  0.4898710000000  0.6027820000000  0.5222890000000 1.0
C      1  0.5329000000000  0.4782060000000  0.6020410000000 1.0
C      1  0.5310970000000  0.4438810000000  0.4951620000000 1.0
C      1  0.5225720000000  0.5877750000000  0.5493130000000 1.0
C      1  0.5735860000000  0.4497400000000  0.4072370000000 1.0
C      1  0.4865590000000  0.4366090000000  0.5584140000000 1.0
C      1  0.5903760000000  0.5792360000000  0.4732600000000 1.0
C      1  0.4830370000000  0.3931880000000  0.4685730000000 1.0
C      1  0.5301770000000  0.4509040000000  0.5894730000000 1.0
C      1  0.5706020000000  0.5824420000000  0.5429820000000 1.0
C      1  0.4543150000000  0.4921930000000  0.4079870000000 1.0
C      1  0.5520560000000  0.4660110000000  0.5295220000000 1.0
C      1  0.4901170000000  0.6051590000000  0.4561130000000 1.0
C      1  0.5767310000000  0.4473120000000  0.5609380000000 1.0
C      1  0.4594160000000  0.5531250000000  0.4665510000000 1.0
C      1  0.4650930000000  0.3903600000000  0.4928480000000 1.0
C      1  0.5532020000000  0.4989310000000  0.5956050000000 1.0
C      1  0.4475250000000  0.5178890000000  0.4991520000000 1.0
C      1  0.4976690000000  0.5054520000000  0.5041670000000 1.0
C      1  0.5556780000000  0.5128210000000  0.4123680000000 1.0
C      1  0.5510990000000  0.5392610000000  0.4201020000000 1.0
C      1  0.5662750000000  0.5450190000000  0.4443040000000 1.0
C      1  0.3937700000000  0.4923500000000  0.4726230000000 1.0
C      1  0.4964450000000  0.4758440000000  0.4300640000000 1.0
C      1  0.5028350000000  0.4870460000000  0.6036760000000 1.0
C      1  0.3930900000000  0.5131730000000  0.5157030000000 1.0
C      1  0.4812140000000  0.4762980000000  0.4044080000000 1.0
C      1  0.3909010000000  0.5282210000000  0.5394130000000 1.0
C      1  0.4188840000000  0.4783760000000  0.4650790000000 1.0
C      1  0.6047560000000  0.4829160000000  0.5378090000000 1.0
C      1  0.4240820000000  0.4093320000000  0.5136030000000 1.0
C      1  0.6019130000000  0.5552860000000  0.4864620000000 1.0
C      1  0.5260930000000  0.3995210000000  0.4512020000000 1.0
C      1  0.4200790000000  0.5300750000000  0.4166730000000 1.0
C      1  0.6148530000000  0.5090310000000  0.4862050000000 1.0
C      1  0.5176400000000  0.4325440000000  0.4182320000000 1.0
C      1  0.5104170000000  0.3863840000000  0.4709010000000 1.0
C      1  0.5298920000000  0.4740200000000  0.4595280000000 1.0
C      1  0.4122460000000  0.5672760000000  0.5573030000000 1.0
C      1  0.5241730000000  0.6042610000000  0.4937050000000 1.0
C      1  0.5480070000000  0.5810900000000  0.5620980000000 1.0
C      1  0.4639340000000  0.3968670000000  0.5436070000000 1.0
C      1  0.5925350000000  0.5190460000000  0.5703640000000 1.0
C      1  0.5008180000000  0.6157800000000  0.4797880000000 1.0
C      1  0.4841710000000  0.5056070000000  0.6201460000000 1.0
C      1  0.5531620000000  0.5561380000000  0.5784970000000 1.0
C      1  0.4868180000000  0.5485540000000  0.4831820000000 1.0
C      1  0.4367240000000  0.4221040000000  0.4731380000000 1.0
C      1  0.5834970000000  0.4756770000000  0.5583290000000 1.0
C      1  0.5161330000000  0.5737640000000  0.4340810000000 1.0
C      1  0.4162920000000  0.5583600000000  0.5107660000000 1.0
C      1  0.5405600000000  0.4914200000000  0.4810430000000 1.0
C      1  0.5208340000000  0.3946300000000  0.5225520000000 1.0
C      1  0.4481120000000  0.5213940000000  0.4114050000000 1.0
C      1  0.5203960000000  0.6028440000000  0.5237900000000 1.0
C      1  0.5583450000000  0.5920630000000  0.4415340000000 1.0
C      1  0.4326670000000  0.4747280000000  0.4149590000000 1.0
C      1  0.5910920000000  0.4553660000000  0.4871980000000 1.0
C      1  0.4053140000000  0.4444730000000  0.5333090000000 1.0
C      1  0.5284960000000  0.4681490000000  0.3811490000000 1.0
C      1  0.5868930000000  0.4742540000000  0.4182660000000 1.0
C      1  0.4131380000000  0.4524360000000  0.4511190000000 1.0
C      1  0.4764410000000  0.5276360000000  0.5040050000000 1.0
C      1  0.4386260000000  0.4904940000000  0.5108330000000 1.0
C      1  0.4340320000000  0.5283900000000  0.5633410000000 1.0
C      1  0.5085970000000  0.5390800000000  0.3958670000000 1.0
C      1  0.5888480000000  0.4532950000000  0.4572710000000 1.0
C      1  0.5648150000000  0.4426750000000  0.4412150000000 1.0
C      1  0.6071550000000  0.5311230000000  0.4686690000000 1.0
C      1  0.5220600000000  0.4461240000000  0.4674840000000 1.0
C      1  0.4918190000000  0.4400860000000  0.4639740000000 1.0
C      1  0.5753520000000  0.5432920000000  0.5629620000000 1.0
C      1  0.5048660000000  0.4856380000000  0.3857010000000 1.0
C      1  0.4744060000000  0.5930240000000  0.5468920000000 1.0
C      1  0.4705600000000  0.5391260000000  0.4190590000000 1.0
C      1  0.5499070000000  0.6075710000000  0.4819790000000 1.0
C      1  0.4427980000000  0.4721610000000  0.4859190000000 1.0
C      1  0.4055440000000  0.5071220000000  0.4290390000000 1.0
C      1  0.4938720000000  0.5712580000000  0.5865930000000 1.0
C      1  0.4695510000000  0.4812940000000  0.4719020000000 1.0
C      1  0.4890000000000  0.5832730000000  0.4389220000000 1.0
C      1  0.5108060000000  0.5130190000000  0.3861670000000 1.0
C      1  0.5680560000000  0.5044320000000  0.4766100000000 1.0
C      1  0.4574150000000  0.4960520000000  0.6124240000000 1.0
C      1  0.4988670000000  0.5681010000000  0.5075880000000 1.0
C      1  0.4458190000000  0.5242160000000  0.4687110000000 1.0
C      1  0.4027210000000  0.4289670000000  0.5079730000000 1.0
C      1  0.4868610000000  0.4619550000000  0.6025870000000 1.0
C      1  0.4798070000000  0.4631230000000  0.4510800000000 1.0
C      1  0.4688400000000  0.4949660000000  0.5631340000000 1.0
C      1  0.5417850000000  0.4698620000000  0.5025140000000 1.0
C      1  0.4698090000000  0.5092000000000  0.4609240000000 1.0
C      1  0.4849080000000  0.5180340000000  0.4363250000000 1.0
C      1  0.5768900000000  0.5723220000000  0.4476620000000 1.0
C      1  0.4572300000000  0.5687560000000  0.5392040000000 1.0
C      1  0.4553760000000  0.4786630000000  0.5392510000000 1.0
C      1  0.5507850000000  0.5234380000000  0.6084830000000 1.0
C      1  0.5655490000000  0.5735360000000  0.5146220000000 1.0
C      1  0.5883460000000  0.5039170000000  0.4983560000000 1.0
C      1  0.5069630000000  0.5321980000000  0.5417700000000 1.0
C      1  0.5093420000000  0.4279620000000  0.5390830000000 1.0
C      1  0.5219310000000  0.5458430000000  0.4220200000000 1.0
C      1  0.6028330000000  0.4779300000000  0.5061210000000 1.0
C      1  0.4739390000000  0.4476610000000  0.4037600000000 1.0
C      1  0.4593720000000  0.4701780000000  0.5986580000000 1.0
C      1  0.4831390000000  0.5479750000000  0.5275440000000 1.0
C      1  0.4823620000000  0.4163170000000  0.4464970000000 1.0
C      1  0.5331710000000  0.5633020000000  0.5082660000000 1.0
C      1  0.5759470000000  0.4350360000000  0.5317710000000 1.0
C      1  0.4749400000000  0.4548120000000  0.5347210000000 1.0
C      1  0.3979660000000  0.4728620000000  0.5367120000000 1.0
C      1  0.5186690000000  0.4849060000000  0.5508860000000 1.0
C      1  0.4068140000000  0.4859270000000  0.5620310000000 1.0
C      1  0.4607590000000  0.4330180000000  0.4248310000000 1.0
C      1  0.5500480000000  0.4936060000000  0.5480580000000 1.0
C      1  0.4985460000000  0.4974620000000  0.5741900000000 1.0
C      1  0.5310910000000  0.4494240000000  0.5454080000000 1.0
C      1  0.4460480000000  0.5872930000000  0.4904600000000 1.0
C      1  0.4259410000000  0.5807650000000  0.4707820000000 1.0
C      1  0.5840640000000  0.5232330000000  0.5220000000000 1.0
C      1  0.4072420000000  0.5606260000000  0.4824670000000 1.0
C      1  0.5137680000000  0.5364800000000  0.4711950000000 1.0
C      1  0.4137650000000  0.4699750000000  0.5843840000000 1.0
C      1  0.4369720000000  0.3977000000000  0.4889460000000 1.0
C      1  0.4313570000000  0.4979790000000  0.4449990000000 1.0
C      1  0.4800940000000  0.6195200000000  0.4998190000000 1.0
C      1  0.4333460000000  0.4467030000000  0.5429360000000 1.0
C      1  0.4056300000000  0.5400520000000  0.4610110000000 1.0
C      1  0.4656500000000  0.5634290000000  0.4379710000000 1.0
C      1  0.5348630000000  0.5818120000000  0.4572410000000 1.0
C      1  0.6045930000000  0.4687200000000  0.4398060000000 1.0
C      1  0.5047330000000  0.5268460000000  0.5716800000000 1.0
C      1  0.5484630000000  0.4190490000000  0.4594770000000 1.0
C      1  0.5726870000000  0.5939210000000  0.4933090000000 1.0
C      1  0.4350220000000  0.5731540000000  0.4424100000000 1.0
C      1  0.5470180000000  0.3998930000000  0.5122200000000 1.0
C      1  0.4830450000000  0.5489020000000  0.3947740000000 1.0
C      1  0.4383450000000  0.5764630000000  0.5161350000000 1.0
C      1  0.6040720000000  0.5125300000000  0.5431250000000 1.0
C      1  0.4504980000000  0.4406480000000  0.4929700000000 1.0
C      1  0.5452790000000  0.4683040000000  0.4359640000000 1.0
C      1  0.4361900000000  0.4538520000000  0.5902930000000 1.0
C      1  0.4647910000000  0.4166990000000  0.5641800000000 1.0
C      1  0.4070850000000  0.5162050000000  0.5619680000000 1.0
C      1  0.4550690000000  0.6134510000000  0.4900440000000 1.0
C      1  0.5194270000000  0.4011030000000  0.5509880000000 1.0
C      1  0.5076070000000  0.4108400000000  0.4317090000000 1.0
C      1  0.4154570000000  0.5516680000000  0.4363910000000 1.0
C      1  0.5479580000000  0.4384320000000  0.5680380000000 1.0
C      1  0.5862120000000  0.5510870000000  0.5108410000000 1.0
C      1  0.4464820000000  0.4284590000000  0.5223320000000 1.0
C      1  0.4866730000000  0.4806460000000  0.4954540000000 1.0
C      1  0.5628450000000  0.4079890000000  0.5360770000000 1.0
C      1  0.3918340000000  0.5146570000000  0.4549490000000 1.0
C      1  0.5494830000000  0.5501610000000  0.6055650000000 1.0
C      1  0.4707570000000  0.3845900000000  0.5200190000000 1.0
C      1  0.5565120000000  0.5219720000000  0.5363050000000 1.0
C      1  0.5215200000000  0.4605960000000  0.4180960000000 1.0
C      1  0.5065510000000  0.5046020000000  0.5311650000000 1.0
END
