TITL C-951341-1326-268 -8.60383209040853e-07 125000 -281.660443370692 0 0 47 (C1) n - 1
REM
REM in /home/bkarasulu/work/CARBON/AIRSS/Generating-Clusters/EDIP-Nigel-Params/with-SteepDescent/Only-C1/SD-CG/HFTN-CG
REM
REM
REM
REM
REM
REM ./C.cell (11c1c37f851c82e70ff6c80c92926a4b)
REM
REM compiler GCC version 9.2.1 20190827 (Red Hat 9.2.1-1)
REM options -cpp -mtune=generic -march=x86-64 -g -O0 -fpre-include=/usr/include/finclude/math-vector-fortran.h
REM seed -1294892729 -157450026 532907860 -940555838 -2003514107 -132583741 1726150799 -931514874 1080936136 -1767087672 -668430100 -1586540425 -59962430 -76906400 795767053 -318581837 -1616631021 -164355831 554859471 550365622 -681885414 -1853471425 -1557141081 202415254 -2052292444 257735777 1489088060 2081077788 -1599471146 1095612927 -1563283247 1705007985 291052629
REM
CELL 1.54180   50.00000   50.00000   50.00000   90.00000   90.00000   90.00000
LATT -1
SFAC C  
C      1  0.4912840000000  0.5633240000000  0.5374110000000 1.0
C      1  0.5438760000000  0.5119360000000  0.5322520000000 1.0
C      1  0.5260550000000  0.5103240000000  0.4274380000000 1.0
C      1  0.4515490000000  0.5032340000000  0.5429600000000 1.0
C      1  0.4871610000000  0.4528300000000  0.4820930000000 1.0
C      1  0.4529970000000  0.5098710000000  0.4904910000000 1.0
C      1  0.4826200000000  0.5462000000000  0.4724000000000 1.0
C      1  0.5492220000000  0.5229210000000  0.4695310000000 1.0
C      1  0.5116560000000  0.5351290000000  0.4306950000000 1.0
C      1  0.4483310000000  0.4953230000000  0.4654610000000 1.0
C      1  0.4588540000000  0.4491830000000  0.4843360000000 1.0
C      1  0.5075030000000  0.5293320000000  0.5009650000000 1.0
C      1  0.4515500000000  0.4503510000000  0.5128780000000 1.0
C      1  0.4766690000000  0.4612970000000  0.5286250000000 1.0
C      1  0.4730960000000  0.5452110000000  0.5226860000000 1.0
C      1  0.5261330000000  0.4629740000000  0.5138730000000 1.0
C      1  0.5540390000000  0.5340780000000  0.5169730000000 1.0
C      1  0.5449360000000  0.4853110000000  0.5180810000000 1.0
C      1  0.5189820000000  0.4718880000000  0.4519390000000 1.0
C      1  0.5472410000000  0.4769610000000  0.4572800000000 1.0
C      1  0.5423960000000  0.4476510000000  0.4947180000000 1.0
C      1  0.4810630000000  0.4929440000000  0.4272060000000 1.0
C      1  0.5201740000000  0.5631820000000  0.5357650000000 1.0
C      1  0.4605460000000  0.5022300000000  0.4416910000000 1.0
C      1  0.5319050000000  0.5262680000000  0.5576080000000 1.0
C      1  0.4816840000000  0.4827700000000  0.5055010000000 1.0
C      1  0.4301130000000  0.4689830000000  0.5142320000000 1.0
C      1  0.4713720000000  0.4833280000000  0.5509660000000 1.0
C      1  0.5050590000000  0.5174080000000  0.5661010000000 1.0
C      1  0.5290870000000  0.5481940000000  0.5121320000000 1.0
C      1  0.5041120000000  0.5011980000000  0.5162670000000 1.0
C      1  0.4674450000000  0.5359750000000  0.4943070000000 1.0
C      1  0.4998800000000  0.4945980000000  0.5480600000000 1.0
C      1  0.5214640000000  0.5249090000000  0.4750200000000 1.0
C      1  0.4457600000000  0.4938310000000  0.5152160000000 1.0
C      1  0.5346250000000  0.5547780000000  0.5589400000000 1.0
C      1  0.5081600000000  0.4869510000000  0.4295610000000 1.0
C      1  0.5077520000000  0.4473180000000  0.4627650000000 1.0
C      1  0.4614650000000  0.5316600000000  0.5461180000000 1.0
C      1  0.4834500000000  0.5371670000000  0.5652510000000 1.0
C      1  0.5152100000000  0.4706330000000  0.5561470000000 1.0
C      1  0.5494810000000  0.5049360000000  0.4471740000000 1.0
C      1  0.4440390000000  0.4679460000000  0.4693760000000 1.0
C      1  0.5061710000000  0.5407130000000  0.4577130000000 1.0
C      1  0.5075050000000  0.4528640000000  0.5346530000000 1.0
C      1  0.5576160000000  0.4710740000000  0.4842570000000 1.0
C      1  0.5287160000000  0.4328130000000  0.4748880000000 1.0
END
