TITL C-951337-3020-669 -1.90363568107117e-06 125000 -295.988689083832 0 0 50 (C1) n - 1
REM
REM in /home/bkarasulu/work/CARBON/AIRSS/Generating-Clusters/EDIP-Nigel-Params/with-SteepDescent/Only-C1/SD-CG/HFTN-CG
REM
REM
REM
REM
REM
REM ./C.cell (11c1c37f851c82e70ff6c80c92926a4b)
REM
REM compiler GCC version 9.2.1 20190827 (Red Hat 9.2.1-1)
REM options -cpp -mtune=generic -march=x86-64 -g -O0 -fpre-include=/usr/include/finclude/math-vector-fortran.h
REM seed -1739390160 -882059016 1743742453 -861438829 -648030974 -336849336 1101328081 -218608250 1904963142 1521861073 -1302327457 -856039860 2066672700 523614209 1332564063 1769200425 -225941336 1971559682 -1178629781 -96345452 -867545166 -1102107178 13640444 -423910715 -1243000838 -1857157171 -945904894 1814654818 -1952533821 -1544152515 876272872 718858817 -609369236
REM
CELL 1.54180   50.00000   50.00000   50.00000   90.00000   90.00000   90.00000
LATT -1
SFAC C  
C      1  0.4751880000000  0.4651380000000  0.5421630000000 1.0
C      1  0.5269890000000  0.5401940000000  0.4908780000000 1.0
C      1  0.5013780000000  0.4670810000000  0.4986100000000 1.0
C      1  0.4713510000000  0.5139890000000  0.4894570000000 1.0
C      1  0.4604550000000  0.4378870000000  0.4900160000000 1.0
C      1  0.4712320000000  0.5258100000000  0.5549100000000 1.0
C      1  0.5654210000000  0.4683580000000  0.5198440000000 1.0
C      1  0.4833140000000  0.4243630000000  0.4848370000000 1.0
C      1  0.4871270000000  0.5299470000000  0.5124090000000 1.0
C      1  0.5220930000000  0.4618790000000  0.5514000000000 1.0
C      1  0.4946790000000  0.4501500000000  0.5251360000000 1.0
C      1  0.5319790000000  0.5067770000000  0.5193400000000 1.0
C      1  0.5408750000000  0.5011410000000  0.4751060000000 1.0
C      1  0.4981790000000  0.5413940000000  0.4250780000000 1.0
C      1  0.5224740000000  0.5092790000000  0.5679150000000 1.0
C      1  0.4979310000000  0.4837780000000  0.5517730000000 1.0
C      1  0.5753960000000  0.4928580000000  0.5089750000000 1.0
C      1  0.5029360000000  0.5088920000000  0.5286100000000 1.0
C      1  0.5429040000000  0.5031340000000  0.5475230000000 1.0
C      1  0.4644490000000  0.5374760000000  0.5288290000000 1.0
C      1  0.5524270000000  0.5342520000000  0.5024820000000 1.0
C      1  0.5058080000000  0.5542540000000  0.5074750000000 1.0
C      1  0.5147560000000  0.5591230000000  0.4687240000000 1.0
C      1  0.4527600000000  0.4745210000000  0.5251440000000 1.0
C      1  0.5416010000000  0.4964320000000  0.4473980000000 1.0
C      1  0.5487080000000  0.4587830000000  0.4970100000000 1.0
C      1  0.5488740000000  0.4745770000000  0.5447370000000 1.0
C      1  0.4800210000000  0.5018740000000  0.4414710000000 1.0
C      1  0.4435750000000  0.5217660000000  0.5157090000000 1.0
C      1  0.4964520000000  0.5765190000000  0.4871960000000 1.0
C      1  0.5057230000000  0.4412810000000  0.4833180000000 1.0
C      1  0.4445290000000  0.5392460000000  0.4650810000000 1.0
C      1  0.4744120000000  0.4828660000000  0.4938010000000 1.0
C      1  0.4899660000000  0.5162940000000  0.4653680000000 1.0
C      1  0.4666590000000  0.5572470000000  0.4603720000000 1.0
C      1  0.5328450000000  0.4330480000000  0.4962340000000 1.0
C      1  0.4698230000000  0.5779530000000  0.4787310000000 1.0
C      1  0.4926930000000  0.5440060000000  0.4537450000000 1.0
C      1  0.4409780000000  0.5002680000000  0.5349020000000 1.0
C      1  0.5330250000000  0.4210750000000  0.5219330000000 1.0
C      1  0.4510140000000  0.5067710000000  0.5609120000000 1.0
C      1  0.5252540000000  0.5023390000000  0.4269280000000 1.0
C      1  0.4997960000000  0.5130760000000  0.4221830000000 1.0
C      1  0.4531060000000  0.5120230000000  0.4390860000000 1.0
C      1  0.4371250000000  0.5126770000000  0.4615950000000 1.0
C      1  0.5160210000000  0.4340620000000  0.5397060000000 1.0
C      1  0.4998310000000  0.5264430000000  0.5632170000000 1.0
C      1  0.4510130000000  0.4636100000000  0.4954320000000 1.0
C      1  0.5650160000000  0.5116110000000  0.4901460000000 1.0
C      1  0.5298380000000  0.4824790000000  0.4971530000000 1.0
END
