TITL C-950532-2784-291 -7.97376683201016e-07 125000 -204.440598752201 0 0 35 (C1) n - 1
REM
REM in /home/bkarasulu/work/CARBON/AIRSS/Generating-Clusters/EDIP-Nigel-Params/with-SteepDescent/Only-C1/SD-CG/HFTN-CG
REM
REM
REM
REM
REM
REM ./C.cell (11c1c37f851c82e70ff6c80c92926a4b)
REM
REM compiler GCC version 9.2.1 20190827 (Red Hat 9.2.1-1)
REM options -cpp -mtune=generic -march=x86-64 -g -O0 -fpre-include=/usr/include/finclude/math-vector-fortran.h
REM seed -961642640 1384321948 1221586025 1826195300 349006031 -613457071 -1093977390 1330587803 1849924866 1618799839 615730741 -1595881946 -757244423 -275731175 1454834338 -1580212778 -594662848 33125511 -1336616084 1079302199 1318355291 1389262575 463324825 145514483 506716540 507782998 -1192368744 -52135082 1673257916 -1080883396 -598244290 -1848800801 -369835006
REM
CELL 1.54180   50.00000   50.00000   50.00000   90.00000   90.00000   90.00000
LATT -1
SFAC C  
C      1  0.4449360000000  0.5109110000000  0.4782940000000 1.0
C      1  0.4518690000000  0.5296590000000  0.4972050000000 1.0
C      1  0.4705120000000  0.4995270000000  0.4700880000000 1.0
C      1  0.5090970000000  0.5409990000000  0.5590560000000 1.0
C      1  0.4948650000000  0.5327970000000  0.5072980000000 1.0
C      1  0.4870210000000  0.4507880000000  0.5276210000000 1.0
C      1  0.4951620000000  0.4956450000000  0.5424910000000 1.0
C      1  0.5380730000000  0.5338470000000  0.4634200000000 1.0
C      1  0.4667760000000  0.4945440000000  0.5331280000000 1.0
C      1  0.5326670000000  0.4648220000000  0.5301880000000 1.0
C      1  0.4882500000000  0.5438660000000  0.4648660000000 1.0
C      1  0.5026860000000  0.5145230000000  0.5640080000000 1.0
C      1  0.4816150000000  0.5189520000000  0.4488870000000 1.0
C      1  0.4654350000000  0.4687970000000  0.5180590000000 1.0
C      1  0.5171550000000  0.5501010000000  0.4731580000000 1.0
C      1  0.4983370000000  0.5116970000000  0.4294390000000 1.0
C      1  0.5284890000000  0.4615580000000  0.4747190000000 1.0
C      1  0.5027260000000  0.4347490000000  0.5084280000000 1.0
C      1  0.5214310000000  0.4897190000000  0.4733250000000 1.0
C      1  0.4835320000000  0.4529420000000  0.4599850000000 1.0
C      1  0.5096110000000  0.5067510000000  0.5191790000000 1.0
C      1  0.5505620000000  0.5130710000000  0.5054190000000 1.0
C      1  0.5300010000000  0.4450230000000  0.5088340000000 1.0
C      1  0.5059820000000  0.4674180000000  0.5437970000000 1.0
C      1  0.5400000000000  0.5387600000000  0.5184690000000 1.0
C      1  0.4971300000000  0.4987130000000  0.4899680000000 1.0
C      1  0.4685280000000  0.5504700000000  0.4860770000000 1.0
C      1  0.4568900000000  0.5183940000000  0.5222530000000 1.0
C      1  0.5063850000000  0.4431520000000  0.4721420000000 1.0
C      1  0.5172520000000  0.5521880000000  0.5031120000000 1.0
C      1  0.5448330000000  0.4905350000000  0.5234090000000 1.0
C      1  0.4634480000000  0.4700550000000  0.4680950000000 1.0
C      1  0.4526700000000  0.4634550000000  0.4933230000000 1.0
C      1  0.5321120000000  0.5323670000000  0.5463230000000 1.0
C      1  0.5439630000000  0.5092070000000  0.4759390000000 1.0
END
