TITL C-951336-9012-391 -8.37762601867307e-07 125000 -698.212790710311 0 0 112 (C1) n - 1
REM
REM in /home/bkarasulu/work/CARBON/AIRSS/Generating-Clusters/EDIP-Nigel-Params/with-SteepDescent/Only-C1/SD-CG/HFTN-CG
REM
REM
REM
REM
REM
REM ./C.cell (11c1c37f851c82e70ff6c80c92926a4b)
REM
REM compiler GCC version 9.2.1 20190827 (Red Hat 9.2.1-1)
REM options -cpp -mtune=generic -march=x86-64 -g -O0 -fpre-include=/usr/include/finclude/math-vector-fortran.h
REM seed -2018796606 -33687409 -575220306 1148644892 -2077383802 248008053 6753441 868895910 -753781561 -1097153636 459706436 554629008 -944316097 -1967421521 149466531 455489005 684872987 1558179689 1219808841 -1362807879 603794891 -889689871 1635572823 -2091717821 -164194923 -1100398295 -1061941610 446185766 873671321 -1174531932 1508972826 -700983846 416486106
REM
CELL 1.54180   50.00000   50.00000   50.00000   90.00000   90.00000   90.00000
LATT -1
SFAC C  
C      1  0.5193080000000  0.4773430000000  0.4205230000000 1.0
C      1  0.5266270000000  0.4701400000000  0.5929480000000 1.0
C      1  0.4293660000000  0.5329040000000  0.5075600000000 1.0
C      1  0.5279190000000  0.5862860000000  0.4902160000000 1.0
C      1  0.5342030000000  0.5759750000000  0.5179890000000 1.0
C      1  0.5584430000000  0.5626900000000  0.5238550000000 1.0
C      1  0.5118730000000  0.5545780000000  0.4439180000000 1.0
C      1  0.5152260000000  0.4742950000000  0.5436410000000 1.0
C      1  0.5472320000000  0.5097410000000  0.5065420000000 1.0
C      1  0.5694230000000  0.4791610000000  0.4284850000000 1.0
C      1  0.5509460000000  0.5284320000000  0.4593870000000 1.0
C      1  0.5294470000000  0.5483420000000  0.4667210000000 1.0
C      1  0.4933630000000  0.5014900000000  0.4553030000000 1.0
C      1  0.4568330000000  0.4070480000000  0.4826340000000 1.0
C      1  0.4417340000000  0.4282850000000  0.4685260000000 1.0
C      1  0.5464310000000  0.5728980000000  0.4720670000000 1.0
C      1  0.5577190000000  0.5305360000000  0.5592010000000 1.0
C      1  0.4805010000000  0.4039000000000  0.5252500000000 1.0
C      1  0.5677250000000  0.4540060000000  0.5530800000000 1.0
C      1  0.5484920000000  0.5030270000000  0.4758960000000 1.0
C      1  0.4689630000000  0.5552600000000  0.5447010000000 1.0
C      1  0.4135620000000  0.4651800000000  0.4963750000000 1.0
C      1  0.5451730000000  0.4924340000000  0.4241950000000 1.0
C      1  0.4593420000000  0.5244830000000  0.5070720000000 1.0
C      1  0.5076830000000  0.4158500000000  0.5293260000000 1.0
C      1  0.4974280000000  0.5719110000000  0.5822630000000 1.0
C      1  0.4552950000000  0.5164150000000  0.4178970000000 1.0
C      1  0.4331000000000  0.5634720000000  0.5068380000000 1.0
C      1  0.4440040000000  0.4329400000000  0.5400650000000 1.0
C      1  0.5184190000000  0.4584810000000  0.4643700000000 1.0
C      1  0.4967900000000  0.4348740000000  0.5516040000000 1.0
C      1  0.4788660000000  0.5529110000000  0.5732940000000 1.0
C      1  0.5197230000000  0.5683220000000  0.5654050000000 1.0
C      1  0.4871620000000  0.4825840000000  0.5430350000000 1.0
C      1  0.5163760000000  0.5201730000000  0.5846830000000 1.0
C      1  0.4323150000000  0.4543400000000  0.5559410000000 1.0
C      1  0.4977020000000  0.4976500000000  0.4238550000000 1.0
C      1  0.5285460000000  0.4252030000000  0.4372640000000 1.0
C      1  0.4888210000000  0.4679730000000  0.4957950000000 1.0
C      1  0.5055050000000  0.5215640000000  0.4099510000000 1.0
C      1  0.5709260000000  0.4816660000000  0.5493860000000 1.0
C      1  0.5831000000000  0.4907420000000  0.5247470000000 1.0
C      1  0.5104020000000  0.4392900000000  0.5768050000000 1.0
C      1  0.5769970000000  0.5409630000000  0.4685690000000 1.0
C      1  0.4310360000000  0.4897180000000  0.5287990000000 1.0
C      1  0.4717310000000  0.4912980000000  0.4117570000000 1.0
C      1  0.5436660000000  0.4487100000000  0.5386640000000 1.0
C      1  0.4376370000000  0.4494390000000  0.4898650000000 1.0
C      1  0.4717370000000  0.5390760000000  0.4324910000000 1.0
C      1  0.5758170000000  0.5175650000000  0.5142260000000 1.0
C      1  0.4659910000000  0.5071600000000  0.5905260000000 1.0
C      1  0.5035010000000  0.5817820000000  0.4464730000000 1.0
C      1  0.5134590000000  0.5273870000000  0.5384750000000 1.0
C      1  0.4729630000000  0.4214510000000  0.5022670000000 1.0
C      1  0.4873830000000  0.5129760000000  0.5476510000000 1.0
C      1  0.4763070000000  0.5746500000000  0.4889540000000 1.0
C      1  0.4327830000000  0.5275890000000  0.4609340000000 1.0
C      1  0.5009320000000  0.5872250000000  0.4745690000000 1.0
C      1  0.4700400000000  0.4710800000000  0.5188700000000 1.0
C      1  0.4130240000000  0.4915390000000  0.4860680000000 1.0
C      1  0.5728120000000  0.5664730000000  0.4804740000000 1.0
C      1  0.4384860000000  0.5245850000000  0.5550200000000 1.0
C      1  0.5575360000000  0.5015050000000  0.5664360000000 1.0
C      1  0.5104440000000  0.4862450000000  0.4981490000000 1.0
C      1  0.4819600000000  0.5422690000000  0.4882530000000 1.0
C      1  0.4632960000000  0.5278190000000  0.5374690000000 1.0
C      1  0.4514280000000  0.5742290000000  0.5293370000000 1.0
C      1  0.4553750000000  0.5624650000000  0.4347660000000 1.0
C      1  0.5257580000000  0.4033970000000  0.4841950000000 1.0
C      1  0.5015090000000  0.4420420000000  0.4853910000000 1.0
C      1  0.4442980000000  0.4806270000000  0.5536480000000 1.0
C      1  0.5459600000000  0.4391720000000  0.5109600000000 1.0
C      1  0.4437070000000  0.5020810000000  0.5737870000000 1.0
C      1  0.5310340000000  0.4799390000000  0.5186360000000 1.0
C      1  0.4803510000000  0.5281730000000  0.4598220000000 1.0
C      1  0.5281920000000  0.5386330000000  0.5626190000000 1.0
C      1  0.5899780000000  0.5211000000000  0.4860420000000 1.0
C      1  0.5460310000000  0.5221680000000  0.4302180000000 1.0
C      1  0.4545530000000  0.4948480000000  0.4989310000000 1.0
C      1  0.5207980000000  0.4247670000000  0.5030180000000 1.0
C      1  0.4351470000000  0.5079330000000  0.4388250000000 1.0
C      1  0.4866250000000  0.5227940000000  0.5772020000000 1.0
C      1  0.5815110000000  0.4714970000000  0.4522220000000 1.0
C      1  0.5825900000000  0.4735970000000  0.5002530000000 1.0
C      1  0.4122060000000  0.4673660000000  0.5253780000000 1.0
C      1  0.5717290000000  0.5400290000000  0.5345070000000 1.0
C      1  0.5810710000000  0.4912310000000  0.4758040000000 1.0
C      1  0.5282640000000  0.5324070000000  0.5129360000000 1.0
C      1  0.4662860000000  0.4269400000000  0.4509820000000 1.0
C      1  0.5021200000000  0.4575640000000  0.5960260000000 1.0
C      1  0.4726350000000  0.5891960000000  0.5160540000000 1.0
C      1  0.4390750000000  0.5563730000000  0.4570030000000 1.0
C      1  0.4455630000000  0.5730930000000  0.4808720000000 1.0
C      1  0.5112910000000  0.4514370000000  0.4362740000000 1.0
C      1  0.5208650000000  0.4071980000000  0.4576530000000 1.0
C      1  0.5121640000000  0.5371790000000  0.4893070000000 1.0
C      1  0.4690870000000  0.4191830000000  0.5503590000000 1.0
C      1  0.5649180000000  0.4513210000000  0.4923940000000 1.0
C      1  0.5181900000000  0.5842270000000  0.5403340000000 1.0
C      1  0.5196840000000  0.4884880000000  0.4705020000000 1.0
C      1  0.4939510000000  0.5957860000000  0.5330310000000 1.0
C      1  0.4181100000000  0.5191330000000  0.4838410000000 1.0
C      1  0.4549620000000  0.4433550000000  0.5138600000000 1.0
C      1  0.4600080000000  0.4679050000000  0.4256890000000 1.0
C      1  0.4796360000000  0.4475630000000  0.4357790000000 1.0
C      1  0.4198660000000  0.5180280000000  0.5328820000000 1.0
C      1  0.5687590000000  0.4477200000000  0.4630760000000 1.0
C      1  0.4455660000000  0.4811540000000  0.4482040000000 1.0
C      1  0.5232860000000  0.5392230000000  0.4212760000000 1.0
C      1  0.4680230000000  0.4867800000000  0.4690530000000 1.0
C      1  0.5547490000000  0.4322280000000  0.4442280000000 1.0
C      1  0.5315470000000  0.4951280000000  0.5792530000000 1.0
END
