TITL C-950522-5749-325 -3.62941379212656e-06 125000 -1092.38804727166 0 0 175 (C1) n - 1
REM
REM in /home/bkarasulu/work/CARBON/AIRSS/Generating-Clusters/EDIP-Nigel-Params/with-SteepDescent/Only-C1/SD-CG/HFTN-CG
REM
REM
REM
REM
REM
REM ./C.cell (11c1c37f851c82e70ff6c80c92926a4b)
REM
REM compiler GCC version 9.2.1 20190827 (Red Hat 9.2.1-1)
REM options -cpp -mtune=generic -march=x86-64 -g -O0 -fpre-include=/usr/include/finclude/math-vector-fortran.h
REM seed 1093408932 325876701 1596170670 83446899 1840297101 254480225 63511338 1364116267 -1551361110 -918288606 -2044048526 -1724734614 1624312126 35675349 -1995878491 -708039230 805995602 -1226919837 -279236712 -1561494388 -1583131701 -1824732320 -115477212 -2061653122 -788163942 -520166662 1582640722 -390139566 1092268699 -1032373536 -52120632 1648137250 -590107783
REM
CELL 1.54180   50.00000   50.00000   50.00000   90.00000   90.00000   90.00000
LATT -1
SFAC C  
C      1  0.4945340000000  0.4346900000000  0.5929780000000 1.0
C      1  0.5334090000000  0.4394000000000  0.5637800000000 1.0
C      1  0.5141040000000  0.5247410000000  0.4037920000000 1.0
C      1  0.5484370000000  0.5620930000000  0.5443330000000 1.0
C      1  0.5503460000000  0.5377470000000  0.5888990000000 1.0
C      1  0.5301240000000  0.3915700000000  0.4431630000000 1.0
C      1  0.5041040000000  0.3937190000000  0.4299720000000 1.0
C      1  0.5036510000000  0.5906360000000  0.5660650000000 1.0
C      1  0.4319000000000  0.4947880000000  0.5007160000000 1.0
C      1  0.4202720000000  0.5383200000000  0.4484900000000 1.0
C      1  0.4744770000000  0.5563470000000  0.5509690000000 1.0
C      1  0.4882370000000  0.4174670000000  0.5695130000000 1.0
C      1  0.4739350000000  0.5071010000000  0.6072990000000 1.0
C      1  0.4235110000000  0.6006320000000  0.5436660000000 1.0
C      1  0.4617830000000  0.4212380000000  0.5207200000000 1.0
C      1  0.5227230000000  0.5184180000000  0.5060460000000 1.0
C      1  0.4769770000000  0.5129060000000  0.5594500000000 1.0
C      1  0.5939940000000  0.4530940000000  0.5429020000000 1.0
C      1  0.4939930000000  0.3900290000000  0.4571140000000 1.0
C      1  0.5694920000000  0.4125730000000  0.4850230000000 1.0
C      1  0.5979600000000  0.5565900000000  0.5076000000000 1.0
C      1  0.5256060000000  0.4703190000000  0.4890410000000 1.0
C      1  0.5721270000000  0.4729000000000  0.5836900000000 1.0
C      1  0.4500420000000  0.4187140000000  0.4337700000000 1.0
C      1  0.5554500000000  0.5983690000000  0.5113150000000 1.0
C      1  0.4601490000000  0.4888490000000  0.5636000000000 1.0
C      1  0.3949710000000  0.4597260000000  0.5009050000000 1.0
C      1  0.4880760000000  0.4806570000000  0.6032490000000 1.0
C      1  0.5333800000000  0.5837820000000  0.5262840000000 1.0
C      1  0.4219840000000  0.4751490000000  0.4303450000000 1.0
C      1  0.4928270000000  0.5980470000000  0.4565530000000 1.0
C      1  0.4984820000000  0.5517060000000  0.3860540000000 1.0
C      1  0.5395290000000  0.5082410000000  0.4066360000000 1.0
C      1  0.5504550000000  0.4586570000000  0.4168560000000 1.0
C      1  0.4940720000000  0.5212950000000  0.4725930000000 1.0
C      1  0.5001530000000  0.4207560000000  0.4175470000000 1.0
C      1  0.5080080000000  0.4784210000000  0.5357840000000 1.0
C      1  0.5403540000000  0.5642280000000  0.4236280000000 1.0
C      1  0.5690460000000  0.4124070000000  0.5428130000000 1.0
C      1  0.4034660000000  0.5235480000000  0.4687340000000 1.0
C      1  0.4027790000000  0.5317350000000  0.4967560000000 1.0
C      1  0.5770040000000  0.4361150000000  0.5252250000000 1.0
C      1  0.5659790000000  0.4244360000000  0.4585380000000 1.0
C      1  0.4579720000000  0.4939300000000  0.5155480000000 1.0
C      1  0.5904260000000  0.4559650000000  0.4849330000000 1.0
C      1  0.4563240000000  0.4743910000000  0.5388540000000 1.0
C      1  0.4335640000000  0.5707890000000  0.4850230000000 1.0
C      1  0.5428240000000  0.5187730000000  0.4817050000000 1.0
C      1  0.4681590000000  0.5391840000000  0.4240100000000 1.0
C      1  0.5197500000000  0.5684060000000  0.4016820000000 1.0
C      1  0.5569650000000  0.4941010000000  0.5713170000000 1.0
C      1  0.5088990000000  0.4888600000000  0.5068990000000 1.0
C      1  0.5131680000000  0.4184910000000  0.5537230000000 1.0
C      1  0.5020760000000  0.5907300000000  0.4102170000000 1.0
C      1  0.4973110000000  0.5268860000000  0.4293620000000 1.0
C      1  0.4787550000000  0.4103650000000  0.4720840000000 1.0
C      1  0.5383840000000  0.5603550000000  0.5743130000000 1.0
C      1  0.4265210000000  0.5369470000000  0.5778610000000 1.0
C      1  0.5441390000000  0.4158280000000  0.5029740000000 1.0
C      1  0.4198230000000  0.4463410000000  0.5599090000000 1.0
C      1  0.5373770000000  0.5864200000000  0.4415410000000 1.0
C      1  0.5681080000000  0.5479570000000  0.5076230000000 1.0
C      1  0.5280130000000  0.4985470000000  0.5827940000000 1.0
C      1  0.5479920000000  0.3978980000000  0.5266580000000 1.0
C      1  0.4625600000000  0.5651370000000  0.4417170000000 1.0
C      1  0.4972070000000  0.5131150000000  0.3826950000000 1.0
C      1  0.5087060000000  0.4297410000000  0.5115760000000 1.0
C      1  0.4018580000000  0.4750250000000  0.4508630000000 1.0
C      1  0.5979520000000  0.5521150000000  0.5461920000000 1.0
C      1  0.4786110000000  0.5780790000000  0.5696490000000 1.0
C      1  0.4849410000000  0.5701050000000  0.4607540000000 1.0
C      1  0.4615320000000  0.4197000000000  0.5563740000000 1.0
C      1  0.5067220000000  0.5030320000000  0.5569530000000 1.0
C      1  0.4598650000000  0.4531400000000  0.4081430000000 1.0
C      1  0.4471740000000  0.4529010000000  0.5942910000000 1.0
C      1  0.5424130000000  0.5285270000000  0.5308150000000 1.0
C      1  0.4772390000000  0.5300720000000  0.5863350000000 1.0
C      1  0.6130200000000  0.4983630000000  0.4991580000000 1.0
C      1  0.5929000000000  0.4790640000000  0.5068040000000 1.0
C      1  0.5695870000000  0.5209710000000  0.5747890000000 1.0
C      1  0.5293510000000  0.4375090000000  0.4267780000000 1.0
C      1  0.4104620000000  0.5768990000000  0.5446040000000 1.0
C      1  0.5813780000000  0.4499970000000  0.5701830000000 1.0
C      1  0.4735110000000  0.4865780000000  0.4463630000000 1.0
C      1  0.5690580000000  0.4974730000000  0.4426820000000 1.0
C      1  0.4546080000000  0.5654770000000  0.5303770000000 1.0
C      1  0.4750750000000  0.4540160000000  0.6039670000000 1.0
C      1  0.4403830000000  0.5208850000000  0.4350020000000 1.0
C      1  0.5200900000000  0.3955790000000  0.5366000000000 1.0
C      1  0.4409540000000  0.4816930000000  0.5853130000000 1.0
C      1  0.4138770000000  0.5157030000000  0.5928690000000 1.0
C      1  0.4737020000000  0.4327350000000  0.4237080000000 1.0
C      1  0.5598040000000  0.5617430000000  0.4799070000000 1.0
C      1  0.4055130000000  0.5047960000000  0.5110580000000 1.0
C      1  0.6097530000000  0.4737330000000  0.5294840000000 1.0
C      1  0.4999260000000  0.5482790000000  0.5379180000000 1.0
C      1  0.5188250000000  0.5302850000000  0.5510740000000 1.0
C      1  0.5164710000000  0.4765780000000  0.5983220000000 1.0
C      1  0.4915950000000  0.6039490000000  0.5183470000000 1.0
C      1  0.5207090000000  0.4485110000000  0.5899510000000 1.0
C      1  0.5120140000000  0.6008460000000  0.5399250000000 1.0
C      1  0.4636160000000  0.5196250000000  0.5290180000000 1.0
C      1  0.5425510000000  0.4171110000000  0.4434510000000 1.0
C      1  0.5372390000000  0.4794510000000  0.4013540000000 1.0
C      1  0.4661400000000  0.5244120000000  0.4789060000000 1.0
C      1  0.5924470000000  0.5052760000000  0.4564470000000 1.0
C      1  0.3907260000000  0.4958380000000  0.4677430000000 1.0
C      1  0.4934700000000  0.4420840000000  0.4659710000000 1.0
C      1  0.5636460000000  0.5465890000000  0.4301300000000 1.0
C      1  0.5469010000000  0.4489900000000  0.5148610000000 1.0
C      1  0.4507110000000  0.5948000000000  0.5393670000000 1.0
C      1  0.5349430000000  0.4625440000000  0.5401270000000 1.0
C      1  0.4453780000000  0.5006680000000  0.6082170000000 1.0
C      1  0.4906760000000  0.4858700000000  0.3884880000000 1.0
C      1  0.4360220000000  0.4306540000000  0.5062560000000 1.0
C      1  0.5690240000000  0.4958690000000  0.5172950000000 1.0
C      1  0.4260670000000  0.5554710000000  0.5328770000000 1.0
C      1  0.5123600000000  0.5746980000000  0.5042160000000 1.0
C      1  0.4291720000000  0.5001800000000  0.4172430000000 1.0
C      1  0.5026870000000  0.3915450000000  0.5129490000000 1.0
C      1  0.3866270000000  0.4861380000000  0.4963760000000 1.0
C      1  0.4825350000000  0.4420400000000  0.5176670000000 1.0
C      1  0.4519710000000  0.5049680000000  0.4582620000000 1.0
C      1  0.4352820000000  0.5626710000000  0.4566730000000 1.0
C      1  0.5611090000000  0.4276580000000  0.5676510000000 1.0
C      1  0.4255290000000  0.5296720000000  0.5495540000000 1.0
C      1  0.4508700000000  0.4107270000000  0.4613840000000 1.0
C      1  0.4715120000000  0.5568540000000  0.3991940000000 1.0
C      1  0.5518240000000  0.5910730000000  0.4830760000000 1.0
C      1  0.5820140000000  0.5571710000000  0.4598240000000 1.0
C      1  0.5692610000000  0.5189240000000  0.4969000000000 1.0
C      1  0.4682990000000  0.4813890000000  0.4079640000000 1.0
C      1  0.5130840000000  0.6015460000000  0.4360260000000 1.0
C      1  0.4503590000000  0.5913080000000  0.4948110000000 1.0
C      1  0.5525300000000  0.4874440000000  0.5422280000000 1.0
C      1  0.4744100000000  0.4667550000000  0.4713290000000 1.0
C      1  0.5226300000000  0.5858430000000  0.4771970000000 1.0
C      1  0.4806350000000  0.4862850000000  0.4958360000000 1.0
C      1  0.4173620000000  0.4512780000000  0.5157930000000 1.0
C      1  0.5065960000000  0.5470900000000  0.4619560000000 1.0
C      1  0.6033300000000  0.5462530000000  0.4788120000000 1.0
C      1  0.4771290000000  0.4010820000000  0.5022650000000 1.0
C      1  0.4248620000000  0.4664660000000  0.5403290000000 1.0
C      1  0.4832740000000  0.4611200000000  0.5378920000000 1.0
C      1  0.5457770000000  0.4977910000000  0.4611850000000 1.0
C      1  0.4522100000000  0.5444900000000  0.5869630000000 1.0
C      1  0.4404360000000  0.4328910000000  0.5730710000000 1.0
C      1  0.4628890000000  0.6060040000000  0.5155270000000 1.0
C      1  0.4696390000000  0.5397730000000  0.5066820000000 1.0
C      1  0.4734080000000  0.5836600000000  0.4105540000000 1.0
C      1  0.4332290000000  0.4503040000000  0.4197350000000 1.0
C      1  0.4201160000000  0.5531240000000  0.5041480000000 1.0
C      1  0.5135850000000  0.4705350000000  0.3900560000000 1.0
C      1  0.5738890000000  0.4519940000000  0.4604300000000 1.0
C      1  0.5895460000000  0.4299140000000  0.4988920000000 1.0
C      1  0.5627210000000  0.5179350000000  0.4214480000000 1.0
C      1  0.5005700000000  0.5454180000000  0.5090570000000 1.0
C      1  0.5707960000000  0.4683000000000  0.4361880000000 1.0
C      1  0.4323850000000  0.4850540000000  0.4723950000000 1.0
C      1  0.5963680000000  0.5168600000000  0.4818700000000 1.0
C      1  0.4122230000000  0.4910590000000  0.5750910000000 1.0
C      1  0.5297440000000  0.5219720000000  0.5998240000000 1.0
C      1  0.5366700000000  0.5449010000000  0.4697800000000 1.0
C      1  0.5773190000000  0.5716130000000  0.5435560000000 1.0
C      1  0.5114040000000  0.4544210000000  0.4439060000000 1.0
C      1  0.4317990000000  0.4241120000000  0.4783520000000 1.0
C      1  0.4468000000000  0.4966600000000  0.3964970000000 1.0
C      1  0.5923710000000  0.5312250000000  0.5627200000000 1.0
C      1  0.4983260000000  0.5022970000000  0.4501430000000 1.0
C      1  0.5071270000000  0.5547880000000  0.5808050000000 1.0
C      1  0.5216480000000  0.4807240000000  0.4576950000000 1.0
C      1  0.4109420000000  0.5023010000000  0.5452790000000 1.0
C      1  0.4463400000000  0.4590100000000  0.4739260000000 1.0
C      1  0.5809080000000  0.5888140000000  0.5208860000000 1.0
C      1  0.5142050000000  0.4429520000000  0.4864480000000 1.0
END
