TITL C-951340-9809-725 -3.95107377026243e-07 125000 -995.029936512635 0 0 159 (C1) n - 1
REM
REM in /home/bkarasulu/work/CARBON/AIRSS/Generating-Clusters/EDIP-Nigel-Params/with-SteepDescent/Only-C1/SD-CG/HFTN-CG
REM
REM
REM
REM
REM
REM ./C.cell (11c1c37f851c82e70ff6c80c92926a4b)
REM
REM compiler GCC version 9.2.1 20190827 (Red Hat 9.2.1-1)
REM options -cpp -mtune=generic -march=x86-64 -g -O0 -fpre-include=/usr/include/finclude/math-vector-fortran.h
REM seed -662132783 600365988 410281671 128245949 427119619 502395665 1176485202 922374488 -1202890355 1769411982 1686246013 308922109 -1482428617 803467922 278152485 729473019 -636154176 1735659659 -905386271 1494300546 323538333 1991460507 1235136991 2075712850 -253941292 272742001 -739753972 57306192 -1694949174 1196376656 150519465 -1916450627 1776712276
REM
CELL 1.54180   50.00000   50.00000   50.00000   90.00000   90.00000   90.00000
LATT -1
SFAC C  
C      1  0.5552020000000  0.4161510000000  0.5119390000000 1.0
C      1  0.4399800000000  0.5607880000000  0.4810850000000 1.0
C      1  0.5839860000000  0.5318700000000  0.5498100000000 1.0
C      1  0.5412090000000  0.5951810000000  0.4803590000000 1.0
C      1  0.4672500000000  0.6087030000000  0.5200820000000 1.0
C      1  0.5107710000000  0.5450530000000  0.4570950000000 1.0
C      1  0.5441570000000  0.4768860000000  0.5914280000000 1.0
C      1  0.4740960000000  0.4097560000000  0.4777140000000 1.0
C      1  0.5384130000000  0.3969330000000  0.4968150000000 1.0
C      1  0.4647520000000  0.4958680000000  0.4172020000000 1.0
C      1  0.5417810000000  0.5527290000000  0.4680210000000 1.0
C      1  0.5409630000000  0.5073280000000  0.5015520000000 1.0
C      1  0.5260170000000  0.4074160000000  0.4722580000000 1.0
C      1  0.5261540000000  0.6055600000000  0.4584090000000 1.0
C      1  0.5451630000000  0.4162620000000  0.4514750000000 1.0
C      1  0.4697490000000  0.4959570000000  0.5939680000000 1.0
C      1  0.6070610000000  0.5133750000000  0.4675740000000 1.0
C      1  0.4832450000000  0.4813290000000  0.3970980000000 1.0
C      1  0.5386340000000  0.4594620000000  0.4599990000000 1.0
C      1  0.5126730000000  0.5854940000000  0.4748660000000 1.0
C      1  0.5893430000000  0.4574700000000  0.5525870000000 1.0
C      1  0.4184160000000  0.4724270000000  0.4731430000000 1.0
C      1  0.5281280000000  0.5342400000000  0.5397900000000 1.0
C      1  0.4437510000000  0.5192150000000  0.4663510000000 1.0
C      1  0.4582500000000  0.5834500000000  0.4717740000000 1.0
C      1  0.5075140000000  0.4977150000000  0.3904890000000 1.0
C      1  0.4043240000000  0.5279620000000  0.4956840000000 1.0
C      1  0.5786910000000  0.4943050000000  0.4292540000000 1.0
C      1  0.4345050000000  0.4750780000000  0.5743780000000 1.0
C      1  0.5227740000000  0.4397620000000  0.5741570000000 1.0
C      1  0.4292010000000  0.4410140000000  0.5562750000000 1.0
C      1  0.5013250000000  0.5701440000000  0.5837500000000 1.0
C      1  0.5260340000000  0.5377370000000  0.4095250000000 1.0
C      1  0.5044520000000  0.5277150000000  0.3919480000000 1.0
C      1  0.5631230000000  0.4774030000000  0.4109990000000 1.0
C      1  0.4601230000000  0.4491100000000  0.4922900000000 1.0
C      1  0.4449860000000  0.4650640000000  0.5467740000000 1.0
C      1  0.4176380000000  0.5168870000000  0.5454270000000 1.0
C      1  0.4978670000000  0.5735620000000  0.4990550000000 1.0
C      1  0.5660690000000  0.5806100000000  0.4784040000000 1.0
C      1  0.4959020000000  0.4927270000000  0.5042950000000 1.0
C      1  0.4476590000000  0.4208500000000  0.5489270000000 1.0
C      1  0.4395610000000  0.4827200000000  0.4271820000000 1.0
C      1  0.4049370000000  0.5523370000000  0.5154190000000 1.0
C      1  0.5159950000000  0.4703570000000  0.4965550000000 1.0
C      1  0.4234740000000  0.4265230000000  0.5040220000000 1.0
C      1  0.3990660000000  0.5349000000000  0.4664840000000 1.0
C      1  0.6006830000000  0.4956000000000  0.5224230000000 1.0
C      1  0.5286680000000  0.5734770000000  0.5742140000000 1.0
C      1  0.4985550000000  0.4980500000000  0.5971050000000 1.0
C      1  0.5526530000000  0.4193960000000  0.5426660000000 1.0
C      1  0.4910100000000  0.4702950000000  0.4493880000000 1.0
C      1  0.5235600000000  0.4566150000000  0.4118470000000 1.0
C      1  0.4621370000000  0.5430330000000  0.5740850000000 1.0
C      1  0.5162700000000  0.5556820000000  0.5143940000000 1.0
C      1  0.4944760000000  0.4539700000000  0.4063590000000 1.0
C      1  0.4863330000000  0.4443750000000  0.4329240000000 1.0
C      1  0.5815850000000  0.5254580000000  0.4750560000000 1.0
C      1  0.4832320000000  0.5858530000000  0.5685310000000 1.0
C      1  0.4403010000000  0.4550660000000  0.4272920000000 1.0
C      1  0.4172290000000  0.5465530000000  0.5423620000000 1.0
C      1  0.4728890000000  0.5120660000000  0.4665040000000 1.0
C      1  0.5788280000000  0.5063150000000  0.5639770000000 1.0
C      1  0.5557320000000  0.5029740000000  0.5820170000000 1.0
C      1  0.4583610000000  0.4693560000000  0.5917260000000 1.0
C      1  0.4300540000000  0.4781820000000  0.5239430000000 1.0
C      1  0.5056080000000  0.4442500000000  0.5053630000000 1.0
C      1  0.5917560000000  0.5247130000000  0.5225430000000 1.0
C      1  0.5344760000000  0.5987720000000  0.5615890000000 1.0
C      1  0.4788670000000  0.4474570000000  0.5163710000000 1.0
C      1  0.4532280000000  0.6065930000000  0.4913910000000 1.0
C      1  0.3881270000000  0.5040600000000  0.5014110000000 1.0
C      1  0.5275450000000  0.4980480000000  0.4389480000000 1.0
C      1  0.4792530000000  0.4650710000000  0.5422930000000 1.0
C      1  0.4513410000000  0.4212100000000  0.4610760000000 1.0
C      1  0.4467470000000  0.4173370000000  0.5196850000000 1.0
C      1  0.5908600000000  0.4848780000000  0.5478030000000 1.0
C      1  0.5525660000000  0.5276650000000  0.5193790000000 1.0
C      1  0.4578820000000  0.4344830000000  0.4348270000000 1.0
C      1  0.4392610000000  0.5333220000000  0.4302480000000 1.0
C      1  0.4870870000000  0.5736910000000  0.5424930000000 1.0
C      1  0.5989390000000  0.4764450000000  0.4995280000000 1.0
C      1  0.4872910000000  0.4956270000000  0.5334370000000 1.0
C      1  0.5467580000000  0.5993190000000  0.5350340000000 1.0
C      1  0.5133320000000  0.5060880000000  0.5485340000000 1.0
C      1  0.4719510000000  0.4911260000000  0.4869680000000 1.0
C      1  0.6069820000000  0.4856740000000  0.4715740000000 1.0
C      1  0.5274360000000  0.5656960000000  0.4102210000000 1.0
C      1  0.5407770000000  0.4788630000000  0.5137700000000 1.0
C      1  0.5390530000000  0.5265690000000  0.5862410000000 1.0
C      1  0.4278820000000  0.4345030000000  0.4757530000000 1.0
C      1  0.4023580000000  0.4684360000000  0.5254330000000 1.0
C      1  0.5713650000000  0.4334210000000  0.4938250000000 1.0
C      1  0.4737020000000  0.4254770000000  0.5622600000000 1.0
C      1  0.5679940000000  0.5206890000000  0.4323400000000 1.0
C      1  0.4771420000000  0.4476340000000  0.5828370000000 1.0
C      1  0.4461920000000  0.5905980000000  0.5393230000000 1.0
C      1  0.4934800000000  0.5933340000000  0.5216470000000 1.0
C      1  0.5663960000000  0.4487530000000  0.4211640000000 1.0
C      1  0.4553060000000  0.5151920000000  0.5771200000000 1.0
C      1  0.4285730000000  0.5059250000000  0.5715720000000 1.0
C      1  0.5621240000000  0.4755350000000  0.4716310000000 1.0
C      1  0.5098350000000  0.5191810000000  0.5805450000000 1.0
C      1  0.4817290000000  0.5402270000000  0.4083430000000 1.0
C      1  0.5672480000000  0.5400870000000  0.4532340000000 1.0
C      1  0.4835900000000  0.4992870000000  0.4403270000000 1.0
C      1  0.4745240000000  0.5520540000000  0.4968000000000 1.0
C      1  0.5133670000000  0.4562370000000  0.5492490000000 1.0
C      1  0.5808730000000  0.5716940000000  0.5022570000000 1.0
C      1  0.4927100000000  0.5322260000000  0.4791600000000 1.0
C      1  0.4325630000000  0.5199280000000  0.4959260000000 1.0
C      1  0.5882480000000  0.5427270000000  0.4989620000000 1.0
C      1  0.5676280000000  0.5557170000000  0.5525210000000 1.0
C      1  0.5326220000000  0.4850320000000  0.4115080000000 1.0
C      1  0.4910360000000  0.5434040000000  0.5803850000000 1.0
C      1  0.5424050000000  0.5520520000000  0.5017600000000 1.0
C      1  0.4703230000000  0.5462980000000  0.5286980000000 1.0
C      1  0.4651070000000  0.5159090000000  0.5337850000000 1.0
C      1  0.5625920000000  0.5735200000000  0.5277580000000 1.0
C      1  0.4955820000000  0.4070850000000  0.5527910000000 1.0
C      1  0.4305410000000  0.5972000000000  0.5132280000000 1.0
C      1  0.4211790000000  0.5549120000000  0.4577710000000 1.0
C      1  0.5008010000000  0.3721090000000  0.4880740000000 1.0
C      1  0.4273930000000  0.4958010000000  0.4521880000000 1.0
C      1  0.5722010000000  0.4256980000000  0.4637580000000 1.0
C      1  0.5112510000000  0.5157160000000  0.4964440000000 1.0
C      1  0.4380090000000  0.5628990000000  0.4322860000000 1.0
C      1  0.5708890000000  0.4632860000000  0.4984740000000 1.0
C      1  0.4989530000000  0.3939780000000  0.4692850000000 1.0
C      1  0.5501090000000  0.4498060000000  0.5799120000000 1.0
C      1  0.5157940000000  0.4749670000000  0.6022210000000 1.0
C      1  0.5130390000000  0.5238810000000  0.4348270000000 1.0
C      1  0.5580940000000  0.5047170000000  0.4782190000000 1.0
C      1  0.5179190000000  0.4787000000000  0.4601890000000 1.0
C      1  0.5223470000000  0.4114290000000  0.5643370000000 1.0
C      1  0.5069490000000  0.5811090000000  0.4190500000000 1.0
C      1  0.4455560000000  0.5596450000000  0.5469490000000 1.0
C      1  0.5303250000000  0.4808450000000  0.5427030000000 1.0
C      1  0.5188870000000  0.6086030000000  0.5274800000000 1.0
C      1  0.3915050000000  0.4884660000000  0.4774940000000 1.0
C      1  0.4628230000000  0.5770560000000  0.4414550000000 1.0
C      1  0.4371830000000  0.5081040000000  0.5242150000000 1.0
C      1  0.5400140000000  0.4422530000000  0.4347250000000 1.0
C      1  0.5416890000000  0.5482470000000  0.5647840000000 1.0
C      1  0.3981870000000  0.5073060000000  0.4539340000000 1.0
C      1  0.4882550000000  0.5620630000000  0.4304240000000 1.0
C      1  0.5196860000000  0.4348870000000  0.5287590000000 1.0
C      1  0.4581500000000  0.5236070000000  0.4104970000000 1.0
C      1  0.5149900000000  0.3839990000000  0.5097130000000 1.0
C      1  0.5665220000000  0.4422770000000  0.5570960000000 1.0
C      1  0.4388940000000  0.4720420000000  0.4962860000000 1.0
C      1  0.5856430000000  0.4460740000000  0.4441240000000 1.0
C      1  0.5854220000000  0.4752560000000  0.4529850000000 1.0
C      1  0.4966140000000  0.4044520000000  0.5223020000000 1.0
C      1  0.5036620000000  0.4482980000000  0.5951970000000 1.0
C      1  0.4043840000000  0.4422170000000  0.5173120000000 1.0
C      1  0.4216090000000  0.5719330000000  0.5012340000000 1.0
C      1  0.4700130000000  0.4051450000000  0.5067230000000 1.0
C      1  0.4759780000000  0.4662010000000  0.4732040000000 1.0
END
