TITL C-951335-1172-233 6.89207522211423e-07 125000 -306.87369170194 0 0 50 (C1) n - 1
REM
REM in /home/bkarasulu/work/CARBON/AIRSS/Generating-Clusters/EDIP-Nigel-Params/with-SteepDescent/Only-C1/SD-CG/HFTN-CG
REM
REM
REM
REM
REM
REM ./C.cell (11c1c37f851c82e70ff6c80c92926a4b)
REM
REM compiler GCC version 9.2.1 20190827 (Red Hat 9.2.1-1)
REM options -cpp -mtune=generic -march=x86-64 -g -O0 -fpre-include=/usr/include/finclude/math-vector-fortran.h
REM seed 883743230 -24897340 1872920600 1409730213 679391767 -2145981106 -1077832485 -1244006686 864909974 1084217320 1002056555 -230003816 831181119 1441265744 -1397350472 -279989690 2059395409 661803572 417427903 -816894112 -645922423 -120657740 2038134824 -1935403176 974014887 -1649397431 -1548130171 -905465346 1217196176 -1736988149 -2060383377 -1095669620 -1060531218
REM
CELL 1.54180   50.00000   50.00000   50.00000   90.00000   90.00000   90.00000
LATT -1
SFAC C  
C      1  0.4296690000000  0.5149500000000  0.4891510000000 1.0
C      1  0.5680550000000  0.4853010000000  0.4816420000000 1.0
C      1  0.5761900000000  0.4865750000000  0.5096520000000 1.0
C      1  0.4937190000000  0.5047110000000  0.4332260000000 1.0
C      1  0.4459240000000  0.4736910000000  0.5258150000000 1.0
C      1  0.5655010000000  0.5128600000000  0.4706410000000 1.0
C      1  0.5101790000000  0.5436130000000  0.5260130000000 1.0
C      1  0.5174530000000  0.4900700000000  0.5457810000000 1.0
C      1  0.4480560000000  0.5164330000000  0.5492160000000 1.0
C      1  0.4835470000000  0.4958380000000  0.5347530000000 1.0
C      1  0.5385890000000  0.5198150000000  0.4603440000000 1.0
C      1  0.5346270000000  0.5032570000000  0.5248080000000 1.0
C      1  0.4756730000000  0.5382890000000  0.4686210000000 1.0
C      1  0.5169810000000  0.4590980000000  0.5432130000000 1.0
C      1  0.4705490000000  0.4697440000000  0.5414000000000 1.0
C      1  0.5253790000000  0.4959350000000  0.4481880000000 1.0
C      1  0.4654810000000  0.4471700000000  0.4876790000000 1.0
C      1  0.4813930000000  0.4894730000000  0.4558180000000 1.0
C      1  0.4907210000000  0.4502160000000  0.5315920000000 1.0
C      1  0.4939200000000  0.4477020000000  0.5011390000000 1.0
C      1  0.4510370000000  0.5401590000000  0.4886830000000 1.0
C      1  0.4359760000000  0.4828230000000  0.4504920000000 1.0
C      1  0.5615770000000  0.4684490000000  0.5259370000000 1.0
C      1  0.4644490000000  0.5501020000000  0.5145140000000 1.0
C      1  0.4720100000000  0.5090400000000  0.4792690000000 1.0
C      1  0.4606760000000  0.4704270000000  0.4468170000000 1.0
C      1  0.4919120000000  0.5597670000000  0.5077930000000 1.0
C      1  0.4911300000000  0.5012420000000  0.5036220000000 1.0
C      1  0.5284180000000  0.4440890000000  0.4990510000000 1.0
C      1  0.5723070000000  0.5327300000000  0.4925600000000 1.0
C      1  0.4664300000000  0.5358330000000  0.5406630000000 1.0
C      1  0.4992770000000  0.4754180000000  0.4873040000000 1.0
C      1  0.4942070000000  0.5355280000000  0.5508620000000 1.0
C      1  0.5423710000000  0.4588110000000  0.4775270000000 1.0
C      1  0.4495190000000  0.4699390000000  0.4970540000000 1.0
C      1  0.5394060000000  0.4505900000000  0.5257340000000 1.0
C      1  0.5017880000000  0.5101210000000  0.5635550000000 1.0
C      1  0.4175340000000  0.5116740000000  0.5141930000000 1.0
C      1  0.5204100000000  0.4729250000000  0.4663190000000 1.0
C      1  0.4342990000000  0.4872000000000  0.4783770000000 1.0
C      1  0.4322550000000  0.4989090000000  0.5341970000000 1.0
C      1  0.5766570000000  0.5162910000000  0.5178900000000 1.0
C      1  0.4995420000000  0.5529130000000  0.4794110000000 1.0
C      1  0.5533740000000  0.5234920000000  0.5355260000000 1.0
C      1  0.5413370000000  0.5502950000000  0.5267540000000 1.0
C      1  0.4641380000000  0.4456840000000  0.4596920000000 1.0
C      1  0.5484070000000  0.5509060000000  0.4971220000000 1.0
C      1  0.5156150000000  0.5185980000000  0.5074760000000 1.0
C      1  0.5166230000000  0.4955460000000  0.4201130000000 1.0
C      1  0.5257130000000  0.5357590000000  0.4828000000000 1.0
END
