TITL C-951347-9520-790 4.91268408109493e-06 125000 -968.156699902557 0 0 155 (C1) n - 1
REM
REM in /home/bkarasulu/work/CARBON/AIRSS/Generating-Clusters/EDIP-Nigel-Params/with-SteepDescent/Only-C1/SD-CG/HFTN-CG
REM
REM
REM
REM
REM
REM ./C.cell (11c1c37f851c82e70ff6c80c92926a4b)
REM
REM compiler GCC version 9.2.1 20190827 (Red Hat 9.2.1-1)
REM options -cpp -mtune=generic -march=x86-64 -g -O0 -fpre-include=/usr/include/finclude/math-vector-fortran.h
REM seed 1085851393 1436968238 261627380 -727417553 -367136920 2112549361 851394837 -65245150 -462466657 568241385 59628687 -970169503 1533557479 2070100402 2109371846 1906255381 763471209 -1580815788 -1375616417 1456247676 -1953003844 1660942123 310511471 1520420141 143672817 -1164610245 327627692 -592192179 2116639177 -536456957 -91371980 2054680775 -1845729132
REM
CELL 1.54180   50.00000   50.00000   50.00000   90.00000   90.00000   90.00000
LATT -1
SFAC C  
C      1  0.4306680000000  0.5033130000000  0.4845680000000 1.0
C      1  0.5035700000000  0.4445200000000  0.5473820000000 1.0
C      1  0.4928970000000  0.4149220000000  0.4683430000000 1.0
C      1  0.5699700000000  0.5128160000000  0.5151640000000 1.0
C      1  0.4282160000000  0.4728690000000  0.4505860000000 1.0
C      1  0.4693780000000  0.4957310000000  0.5038770000000 1.0
C      1  0.5235960000000  0.4168760000000  0.4274240000000 1.0
C      1  0.5038420000000  0.5123840000000  0.4718470000000 1.0
C      1  0.4642920000000  0.4899470000000  0.4005500000000 1.0
C      1  0.4794000000000  0.5150360000000  0.4338390000000 1.0
C      1  0.4929890000000  0.4747810000000  0.6110640000000 1.0
C      1  0.4569110000000  0.5462610000000  0.4943990000000 1.0
C      1  0.4428750000000  0.4723390000000  0.4091350000000 1.0
C      1  0.4704050000000  0.5064380000000  0.4607450000000 1.0
C      1  0.4262600000000  0.5819000000000  0.4780160000000 1.0
C      1  0.5314170000000  0.4564340000000  0.5000620000000 1.0
C      1  0.4709010000000  0.5878070000000  0.5670060000000 1.0
C      1  0.5013020000000  0.5543710000000  0.5857700000000 1.0
C      1  0.5416100000000  0.5479010000000  0.4127590000000 1.0
C      1  0.4744170000000  0.5195560000000  0.5445440000000 1.0
C      1  0.4794060000000  0.5352640000000  0.5856030000000 1.0
C      1  0.4614990000000  0.5960210000000  0.5420130000000 1.0
C      1  0.5717760000000  0.4221370000000  0.5545160000000 1.0
C      1  0.5459010000000  0.5855880000000  0.5556200000000 1.0
C      1  0.4383500000000  0.5523350000000  0.5410950000000 1.0
C      1  0.4613210000000  0.5994210000000  0.4804000000000 1.0
C      1  0.5410920000000  0.4667560000000  0.5270520000000 1.0
C      1  0.5432650000000  0.4758440000000  0.4775620000000 1.0
C      1  0.4432380000000  0.5545220000000  0.4390730000000 1.0
C      1  0.4559320000000  0.5351590000000  0.5650840000000 1.0
C      1  0.5819130000000  0.4497790000000  0.5111140000000 1.0
C      1  0.4875320000000  0.5481720000000  0.5008220000000 1.0
C      1  0.5996890000000  0.5128340000000  0.4711480000000 1.0
C      1  0.4778610000000  0.4446940000000  0.5033450000000 1.0
C      1  0.4970510000000  0.4872680000000  0.5077640000000 1.0
C      1  0.5695200000000  0.4646950000000  0.5339260000000 1.0
C      1  0.5212090000000  0.5028330000000  0.4942610000000 1.0
C      1  0.5105460000000  0.4522300000000  0.6035340000000 1.0
C      1  0.4156280000000  0.4478750000000  0.4619210000000 1.0
C      1  0.5615020000000  0.5397300000000  0.4316390000000 1.0
C      1  0.5162450000000  0.4204000000000  0.5599840000000 1.0
C      1  0.5504290000000  0.5349680000000  0.4596950000000 1.0
C      1  0.5809540000000  0.4738390000000  0.4411420000000 1.0
C      1  0.4333810000000  0.4329320000000  0.5179030000000 1.0
C      1  0.5667550000000  0.5000770000000  0.4031060000000 1.0
C      1  0.4948690000000  0.5349910000000  0.5273760000000 1.0
C      1  0.5394550000000  0.5270670000000  0.5085050000000 1.0
C      1  0.4905320000000  0.4577950000000  0.5706910000000 1.0
C      1  0.5779230000000  0.5172210000000  0.4228970000000 1.0
C      1  0.4021770000000  0.4508870000000  0.4863320000000 1.0
C      1  0.4471360000000  0.5757360000000  0.4973760000000 1.0
C      1  0.4534740000000  0.4453660000000  0.5986540000000 1.0
C      1  0.5056550000000  0.5095610000000  0.3958780000000 1.0
C      1  0.4629050000000  0.4725090000000  0.6050460000000 1.0
C      1  0.4858830000000  0.4890140000000  0.5619110000000 1.0
C      1  0.5294070000000  0.4902250000000  0.5385390000000 1.0
C      1  0.5538830000000  0.4916580000000  0.5823420000000 1.0
C      1  0.5620820000000  0.5774700000000  0.4843400000000 1.0
C      1  0.5171870000000  0.3971980000000  0.5118490000000 1.0
C      1  0.5313290000000  0.5038110000000  0.5645840000000 1.0
C      1  0.4581000000000  0.4363470000000  0.4434380000000 1.0
C      1  0.4677260000000  0.4358000000000  0.5740850000000 1.0
C      1  0.4767540000000  0.3984180000000  0.5409360000000 1.0
C      1  0.4961620000000  0.4634280000000  0.4628300000000 1.0
C      1  0.4147140000000  0.5219350000000  0.5039360000000 1.0
C      1  0.5783300000000  0.4932440000000  0.5371680000000 1.0
C      1  0.4977600000000  0.5765770000000  0.5050760000000 1.0
C      1  0.4489130000000  0.4472760000000  0.4195490000000 1.0
C      1  0.5315730000000  0.4067310000000  0.5359460000000 1.0
C      1  0.5212000000000  0.5038030000000  0.4497100000000 1.0
C      1  0.5742250000000  0.4264680000000  0.4713500000000 1.0
C      1  0.4754210000000  0.4155080000000  0.4924440000000 1.0
C      1  0.5792010000000  0.4544700000000  0.4636970000000 1.0
C      1  0.5206840000000  0.5728670000000  0.5261030000000 1.0
C      1  0.5043870000000  0.5893270000000  0.4733640000000 1.0
C      1  0.4105180000000  0.4761220000000  0.5282950000000 1.0
C      1  0.4820800000000  0.6054970000000  0.5251260000000 1.0
C      1  0.5631730000000  0.5785090000000  0.5339060000000 1.0
C      1  0.4478040000000  0.4869080000000  0.5836780000000 1.0
C      1  0.4703220000000  0.5676660000000  0.4373600000000 1.0
C      1  0.4868910000000  0.4088070000000  0.5665790000000 1.0
C      1  0.4831790000000  0.5361690000000  0.3951210000000 1.0
C      1  0.5634410000000  0.4092050000000  0.4527190000000 1.0
C      1  0.4790930000000  0.4361230000000  0.5316200000000 1.0
C      1  0.5043140000000  0.5022270000000  0.6122890000000 1.0
C      1  0.4597110000000  0.4765300000000  0.4618470000000 1.0
C      1  0.5870490000000  0.4660850000000  0.4882400000000 1.0
C      1  0.4384090000000  0.4305970000000  0.4644730000000 1.0
C      1  0.4069430000000  0.5385190000000  0.4698010000000 1.0
C      1  0.4381760000000  0.5320170000000  0.4204930000000 1.0
C      1  0.5602450000000  0.4105910000000  0.5318530000000 1.0
C      1  0.4103960000000  0.4508270000000  0.5130820000000 1.0
C      1  0.5363800000000  0.4056340000000  0.4494490000000 1.0
C      1  0.4782590000000  0.5886070000000  0.4576590000000 1.0
C      1  0.4507760000000  0.4396930000000  0.5430970000000 1.0
C      1  0.4803250000000  0.6165050000000  0.4988630000000 1.0
C      1  0.4154870000000  0.5135320000000  0.4250340000000 1.0
C      1  0.4129930000000  0.5073510000000  0.5595150000000 1.0
C      1  0.5388750000000  0.4623540000000  0.4185730000000 1.0
C      1  0.5236900000000  0.5420680000000  0.5317790000000 1.0
C      1  0.5381790000000  0.4267370000000  0.4973030000000 1.0
C      1  0.5312410000000  0.6086310000000  0.5071300000000 1.0
C      1  0.4548480000000  0.4737440000000  0.4917220000000 1.0
C      1  0.5995450000000  0.4912490000000  0.4905490000000 1.0
C      1  0.5023550000000  0.4868040000000  0.5358300000000 1.0
C      1  0.4445160000000  0.4187700000000  0.4915610000000 1.0
C      1  0.5626990000000  0.5470010000000  0.4850350000000 1.0
C      1  0.5375900000000  0.5336010000000  0.5608070000000 1.0
C      1  0.5236860000000  0.5505270000000  0.4562660000000 1.0
C      1  0.5675480000000  0.5351940000000  0.5597000000000 1.0
C      1  0.5755510000000  0.5059860000000  0.5639090000000 1.0
C      1  0.4368130000000  0.5134360000000  0.5755260000000 1.0
C      1  0.5919810000000  0.5391580000000  0.4859960000000 1.0
C      1  0.5552290000000  0.5919080000000  0.5085310000000 1.0
C      1  0.4962780000000  0.5102820000000  0.5841400000000 1.0
C      1  0.4909290000000  0.5586290000000  0.4156290000000 1.0
C      1  0.4629700000000  0.5187760000000  0.4098050000000 1.0
C      1  0.5645370000000  0.4752570000000  0.4168250000000 1.0
C      1  0.5917540000000  0.5343760000000  0.5155560000000 1.0
C      1  0.5765810000000  0.5514650000000  0.5358620000000 1.0
C      1  0.5214150000000  0.4086060000000  0.4749150000000 1.0
C      1  0.5878530000000  0.5018390000000  0.4453390000000 1.0
C      1  0.4116670000000  0.4779790000000  0.5574630000000 1.0
C      1  0.4215970000000  0.5610360000000  0.4588240000000 1.0
C      1  0.5188340000000  0.5931970000000  0.5583080000000 1.0
C      1  0.5321600000000  0.5134990000000  0.6051910000000 1.0
C      1  0.4425480000000  0.5787750000000  0.5280580000000 1.0
C      1  0.5282140000000  0.5409850000000  0.5887210000000 1.0
C      1  0.5268010000000  0.5793250000000  0.4577300000000 1.0
C      1  0.5021200000000  0.4343070000000  0.4231680000000 1.0
C      1  0.4491050000000  0.5252250000000  0.4717360000000 1.0
C      1  0.5081350000000  0.5160350000000  0.4261930000000 1.0
C      1  0.5534840000000  0.4601280000000  0.5795830000000 1.0
C      1  0.5523060000000  0.5895990000000  0.4611730000000 1.0
C      1  0.5722150000000  0.4496060000000  0.5594250000000 1.0
C      1  0.4403150000000  0.5333660000000  0.5173860000000 1.0
C      1  0.5103620000000  0.4608100000000  0.4128790000000 1.0
C      1  0.5690330000000  0.4233570000000  0.5025630000000 1.0
C      1  0.4558400000000  0.5096200000000  0.5250590000000 1.0
C      1  0.4934790000000  0.4819550000000  0.3977200000000 1.0
C      1  0.4111670000000  0.4919340000000  0.4659030000000 1.0
C      1  0.4317760000000  0.4652660000000  0.5738240000000 1.0
C      1  0.5163990000000  0.5448980000000  0.4271010000000 1.0
C      1  0.4014570000000  0.5158060000000  0.4518190000000 1.0
C      1  0.4972210000000  0.5792900000000  0.5712450000000 1.0
C      1  0.4872960000000  0.4366300000000  0.4490700000000 1.0
C      1  0.5039450000000  0.5401280000000  0.4764190000000 1.0
C      1  0.5097700000000  0.6155950000000  0.4883580000000 1.0
C      1  0.5630940000000  0.5025990000000  0.4815660000000 1.0
C      1  0.4009480000000  0.5038700000000  0.5233360000000 1.0
C      1  0.5241480000000  0.4748830000000  0.4522020000000 1.0
C      1  0.5010270000000  0.4607030000000  0.4938490000000 1.0
C      1  0.5292450000000  0.4427540000000  0.5833920000000 1.0
C      1  0.4181320000000  0.4853890000000  0.4161010000000 1.0
C      1  0.4875800000000  0.3970470000000  0.5138940000000 1.0
END
