TITL C-951335-1172-55 -5.32005376379637e-06 125000 -1065.48807338518 0 0 170 (C1) n - 1
REM
REM in /home/bkarasulu/work/CARBON/AIRSS/Generating-Clusters/EDIP-Nigel-Params/with-SteepDescent/Only-C1/SD-CG/HFTN-CG
REM
REM
REM
REM
REM
REM ./C.cell (11c1c37f851c82e70ff6c80c92926a4b)
REM
REM compiler GCC version 9.2.1 20190827 (Red Hat 9.2.1-1)
REM options -cpp -mtune=generic -march=x86-64 -g -O0 -fpre-include=/usr/include/finclude/math-vector-fortran.h
REM seed 1893085688 1606614292 1158215870 -639344772 121756875 -787759737 -477165558 808880188 -1738006554 347393982 -2085710904 -2076564382 -2089156179 1335577971 -423541601 1063169638 1894597509 752062074 -1190670158 1903462856 766327887 1118356578 -1308144406 1556268430 -50473814 1089925850 -1123744639 730065498 -1200455499 1512287845 -2095522465 -843380599 1241354538
REM
CELL 1.54180   50.00000   50.00000   50.00000   90.00000   90.00000   90.00000
LATT -1
SFAC C  
C      1  0.4087360000000  0.4959160000000  0.4515680000000 1.0
C      1  0.5288090000000  0.4857900000000  0.4549380000000 1.0
C      1  0.4013460000000  0.4889700000000  0.5545700000000 1.0
C      1  0.4253110000000  0.5242080000000  0.5794050000000 1.0
C      1  0.5308610000000  0.5907310000000  0.5358240000000 1.0
C      1  0.5919240000000  0.4971860000000  0.5585580000000 1.0
C      1  0.5893580000000  0.5032900000000  0.5107570000000 1.0
C      1  0.4030120000000  0.4471880000000  0.4583320000000 1.0
C      1  0.4969270000000  0.5246980000000  0.4425290000000 1.0
C      1  0.4977060000000  0.6036470000000  0.4813660000000 1.0
C      1  0.5454370000000  0.3858850000000  0.5403730000000 1.0
C      1  0.4777970000000  0.4450820000000  0.4908010000000 1.0
C      1  0.4927830000000  0.3920700000000  0.5089620000000 1.0
C      1  0.4550040000000  0.5476490000000  0.5264510000000 1.0
C      1  0.4208870000000  0.4851890000000  0.5315560000000 1.0
C      1  0.3758470000000  0.5041660000000  0.4928670000000 1.0
C      1  0.5039390000000  0.5027290000000  0.4927400000000 1.0
C      1  0.5468500000000  0.5703560000000  0.5463530000000 1.0
C      1  0.4813750000000  0.5764150000000  0.4439640000000 1.0
C      1  0.4643930000000  0.5450590000000  0.4091270000000 1.0
C      1  0.6032870000000  0.5631490000000  0.4887690000000 1.0
C      1  0.4029780000000  0.5358440000000  0.5658430000000 1.0
C      1  0.4767190000000  0.5030690000000  0.5065460000000 1.0
C      1  0.4593340000000  0.5704270000000  0.4236720000000 1.0
C      1  0.5559930000000  0.5724520000000  0.4246730000000 1.0
C      1  0.5093840000000  0.4908340000000  0.5509290000000 1.0
C      1  0.3876780000000  0.5161310000000  0.5503840000000 1.0
C      1  0.5253760000000  0.4604190000000  0.4749450000000 1.0
C      1  0.4291380000000  0.4471020000000  0.5825130000000 1.0
C      1  0.4645470000000  0.4756020000000  0.4044580000000 1.0
C      1  0.5586970000000  0.4299320000000  0.5393770000000 1.0
C      1  0.4671000000000  0.4191930000000  0.4784390000000 1.0
C      1  0.4605950000000  0.4766510000000  0.6013040000000 1.0
C      1  0.5352550000000  0.4618920000000  0.5956960000000 1.0
C      1  0.4528480000000  0.5278670000000  0.4421880000000 1.0
C      1  0.4931130000000  0.4404130000000  0.4242790000000 1.0
C      1  0.5673140000000  0.4069530000000  0.5013170000000 1.0
C      1  0.4524010000000  0.4622490000000  0.4939800000000 1.0
C      1  0.4920490000000  0.5380680000000  0.4006890000000 1.0
C      1  0.5591960000000  0.4875110000000  0.5122320000000 1.0
C      1  0.4092160000000  0.4398710000000  0.5183820000000 1.0
C      1  0.5558630000000  0.5359040000000  0.5118810000000 1.0
C      1  0.4044360000000  0.5312850000000  0.5276380000000 1.0
C      1  0.4237860000000  0.5698510000000  0.5285460000000 1.0
C      1  0.5812510000000  0.5465870000000  0.4502520000000 1.0
C      1  0.6043360000000  0.5164910000000  0.4589260000000 1.0
C      1  0.4929830000000  0.5190340000000  0.5996600000000 1.0
C      1  0.5655120000000  0.5870290000000  0.4477580000000 1.0
C      1  0.4873220000000  0.5499340000000  0.4578130000000 1.0
C      1  0.5713540000000  0.4760480000000  0.5616440000000 1.0
C      1  0.5251420000000  0.5322760000000  0.4293580000000 1.0
C      1  0.4989520000000  0.4151170000000  0.5289560000000 1.0
C      1  0.4982250000000  0.3979130000000  0.4808140000000 1.0
C      1  0.4145050000000  0.5653770000000  0.5014460000000 1.0
C      1  0.4964790000000  0.4558970000000  0.4702510000000 1.0
C      1  0.4657050000000  0.5610320000000  0.5758610000000 1.0
C      1  0.4995150000000  0.5342970000000  0.5748300000000 1.0
C      1  0.5265870000000  0.4687420000000  0.5469760000000 1.0
C      1  0.4664220000000  0.5052560000000  0.6005370000000 1.0
C      1  0.6023560000000  0.4697390000000  0.4790860000000 1.0
C      1  0.4449320000000  0.4781650000000  0.4682020000000 1.0
C      1  0.4622070000000  0.4511060000000  0.5494770000000 1.0
C      1  0.6019350000000  0.4984240000000  0.4835190000000 1.0
C      1  0.4487960000000  0.5398350000000  0.5800460000000 1.0
C      1  0.5131880000000  0.4751520000000  0.3999700000000 1.0
C      1  0.4217390000000  0.4302330000000  0.4696700000000 1.0
C      1  0.5325090000000  0.4105430000000  0.4448150000000 1.0
C      1  0.4900570000000  0.5992790000000  0.5096080000000 1.0
C      1  0.5814510000000  0.4498620000000  0.5486610000000 1.0
C      1  0.6009460000000  0.4591370000000  0.5283850000000 1.0
C      1  0.5453690000000  0.4249400000000  0.5651650000000 1.0
C      1  0.4538540000000  0.4579770000000  0.4467960000000 1.0
C      1  0.4891270000000  0.4572120000000  0.4002340000000 1.0
C      1  0.5581660000000  0.5313440000000  0.5792590000000 1.0
C      1  0.5054980000000  0.6018200000000  0.5341920000000 1.0
C      1  0.5929270000000  0.5423980000000  0.5421180000000 1.0
C      1  0.4332490000000  0.5702210000000  0.4345190000000 1.0
C      1  0.5799500000000  0.4776790000000  0.4356080000000 1.0
C      1  0.4786670000000  0.4559920000000  0.5743940000000 1.0
C      1  0.4658860000000  0.3973400000000  0.5192160000000 1.0
C      1  0.5009120000000  0.4989300000000  0.4610550000000 1.0
C      1  0.5431860000000  0.5078660000000  0.5899970000000 1.0
C      1  0.5836180000000  0.4269830000000  0.4885710000000 1.0
C      1  0.4734850000000  0.5968420000000  0.4651720000000 1.0
C      1  0.4487560000000  0.4106130000000  0.5006380000000 1.0
C      1  0.4806460000000  0.4946750000000  0.4224270000000 1.0
C      1  0.5661660000000  0.4026260000000  0.5297450000000 1.0
C      1  0.4253230000000  0.4920230000000  0.4263100000000 1.0
C      1  0.5428740000000  0.5590490000000  0.5743620000000 1.0
C      1  0.4417320000000  0.5149600000000  0.4182510000000 1.0
C      1  0.5171680000000  0.5202960000000  0.5511700000000 1.0
C      1  0.5736300000000  0.5517990000000  0.4129380000000 1.0
C      1  0.6068620000000  0.5483050000000  0.4653460000000 1.0
C      1  0.4385840000000  0.4353030000000  0.5593080000000 1.0
C      1  0.4842060000000  0.4624570000000  0.4436420000000 1.0
C      1  0.5376380000000  0.5327900000000  0.4570130000000 1.0
C      1  0.5114330000000  0.5351740000000  0.5002690000000 1.0
C      1  0.5516790000000  0.4822720000000  0.5408900000000 1.0
C      1  0.5871730000000  0.5059640000000  0.4349500000000 1.0
C      1  0.5848880000000  0.5810930000000  0.4972720000000 1.0
C      1  0.5223120000000  0.4758970000000  0.5003880000000 1.0
C      1  0.5030660000000  0.4098160000000  0.5586730000000 1.0
C      1  0.4510740000000  0.5906270000000  0.4833530000000 1.0
C      1  0.5799100000000  0.5243380000000  0.5592640000000 1.0
C      1  0.5127350000000  0.5596710000000  0.5815280000000 1.0
C      1  0.5009010000000  0.4352270000000  0.5753170000000 1.0
C      1  0.4288220000000  0.5072780000000  0.4891620000000 1.0
C      1  0.4626270000000  0.5049950000000  0.4612750000000 1.0
C      1  0.4478380000000  0.5847960000000  0.5326740000000 1.0
C      1  0.5569910000000  0.5849420000000  0.4957990000000 1.0
C      1  0.4603980000000  0.5453040000000  0.4964180000000 1.0
C      1  0.5856410000000  0.5334550000000  0.5162170000000 1.0
C      1  0.5599300000000  0.4221120000000  0.4408400000000 1.0
C      1  0.4640990000000  0.4793770000000  0.5157250000000 1.0
C      1  0.4112240000000  0.5217620000000  0.4677390000000 1.0
C      1  0.4609380000000  0.5978710000000  0.5105910000000 1.0
C      1  0.5405130000000  0.4309440000000  0.4874480000000 1.0
C      1  0.4576160000000  0.5163760000000  0.4888580000000 1.0
C      1  0.3910260000000  0.5468470000000  0.5043440000000 1.0
C      1  0.4918430000000  0.5982300000000  0.5581290000000 1.0
C      1  0.5414310000000  0.5125220000000  0.4133280000000 1.0
C      1  0.5013790000000  0.5319790000000  0.5295210000000 1.0
C      1  0.5197580000000  0.5946620000000  0.4639490000000 1.0
C      1  0.5314900000000  0.3992960000000  0.5617450000000 1.0
C      1  0.5906600000000  0.4591130000000  0.4547380000000 1.0
C      1  0.3867620000000  0.4781910000000  0.4937670000000 1.0
C      1  0.5757590000000  0.4353380000000  0.4618140000000 1.0
C      1  0.5348520000000  0.4839290000000  0.4204330000000 1.0
C      1  0.5187560000000  0.4270640000000  0.4247080000000 1.0
C      1  0.4480780000000  0.4293200000000  0.4559820000000 1.0
C      1  0.4985100000000  0.5095550000000  0.4023870000000 1.0
C      1  0.4185140000000  0.4288810000000  0.5417040000000 1.0
C      1  0.4344490000000  0.4729760000000  0.5909140000000 1.0
C      1  0.4015010000000  0.4729530000000  0.4685360000000 1.0
C      1  0.4515300000000  0.4797340000000  0.5423290000000 1.0
C      1  0.5115510000000  0.4755500000000  0.6047740000000 1.0
C      1  0.5269910000000  0.5736340000000  0.4189990000000 1.0
C      1  0.6051540000000  0.4891880000000  0.5327480000000 1.0
C      1  0.5941630000000  0.4519270000000  0.5006040000000 1.0
C      1  0.4409880000000  0.4664290000000  0.4208280000000 1.0
C      1  0.5274860000000  0.4475530000000  0.5712130000000 1.0
C      1  0.4653350000000  0.5032200000000  0.5621050000000 1.0
C      1  0.4323270000000  0.5488990000000  0.4544370000000 1.0
C      1  0.3977920000000  0.4673730000000  0.5212170000000 1.0
C      1  0.4218110000000  0.5101290000000  0.5172430000000 1.0
C      1  0.4241400000000  0.4949860000000  0.5746100000000 1.0
C      1  0.5146600000000  0.5560680000000  0.4000270000000 1.0
C      1  0.4879140000000  0.4429740000000  0.5223510000000 1.0
C      1  0.5435290000000  0.5398440000000  0.5399830000000 1.0
C      1  0.5093380000000  0.5878110000000  0.4372660000000 1.0
C      1  0.5486110000000  0.5972730000000  0.4693830000000 1.0
C      1  0.5470530000000  0.5108040000000  0.4986290000000 1.0
C      1  0.3856730000000  0.5282150000000  0.4819880000000 1.0
C      1  0.5547350000000  0.5539920000000  0.4648640000000 1.0
C      1  0.5550210000000  0.4387680000000  0.4176040000000 1.0
C      1  0.4742750000000  0.5314830000000  0.5450900000000 1.0
C      1  0.4918210000000  0.4846070000000  0.5722080000000 1.0
C      1  0.5562740000000  0.4813960000000  0.5884280000000 1.0
C      1  0.4308630000000  0.4367220000000  0.4979740000000 1.0
C      1  0.5703390000000  0.5221050000000  0.4154860000000 1.0
C      1  0.5170140000000  0.5029930000000  0.6036020000000 1.0
C      1  0.5167790000000  0.4558610000000  0.5223250000000 1.0
C      1  0.5360530000000  0.4343790000000  0.5174410000000 1.0
C      1  0.5440820000000  0.5079420000000  0.4691820000000 1.0
C      1  0.4891350000000  0.5770450000000  0.5761190000000 1.0
C      1  0.5595580000000  0.4673850000000  0.4175200000000 1.0
C      1  0.4389220000000  0.5625260000000  0.4825770000000 1.0
C      1  0.5242400000000  0.4093660000000  0.4733790000000 1.0
C      1  0.4887220000000  0.5508400000000  0.4870740000000 1.0
C      1  0.5430540000000  0.5569960000000  0.4940530000000 1.0
END
