TITL C-951339-9237-68 0.113281601109142 125000 -121.330092086497 0 0 23 (C1) n - 1
REM
REM in /home/bkarasulu/work/CARBON/AIRSS/Generating-Clusters/EDIP-Nigel-Params/with-SteepDescent/Only-C1/SD-CG/HFTN-CG
REM
REM
REM
REM
REM
REM ./C.cell (11c1c37f851c82e70ff6c80c92926a4b)
REM
REM compiler GCC version 9.2.1 20190827 (Red Hat 9.2.1-1)
REM options -cpp -mtune=generic -march=x86-64 -g -O0 -fpre-include=/usr/include/finclude/math-vector-fortran.h
REM seed 993828124 1037868767 262936463 770187668 -750981936 -858963105 -2135162135 -1970628720 -1955405391 -387168619 246976230 -1379258052 -1394527376 898489910 371538122 -1594647539 -604907326 -1567542885 942970877 2088198570 -971977163 -1478939449 -1963140180 -1779031982 -1509311197 500052426 -1044804467 793604321 -814682753 -1864462369 1151206655 -423917175 1490589299
REM
CELL 1.54180   50.00000   50.00000   50.00000   90.00000   90.00000   90.00000
LATT -1
SFAC C  
C      1  0.4696030000000  0.4572770000000  0.4748440000000 1.0
C      1  0.5094770000000  0.5174540000000  0.4808060000000 1.0
C      1  0.4862280000000  0.4886620000000  0.5533870000000 1.0
C      1  0.4899540000000  0.5119350000000  0.5413150000000 1.0
C      1  0.5510990000000  0.5622720000000  0.5418660000000 1.0
C      1  0.5282060000000  0.5497630000000  0.5509870000000 1.0
C      1  0.4434370000000  0.4009670000000  0.4323550000000 1.0
C      1  0.4495260000000  0.5070880000000  0.5184500000000 1.0
C      1  0.5647890000000  0.5881130000000  0.5033870000000 1.0
C      1  0.5303340000000  0.5261440000000  0.5671380000000 1.0
C      1  0.4879730000000  0.5047470000000  0.4920520000000 1.0
C      1  0.4798580000000  0.4804320000000  0.4823780000000 1.0
C      1  0.4694590000000  0.5425760000000  0.5124490000000 1.0
C      1  0.4607970000000  0.4338990000000  0.4662350000000 1.0
C      1  0.5305730000000  0.5326510000000  0.4760990000000 1.0
C      1  0.4746930000000  0.5163880000000  0.5160560000000 1.0
C      1  0.5706670000000  0.5651450000000  0.4889100000000 1.0
C      1  0.5512630000000  0.5489090000000  0.4785960000000 1.0
C      1  0.4555750000000  0.3753690000000  0.4339810000000 1.0
C      1  0.5706090000000  0.5730470000000  0.5259840000000 1.0
C      1  0.4478520000000  0.4104300000000  0.4602040000000 1.0
C      1  0.5167310000000  0.5228310000000  0.5420870000000 1.0
C      1  0.4612970000000  0.3839000000000  0.4604330000000 1.0
END
