TITL C-951347-9520-543 -1.66268116646388e-06 125000 -372.8511751849 0 0 62 (C1) n - 1
REM
REM in /home/bkarasulu/work/CARBON/AIRSS/Generating-Clusters/EDIP-Nigel-Params/with-SteepDescent/Only-C1/SD-CG/HFTN-CG
REM
REM
REM
REM
REM
REM ./C.cell (11c1c37f851c82e70ff6c80c92926a4b)
REM
REM compiler GCC version 9.2.1 20190827 (Red Hat 9.2.1-1)
REM options -cpp -mtune=generic -march=x86-64 -g -O0 -fpre-include=/usr/include/finclude/math-vector-fortran.h
REM seed 187502221 1025193678 78837322 1958664916 -1363715917 439311237 -387284136 267149252 2131269600 -1587536225 -1403576945 387357101 -1333185792 325355746 1621082371 -1437576293 1926400624 1763782681 1367040225 58954182 1953172237 -1056834358 1037268670 -682649950 1010056656 813804610 383245676 919886905 1780380970 -1408874850 -541571862 1015154288 -338096002
REM
CELL 1.54180   50.00000   50.00000   50.00000   90.00000   90.00000   90.00000
LATT -1
SFAC C  
C      1  0.5268330000000  0.5142150000000  0.4353410000000 1.0
C      1  0.5228910000000  0.5324810000000  0.4827420000000 1.0
C      1  0.5120480000000  0.4901570000000  0.4838940000000 1.0
C      1  0.5119540000000  0.4887640000000  0.5693160000000 1.0
C      1  0.5080880000000  0.5421810000000  0.5538220000000 1.0
C      1  0.4901960000000  0.4156650000000  0.4858320000000 1.0
C      1  0.4402170000000  0.4560690000000  0.4960890000000 1.0
C      1  0.5382980000000  0.4565110000000  0.5075760000000 1.0
C      1  0.5535680000000  0.4820300000000  0.5476270000000 1.0
C      1  0.5104260000000  0.5668260000000  0.5144750000000 1.0
C      1  0.5281210000000  0.5234900000000  0.5395950000000 1.0
C      1  0.5078910000000  0.5166750000000  0.4588600000000 1.0
C      1  0.5488810000000  0.4820660000000  0.5200290000000 1.0
C      1  0.4967090000000  0.5335520000000  0.5785000000000 1.0
C      1  0.4332050000000  0.5362130000000  0.4863330000000 1.0
C      1  0.4679840000000  0.4503200000000  0.5377640000000 1.0
C      1  0.4644850000000  0.4585530000000  0.4541150000000 1.0
C      1  0.4932990000000  0.4662260000000  0.5356710000000 1.0
C      1  0.4977240000000  0.4224060000000  0.5130830000000 1.0
C      1  0.4956340000000  0.4640380000000  0.4897040000000 1.0
C      1  0.4405500000000  0.5313380000000  0.5346460000000 1.0
C      1  0.5615540000000  0.5019490000000  0.4769780000000 1.0
C      1  0.5706530000000  0.5299180000000  0.5136170000000 1.0
C      1  0.4743050000000  0.4238430000000  0.5292160000000 1.0
C      1  0.4798770000000  0.5451050000000  0.4811140000000 1.0
C      1  0.4863830000000  0.4991210000000  0.5221020000000 1.0
C      1  0.4549180000000  0.5543210000000  0.4944140000000 1.0
C      1  0.5513660000000  0.5290880000000  0.4696690000000 1.0
C      1  0.5498160000000  0.5415190000000  0.5306110000000 1.0
C      1  0.4323670000000  0.5188520000000  0.5092110000000 1.0
C      1  0.4624940000000  0.5487540000000  0.5228360000000 1.0
C      1  0.5492340000000  0.5315710000000  0.4417840000000 1.0
C      1  0.4793090000000  0.4424190000000  0.4746470000000 1.0
C      1  0.4349540000000  0.4855680000000  0.5384750000000 1.0
C      1  0.5663620000000  0.5011410000000  0.5053140000000 1.0
C      1  0.4555440000000  0.4322120000000  0.4903110000000 1.0
C      1  0.4710400000000  0.4958750000000  0.4268400000000 1.0
C      1  0.5069540000000  0.4627390000000  0.5608350000000 1.0
C      1  0.5067780000000  0.5574620000000  0.4872550000000 1.0
C      1  0.4435910000000  0.4727970000000  0.4706210000000 1.0
C      1  0.5378610000000  0.5657490000000  0.5225420000000 1.0
C      1  0.5829390000000  0.5477050000000  0.4951270000000 1.0
C      1  0.4611710000000  0.5136210000000  0.4463670000000 1.0
C      1  0.4889150000000  0.5071700000000  0.5726920000000 1.0
C      1  0.4858210000000  0.5517500000000  0.4336910000000 1.0
C      1  0.4667520000000  0.5122880000000  0.4982200000000 1.0
C      1  0.4475610000000  0.4658240000000  0.5233060000000 1.0
C      1  0.5081930000000  0.4511150000000  0.5127890000000 1.0
C      1  0.4909600000000  0.5534920000000  0.5325290000000 1.0
C      1  0.4480740000000  0.5036840000000  0.4717050000000 1.0
C      1  0.4456510000000  0.5074960000000  0.5518780000000 1.0
C      1  0.5210100000000  0.4443230000000  0.4590010000000 1.0
C      1  0.5360040000000  0.5012060000000  0.5579370000000 1.0
C      1  0.4821240000000  0.5329320000000  0.4530980000000 1.0
C      1  0.5394860000000  0.4834470000000  0.4698200000000 1.0
C      1  0.5420230000000  0.4546760000000  0.4771920000000 1.0
C      1  0.5335620000000  0.4855260000000  0.4398590000000 1.0
C      1  0.5151260000000  0.5092550000000  0.5127660000000 1.0
C      1  0.4747170000000  0.5146340000000  0.5463580000000 1.0
C      1  0.4837230000000  0.4757580000000  0.4415340000000 1.0
C      1  0.5116290000000  0.4647630000000  0.4398300000000 1.0
C      1  0.5701940000000  0.5495580000000  0.4708880000000 1.0
END
