TITL C-951338-5626-648 -3.2166195291007e-06 125000 -1109.03728262036 0 0 176 (C1) n - 1
REM
REM in /home/bkarasulu/work/CARBON/AIRSS/Generating-Clusters/EDIP-Nigel-Params/with-SteepDescent/Only-C1/SD-CG/HFTN-CG
REM
REM
REM
REM
REM
REM ./C.cell (11c1c37f851c82e70ff6c80c92926a4b)
REM
REM compiler GCC version 9.2.1 20190827 (Red Hat 9.2.1-1)
REM options -cpp -mtune=generic -march=x86-64 -g -O0 -fpre-include=/usr/include/finclude/math-vector-fortran.h
REM seed -717050290 -1002042059 -566306818 -1794784184 -1408273467 604981550 1443458833 1590569795 -366399747 137299391 1550626194 -1450341694 -1433274101 1231855109 1931877181 1612758295 1592957277 199177993 116383548 1721692453 -26025598 240313339 1215350658 -1823362995 3491855 1268800572 -1240507044 -505931059 -492411414 119589649 984080051 172513102 1611117336
REM
CELL 1.54180   50.00000   50.00000   50.00000   90.00000   90.00000   90.00000
LATT -1
SFAC C  
C      1  0.4150620000000  0.4232810000000  0.5201240000000 1.0
C      1  0.5399350000000  0.5980690000000  0.4547630000000 1.0
C      1  0.6063470000000  0.4780680000000  0.5008510000000 1.0
C      1  0.4263520000000  0.4569300000000  0.5572870000000 1.0
C      1  0.4429860000000  0.4221060000000  0.4681040000000 1.0
C      1  0.4171470000000  0.4360400000000  0.4627630000000 1.0
C      1  0.4588280000000  0.5216030000000  0.4487090000000 1.0
C      1  0.5009700000000  0.5352990000000  0.6061730000000 1.0
C      1  0.5383420000000  0.4046040000000  0.4550880000000 1.0
C      1  0.5540650000000  0.4190700000000  0.5152430000000 1.0
C      1  0.4780610000000  0.4470970000000  0.4358610000000 1.0
C      1  0.5492550000000  0.4787900000000  0.4547260000000 1.0
C      1  0.5293640000000  0.5223320000000  0.4026830000000 1.0
C      1  0.5333460000000  0.5805810000000  0.4341340000000 1.0
C      1  0.5337670000000  0.3892320000000  0.4777720000000 1.0
C      1  0.5018480000000  0.4861740000000  0.6040940000000 1.0
C      1  0.4645460000000  0.5493680000000  0.5799380000000 1.0
C      1  0.4505980000000  0.4199060000000  0.5517300000000 1.0
C      1  0.3764050000000  0.4880850000000  0.5111070000000 1.0
C      1  0.4960580000000  0.4300500000000  0.4874680000000 1.0
C      1  0.4450210000000  0.4577870000000  0.5814760000000 1.0
C      1  0.5198440000000  0.5126140000000  0.6050260000000 1.0
C      1  0.5294830000000  0.4958770000000  0.3934180000000 1.0
C      1  0.4503370000000  0.6136740000000  0.4932900000000 1.0
C      1  0.5104160000000  0.4777250000000  0.4058340000000 1.0
C      1  0.4414300000000  0.4630450000000  0.4111830000000 1.0
C      1  0.4702580000000  0.4458690000000  0.4932750000000 1.0
C      1  0.5546750000000  0.4280670000000  0.4608600000000 1.0
C      1  0.5230870000000  0.3846910000000  0.5250420000000 1.0
C      1  0.4168920000000  0.5103950000000  0.5660120000000 1.0
C      1  0.4735310000000  0.4979630000000  0.5159130000000 1.0
C      1  0.4504860000000  0.5701820000000  0.4681760000000 1.0
C      1  0.3965830000000  0.4287490000000  0.4803310000000 1.0
C      1  0.5954520000000  0.5157280000000  0.4369490000000 1.0
C      1  0.4225410000000  0.5645830000000  0.4691950000000 1.0
C      1  0.4362810000000  0.5670420000000  0.5447970000000 1.0
C      1  0.5503930000000  0.5612520000000  0.4243790000000 1.0
C      1  0.5349680000000  0.4519900000000  0.4620190000000 1.0
C      1  0.5616820000000  0.5262260000000  0.5016270000000 1.0
C      1  0.5716740000000  0.4265200000000  0.5631580000000 1.0
C      1  0.5822320000000  0.5461800000000  0.5640420000000 1.0
C      1  0.5751210000000  0.4553940000000  0.5670260000000 1.0
C      1  0.4267340000000  0.5009050000000  0.5900900000000 1.0
C      1  0.3899600000000  0.4761160000000  0.4661840000000 1.0
C      1  0.5870080000000  0.5126900000000  0.4634830000000 1.0
C      1  0.4590590000000  0.5980980000000  0.4714050000000 1.0
C      1  0.5132330000000  0.4147730000000  0.4430810000000 1.0
C      1  0.4950710000000  0.4937340000000  0.4267870000000 1.0
C      1  0.5702030000000  0.5138870000000  0.5964400000000 1.0
C      1  0.4401770000000  0.5665680000000  0.5127680000000 1.0
C      1  0.4678860000000  0.5627480000000  0.4049800000000 1.0
C      1  0.4141430000000  0.5170120000000  0.4663630000000 1.0
C      1  0.5028770000000  0.5331630000000  0.3988280000000 1.0
C      1  0.4367270000000  0.5173020000000  0.5446590000000 1.0
C      1  0.6013890000000  0.5067570000000  0.5072920000000 1.0
C      1  0.4315230000000  0.5063500000000  0.4901190000000 1.0
C      1  0.5818960000000  0.4193710000000  0.5082270000000 1.0
C      1  0.4485980000000  0.4843070000000  0.5951150000000 1.0
C      1  0.5738620000000  0.5218300000000  0.4222040000000 1.0
C      1  0.5386360000000  0.3957190000000  0.5042310000000 1.0
C      1  0.5193720000000  0.5490720000000  0.4960330000000 1.0
C      1  0.5366440000000  0.6045660000000  0.4818420000000 1.0
C      1  0.4338470000000  0.4773960000000  0.4827620000000 1.0
C      1  0.3907560000000  0.4279410000000  0.5069390000000 1.0
C      1  0.4926140000000  0.5587870000000  0.4833460000000 1.0
C      1  0.5586660000000  0.5908710000000  0.5519970000000 1.0
C      1  0.4642720000000  0.4702520000000  0.4481910000000 1.0
C      1  0.5714790000000  0.5882730000000  0.5243150000000 1.0
C      1  0.5525130000000  0.4149500000000  0.5447020000000 1.0
C      1  0.5150010000000  0.4788000000000  0.5340030000000 1.0
C      1  0.5994430000000  0.4997800000000  0.5566770000000 1.0
C      1  0.4254680000000  0.5052290000000  0.4252280000000 1.0
C      1  0.4295740000000  0.3993470000000  0.5123030000000 1.0
C      1  0.4676850000000  0.4527770000000  0.4074090000000 1.0
C      1  0.4564150000000  0.5365590000000  0.3946890000000 1.0
C      1  0.5538000000000  0.5089130000000  0.5504740000000 1.0
C      1  0.5717220000000  0.4884070000000  0.4741470000000 1.0
C      1  0.4166260000000  0.4664720000000  0.4594660000000 1.0
C      1  0.5530660000000  0.4549770000000  0.4138720000000 1.0
C      1  0.5613090000000  0.4847920000000  0.5314420000000 1.0
C      1  0.4140480000000  0.5623820000000  0.4975540000000 1.0
C      1  0.4868650000000  0.5945090000000  0.4369030000000 1.0
C      1  0.4622670000000  0.4718510000000  0.4780930000000 1.0
C      1  0.5513930000000  0.5846250000000  0.5000730000000 1.0
C      1  0.4732280000000  0.3925820000000  0.5090040000000 1.0
C      1  0.5057710000000  0.4239990000000  0.5600750000000 1.0
C      1  0.4617980000000  0.5154230000000  0.4945610000000 1.0
C      1  0.5418560000000  0.5566890000000  0.5907550000000 1.0
C      1  0.5276560000000  0.4999620000000  0.4634930000000 1.0
C      1  0.5376860000000  0.5266640000000  0.4546360000000 1.0
C      1  0.4437500000000  0.3991130000000  0.4864980000000 1.0
C      1  0.5439880000000  0.4538990000000  0.5633050000000 1.0
C      1  0.5896640000000  0.4656160000000  0.4785130000000 1.0
C      1  0.5056480000000  0.5903350000000  0.5148590000000 1.0
C      1  0.4528360000000  0.3972860000000  0.5301010000000 1.0
C      1  0.5251450000000  0.4535390000000  0.4147240000000 1.0
C      1  0.4823240000000  0.5889260000000  0.5559270000000 1.0
C      1  0.4908180000000  0.4126930000000  0.4619730000000 1.0
C      1  0.5205990000000  0.4537900000000  0.4897200000000 1.0
C      1  0.5083240000000  0.4883280000000  0.5600760000000 1.0
C      1  0.5165960000000  0.5230280000000  0.5118320000000 1.0
C      1  0.5680680000000  0.4699620000000  0.4322860000000 1.0
C      1  0.3974430000000  0.4949370000000  0.5277750000000 1.0
C      1  0.4197840000000  0.5412600000000  0.4542430000000 1.0
C      1  0.4849880000000  0.5714710000000  0.5797180000000 1.0
C      1  0.4590330000000  0.4953850000000  0.5415950000000 1.0
C      1  0.4860040000000  0.4698990000000  0.3901620000000 1.0
C      1  0.4752810000000  0.4982190000000  0.5915120000000 1.0
C      1  0.5052210000000  0.5717190000000  0.4325880000000 1.0
C      1  0.5568850000000  0.4961450000000  0.5001740000000 1.0
C      1  0.4766570000000  0.5071280000000  0.4690880000000 1.0
C      1  0.4344410000000  0.5219700000000  0.4047640000000 1.0
C      1  0.3986760000000  0.5369470000000  0.5045700000000 1.0
C      1  0.5322300000000  0.6010480000000  0.5518380000000 1.0
C      1  0.5502770000000  0.5301190000000  0.5299150000000 1.0
C      1  0.5078320000000  0.6065490000000  0.4895980000000 1.0
C      1  0.5129510000000  0.4660110000000  0.5826850000000 1.0
C      1  0.5635710000000  0.5648860000000  0.4802780000000 1.0
C      1  0.5887110000000  0.5533680000000  0.4927770000000 1.0
C      1  0.4970190000000  0.5602420000000  0.4059600000000 1.0
C      1  0.5983560000000  0.5457260000000  0.5402100000000 1.0
C      1  0.5918040000000  0.5658310000000  0.5197260000000 1.0
C      1  0.5057160000000  0.6025570000000  0.5417900000000 1.0
C      1  0.5348710000000  0.3922300000000  0.5504680000000 1.0
C      1  0.4905860000000  0.4272510000000  0.5347710000000 1.0
C      1  0.5398310000000  0.4642000000000  0.5346270000000 1.0
C      1  0.5371730000000  0.5531990000000  0.5426560000000 1.0
C      1  0.6058590000000  0.4612550000000  0.5247230000000 1.0
C      1  0.4949670000000  0.4760670000000  0.5129360000000 1.0
C      1  0.4530670000000  0.5439680000000  0.5512180000000 1.0
C      1  0.5468310000000  0.5286120000000  0.6021310000000 1.0
C      1  0.4543650000000  0.5932060000000  0.5450740000000 1.0
C      1  0.5883240000000  0.4547110000000  0.4496970000000 1.0
C      1  0.5772290000000  0.5170370000000  0.5687660000000 1.0
C      1  0.4792270000000  0.5207070000000  0.3859800000000 1.0
C      1  0.5264250000000  0.4953430000000  0.4945970000000 1.0
C      1  0.6015330000000  0.5257590000000  0.4851240000000 1.0
C      1  0.5571550000000  0.5630670000000  0.5645540000000 1.0
C      1  0.4670420000000  0.5460780000000  0.5013630000000 1.0
C      1  0.4650880000000  0.5526180000000  0.4472380000000 1.0
C      1  0.4974520000000  0.4093140000000  0.5121020000000 1.0
C      1  0.5132040000000  0.4447280000000  0.4398780000000 1.0
C      1  0.6074610000000  0.5175300000000  0.5339220000000 1.0
C      1  0.4979900000000  0.5286820000000  0.5357400000000 1.0
C      1  0.5150710000000  0.5377830000000  0.5581180000000 1.0
C      1  0.5476740000000  0.5327260000000  0.4256690000000 1.0
C      1  0.4166000000000  0.5148450000000  0.5168620000000 1.0
C      1  0.3884110000000  0.5220720000000  0.4795610000000 1.0
C      1  0.5803310000000  0.4279250000000  0.4485000000000 1.0
C      1  0.5154190000000  0.3987770000000  0.5696350000000 1.0
C      1  0.4659670000000  0.4222130000000  0.4491000000000 1.0
C      1  0.4738740000000  0.5277640000000  0.5988790000000 1.0
C      1  0.5444480000000  0.5421570000000  0.4798900000000 1.0
C      1  0.4940200000000  0.5528270000000  0.4541100000000 1.0
C      1  0.3942860000000  0.4978340000000  0.5553410000000 1.0
C      1  0.4750770000000  0.5448820000000  0.5303740000000 1.0
C      1  0.4941630000000  0.4418300000000  0.5795300000000 1.0
C      1  0.3775130000000  0.4945710000000  0.4838730000000 1.0
C      1  0.4493200000000  0.4671930000000  0.5382130000000 1.0
C      1  0.5874220000000  0.4740020000000  0.5453570000000 1.0
C      1  0.4880410000000  0.5941550000000  0.4679270000000 1.0
C      1  0.4245260000000  0.4764600000000  0.4297600000000 1.0
C      1  0.4224990000000  0.4287600000000  0.5480610000000 1.0
C      1  0.4511350000000  0.5956220000000  0.5147220000000 1.0
C      1  0.6017530000000  0.4345600000000  0.5180160000000 1.0
C      1  0.4616060000000  0.5835180000000  0.4246980000000 1.0
C      1  0.5008100000000  0.4945510000000  0.4545980000000 1.0
C      1  0.5404510000000  0.4458130000000  0.5110580000000 1.0
C      1  0.4631950000000  0.4963620000000  0.4289960000000 1.0
C      1  0.5283510000000  0.5707610000000  0.5148190000000 1.0
C      1  0.5104700000000  0.5548500000000  0.5856520000000 1.0
C      1  0.4749470000000  0.4935290000000  0.3797810000000 1.0
C      1  0.4750890000000  0.4518650000000  0.5228080000000 1.0
C      1  0.4805400000000  0.4979770000000  0.5625010000000 1.0
C      1  0.4659680000000  0.4408340000000  0.5694630000000 1.0
C      1  0.5272110000000  0.5110700000000  0.5668950000000 1.0
END
