TITL C-950523-3027-35 -1.04934876569567e-07 125000 -234.002476534249 0 0 39 (C1) n - 1
REM
REM in /home/bkarasulu/work/CARBON/AIRSS/Generating-Clusters/EDIP-Nigel-Params/with-SteepDescent/Only-C1/SD-CG/HFTN-CG
REM
REM
REM
REM
REM
REM ./C.cell (11c1c37f851c82e70ff6c80c92926a4b)
REM
REM compiler GCC version 9.2.1 20190827 (Red Hat 9.2.1-1)
REM options -cpp -mtune=generic -march=x86-64 -g -O0 -fpre-include=/usr/include/finclude/math-vector-fortran.h
REM seed 534719662 -1430862283 1794560344 -182439229 -1330389499 367742252 1200231712 -1718883982 -1256769078 -784878927 -482743623 -54726977 -511893912 -1377546045 1199896341 -511837292 284600841 -787051621 -1813397619 -452309293 -1699108255 1848324877 -1979246290 1675315117 55744156 15019576 769156510 1825855556 -1593027754 -1029519528 1751408454 -1630371030 -2140300355
REM
CELL 1.54180   50.00000   50.00000   50.00000   90.00000   90.00000   90.00000
LATT -1
SFAC C  
C      1  0.4316870000000  0.5282300000000  0.5173520000000 1.0
C      1  0.5395460000000  0.4546450000000  0.4705240000000 1.0
C      1  0.5325610000000  0.4746660000000  0.4504120000000 1.0
C      1  0.4535310000000  0.4895560000000  0.5041440000000 1.0
C      1  0.4294920000000  0.5012170000000  0.5114260000000 1.0
C      1  0.5366130000000  0.5394760000000  0.4619000000000 1.0
C      1  0.4983510000000  0.4451160000000  0.5177140000000 1.0
C      1  0.5742300000000  0.4836920000000  0.4927990000000 1.0
C      1  0.5042050000000  0.4855390000000  0.4467340000000 1.0
C      1  0.4914770000000  0.5362920000000  0.5595680000000 1.0
C      1  0.4916380000000  0.5406950000000  0.4769120000000 1.0
C      1  0.5099030000000  0.5367610000000  0.4536170000000 1.0
C      1  0.5437260000000  0.5126370000000  0.4709020000000 1.0
C      1  0.5265650000000  0.5144370000000  0.5366170000000 1.0
C      1  0.5637960000000  0.4586550000000  0.4853870000000 1.0
C      1  0.5207000000000  0.4992460000000  0.4854190000000 1.0
C      1  0.4705300000000  0.4495650000000  0.5284860000000 1.0
C      1  0.4708460000000  0.5564930000000  0.5186900000000 1.0
C      1  0.4989320000000  0.5482370000000  0.5144400000000 1.0
C      1  0.5170670000000  0.4675600000000  0.5240770000000 1.0
C      1  0.5486630000000  0.5144010000000  0.5185450000000 1.0
C      1  0.5044750000000  0.5130330000000  0.4396430000000 1.0
C      1  0.4542870000000  0.5375730000000  0.5357760000000 1.0
C      1  0.4732660000000  0.5154250000000  0.5611230000000 1.0
C      1  0.4981830000000  0.4378890000000  0.4897510000000 1.0
C      1  0.4694150000000  0.4673620000000  0.5505510000000 1.0
C      1  0.5519140000000  0.4955990000000  0.4481670000000 1.0
C      1  0.5082720000000  0.4912780000000  0.5380490000000 1.0
C      1  0.4702360000000  0.5021500000000  0.4831760000000 1.0
C      1  0.4847370000000  0.4902230000000  0.5544360000000 1.0
C      1  0.5335420000000  0.4769670000000  0.5012560000000 1.0
C      1  0.4486050000000  0.5466370000000  0.4977180000000 1.0
C      1  0.4580030000000  0.4603870000000  0.5033950000000 1.0
C      1  0.4808680000000  0.4794030000000  0.4653020000000 1.0
C      1  0.4969500000000  0.5143120000000  0.4961940000000 1.0
C      1  0.4764350000000  0.4538820000000  0.4803080000000 1.0
C      1  0.5116960000000  0.5397630000000  0.5401770000000 1.0
C      1  0.4622050000000  0.5313380000000  0.4747970000000 1.0
C      1  0.5628510000000  0.5096670000000  0.4945150000000 1.0
END
