TITL C-950530-3293-46 -1.0521619150947e-06 125000 -439.165653324185 0 0 71 (C1) n - 1
REM
REM in /home/bkarasulu/work/CARBON/AIRSS/Generating-Clusters/EDIP-Nigel-Params/with-SteepDescent/Only-C1/SD-CG/HFTN-CG
REM
REM
REM
REM
REM
REM ./C.cell (11c1c37f851c82e70ff6c80c92926a4b)
REM
REM compiler GCC version 9.2.1 20190827 (Red Hat 9.2.1-1)
REM options -cpp -mtune=generic -march=x86-64 -g -O0 -fpre-include=/usr/include/finclude/math-vector-fortran.h
REM seed 1768768116 1006739709 -1984452932 1238449200 -717948466 -1186364683 298870945 -1210325591 -1568098819 993230662 2143576075 -2066887010 -1209137923 1824790853 -361556681 981449259 -1167402513 -1661754368 1649190619 -1154249167 1910748997 -1207443337 1062110986 -1782368280 1541673806 519611178 826273597 1845482402 -2137323045 -2017584783 -1747672948 -80303693 987336678
REM
CELL 1.54180   50.00000   50.00000   50.00000   90.00000   90.00000   90.00000
LATT -1
SFAC C  
C      1  0.5214410000000  0.5706310000000  0.5017610000000 1.0
C      1  0.5226340000000  0.4910230000000  0.5675650000000 1.0
C      1  0.4605730000000  0.5477100000000  0.4513090000000 1.0
C      1  0.4837410000000  0.5288170000000  0.5595750000000 1.0
C      1  0.5257890000000  0.5071570000000  0.4933290000000 1.0
C      1  0.4282840000000  0.4633160000000  0.5243290000000 1.0
C      1  0.4445610000000  0.5575130000000  0.4955250000000 1.0
C      1  0.5029430000000  0.4976520000000  0.5864470000000 1.0
C      1  0.5494250000000  0.5177400000000  0.4758770000000 1.0
C      1  0.4732420000000  0.5724230000000  0.4613970000000 1.0
C      1  0.4779500000000  0.5045630000000  0.4457700000000 1.0
C      1  0.5028300000000  0.5707740000000  0.4614280000000 1.0
C      1  0.4440680000000  0.5062010000000  0.5247470000000 1.0
C      1  0.4404190000000  0.5352190000000  0.5270680000000 1.0
C      1  0.4647000000000  0.5521510000000  0.5199230000000 1.0
C      1  0.4901810000000  0.5127640000000  0.5353990000000 1.0
C      1  0.4253080000000  0.4879750000000  0.5106780000000 1.0
C      1  0.4612200000000  0.4623360000000  0.4821170000000 1.0
C      1  0.5093970000000  0.5415480000000  0.4604020000000 1.0
C      1  0.5228760000000  0.4301030000000  0.5041560000000 1.0
C      1  0.5178740000000  0.5867390000000  0.4791800000000 1.0
C      1  0.4821430000000  0.4833050000000  0.4927040000000 1.0
C      1  0.5795420000000  0.4794930000000  0.4939180000000 1.0
C      1  0.4978710000000  0.5249240000000  0.4345760000000 1.0
C      1  0.4714390000000  0.4289530000000  0.4471200000000 1.0
C      1  0.4809730000000  0.5071360000000  0.4757640000000 1.0
C      1  0.5514400000000  0.4748570000000  0.4537890000000 1.0
C      1  0.5450070000000  0.4556410000000  0.5429590000000 1.0
C      1  0.5460000000000  0.4415110000000  0.4900190000000 1.0
C      1  0.4815830000000  0.4754960000000  0.4377130000000 1.0
C      1  0.4716110000000  0.4954840000000  0.5209090000000 1.0
C      1  0.4497590000000  0.5120420000000  0.4396000000000 1.0
C      1  0.5318410000000  0.4592660000000  0.4710200000000 1.0
C      1  0.4974610000000  0.4392880000000  0.5452560000000 1.0
C      1  0.4649970000000  0.4558740000000  0.4526100000000 1.0
C      1  0.4487050000000  0.5374500000000  0.4750240000000 1.0
C      1  0.5352560000000  0.5089330000000  0.5235670000000 1.0
C      1  0.4581280000000  0.4918040000000  0.5769940000000 1.0
C      1  0.4498120000000  0.4685270000000  0.5662660000000 1.0
C      1  0.5835370000000  0.5253100000000  0.5073850000000 1.0
C      1  0.5312510000000  0.4856490000000  0.4337960000000 1.0
C      1  0.5052330000000  0.5750060000000  0.5257630000000 1.0
C      1  0.4964310000000  0.4256500000000  0.4601140000000 1.0
C      1  0.5138860000000  0.4795130000000  0.4878340000000 1.0
C      1  0.4331830000000  0.4868330000000  0.4823860000000 1.0
C      1  0.4766830000000  0.5801910000000  0.5212870000000 1.0
C      1  0.4964800000000  0.4282190000000  0.4897600000000 1.0
C      1  0.5373050000000  0.5381490000000  0.5330400000000 1.0
C      1  0.4476910000000  0.4539090000000  0.5425960000000 1.0
C      1  0.5148540000000  0.4974210000000  0.5397340000000 1.0
C      1  0.5114580000000  0.5508230000000  0.5433970000000 1.0
C      1  0.4727430000000  0.4455800000000  0.5301090000000 1.0
C      1  0.4787260000000  0.5102560000000  0.5812030000000 1.0
C      1  0.5016640000000  0.5255030000000  0.4864270000000 1.0
C      1  0.5222280000000  0.4403510000000  0.5308230000000 1.0
C      1  0.5673890000000  0.4938570000000  0.4695320000000 1.0
C      1  0.5637340000000  0.5382920000000  0.4925720000000 1.0
C      1  0.5629300000000  0.4577350000000  0.5080730000000 1.0
C      1  0.5175800000000  0.4431860000000  0.4492580000000 1.0
C      1  0.5045340000000  0.4482680000000  0.5710220000000 1.0
C      1  0.5296270000000  0.4624680000000  0.5686400000000 1.0
C      1  0.5579320000000  0.4895610000000  0.5303660000000 1.0
C      1  0.4348100000000  0.5122170000000  0.4660870000000 1.0
C      1  0.5379980000000  0.5324430000000  0.4520530000000 1.0
C      1  0.5088200000000  0.4654730000000  0.4307600000000 1.0
C      1  0.5268170000000  0.5150790000000  0.4294580000000 1.0
C      1  0.4711450000000  0.4391620000000  0.5012890000000 1.0
C      1  0.5835190000000  0.4987620000000  0.5162400000000 1.0
C      1  0.5450530000000  0.5542770000000  0.5096910000000 1.0
C      1  0.4611110000000  0.5813620000000  0.4867700000000 1.0
C      1  0.4906260000000  0.5351530000000  0.5147420000000 1.0
END
