TITL C-950524-1808-640 -1.61447453844934e-06 125000 -396.372145007807 0 0 65 (C1) n - 1
REM
REM in /home/bkarasulu/work/CARBON/AIRSS/Generating-Clusters/EDIP-Nigel-Params/with-SteepDescent/Only-C1/SD-CG/HFTN-CG
REM
REM
REM
REM
REM
REM ./C.cell (11c1c37f851c82e70ff6c80c92926a4b)
REM
REM compiler GCC version 9.2.1 20190827 (Red Hat 9.2.1-1)
REM options -cpp -mtune=generic -march=x86-64 -g -O0 -fpre-include=/usr/include/finclude/math-vector-fortran.h
REM seed -57773985 85503301 -1614252940 1175814829 -1257405570 -1368113734 188720979 1410188416 868830611 -269491884 1545844047 -275210701 -1002181581 -1095230113 -1487921781 708742659 -192558884 -1328534318 -70373275 -169834974 1202882566 2074455585 2141083670 955465277 -1641331804 -223621467 316611963 -908884492 655291293 206154205 -1164014215 2044560769 1595780400
REM
CELL 1.54180   50.00000   50.00000   50.00000   90.00000   90.00000   90.00000
LATT -1
SFAC C  
C      1  0.5480010000000  0.4595320000000  0.5044630000000 1.0
C      1  0.5604040000000  0.5121770000000  0.5447780000000 1.0
C      1  0.4990700000000  0.4801820000000  0.4431890000000 1.0
C      1  0.4568170000000  0.5657270000000  0.5249580000000 1.0
C      1  0.4436720000000  0.4485410000000  0.4806370000000 1.0
C      1  0.5722910000000  0.5009170000000  0.4976060000000 1.0
C      1  0.5450810000000  0.5444170000000  0.4829840000000 1.0
C      1  0.4482210000000  0.4584140000000  0.5309430000000 1.0
C      1  0.5392540000000  0.4724820000000  0.5476730000000 1.0
C      1  0.5073660000000  0.5326600000000  0.5688550000000 1.0
C      1  0.5554350000000  0.4991810000000  0.4742770000000 1.0
C      1  0.5223470000000  0.5419860000000  0.5452540000000 1.0
C      1  0.5408190000000  0.4310800000000  0.5066350000000 1.0
C      1  0.4581520000000  0.5234170000000  0.4294030000000 1.0
C      1  0.5133160000000  0.4574290000000  0.4577600000000 1.0
C      1  0.5199670000000  0.4485700000000  0.5504920000000 1.0
C      1  0.4788650000000  0.5368790000000  0.5588100000000 1.0
C      1  0.5142840000000  0.5035140000000  0.5736150000000 1.0
C      1  0.5189660000000  0.5817790000000  0.5165150000000 1.0
C      1  0.4352040000000  0.4956910000000  0.4742260000000 1.0
C      1  0.4998680000000  0.5391660000000  0.5030550000000 1.0
C      1  0.4575640000000  0.4969340000000  0.4253090000000 1.0
C      1  0.4288700000000  0.5057130000000  0.5213400000000 1.0
C      1  0.5417460000000  0.4525670000000  0.4564340000000 1.0
C      1  0.5486840000000  0.5328380000000  0.4560690000000 1.0
C      1  0.5048750000000  0.5579190000000  0.5269610000000 1.0
C      1  0.5263960000000  0.5007220000000  0.4838890000000 1.0
C      1  0.5415830000000  0.5731360000000  0.4868420000000 1.0
C      1  0.4675050000000  0.5399010000000  0.4498920000000 1.0
C      1  0.5623000000000  0.4676870000000  0.5291940000000 1.0
C      1  0.4757930000000  0.4483090000000  0.5303400000000 1.0
C      1  0.5284930000000  0.5067360000000  0.4183130000000 1.0
C      1  0.4684300000000  0.4762230000000  0.4402710000000 1.0
C      1  0.5262000000000  0.5213810000000  0.4418220000000 1.0
C      1  0.5118710000000  0.4852330000000  0.4176200000000 1.0
C      1  0.4889240000000  0.4361730000000  0.4957470000000 1.0
C      1  0.5275630000000  0.5266520000000  0.4997250000000 1.0
C      1  0.4420580000000  0.4751890000000  0.5527590000000 1.0
C      1  0.5181170000000  0.5875380000000  0.4896310000000 1.0
C      1  0.5051160000000  0.4331320000000  0.4722310000000 1.0
C      1  0.5074950000000  0.5067100000000  0.4593320000000 1.0
C      1  0.4965220000000  0.4907470000000  0.5505350000000 1.0
C      1  0.4542340000000  0.4730030000000  0.4673270000000 1.0
C      1  0.4740790000000  0.5117230000000  0.5415910000000 1.0
C      1  0.4678650000000  0.5096540000000  0.4887760000000 1.0
C      1  0.4334440000000  0.4608680000000  0.5049390000000 1.0
C      1  0.5214910000000  0.4774440000000  0.5038370000000 1.0
C      1  0.4849060000000  0.5257490000000  0.4696820000000 1.0
C      1  0.5319510000000  0.4236180000000  0.4794980000000 1.0
C      1  0.5747560000000  0.4942110000000  0.5251190000000 1.0
C      1  0.5351210000000  0.5198780000000  0.5297440000000 1.0
C      1  0.4787680000000  0.5618220000000  0.5416620000000 1.0
C      1  0.5210160000000  0.4917440000000  0.5309810000000 1.0
C      1  0.4234490000000  0.4884610000000  0.4997750000000 1.0
C      1  0.4336430000000  0.5514330000000  0.4848730000000 1.0
C      1  0.4805280000000  0.5187460000000  0.5132610000000 1.0
C      1  0.4931130000000  0.4651440000000  0.5004320000000 1.0
C      1  0.5233650000000  0.4299840000000  0.5292920000000 1.0
C      1  0.4927990000000  0.4600580000000  0.5517290000000 1.0
C      1  0.5446560000000  0.4959960000000  0.5685590000000 1.0
C      1  0.4482390000000  0.5698280000000  0.4991830000000 1.0
C      1  0.4485660000000  0.5577020000000  0.4624400000000 1.0
C      1  0.5583900000000  0.4744790000000  0.4601070000000 1.0
C      1  0.4456310000000  0.5011140000000  0.5432830000000 1.0
C      1  0.4764850000000  0.4821600000000  0.4835270000000 1.0
END
