TITL C-951347-9520-52 -3.96526992608949e-06 125000 -524.928795496979 0 0 86 (C1) n - 1
REM
REM in /home/bkarasulu/work/CARBON/AIRSS/Generating-Clusters/EDIP-Nigel-Params/with-SteepDescent/Only-C1/SD-CG/HFTN-CG
REM
REM
REM
REM
REM
REM ./C.cell (11c1c37f851c82e70ff6c80c92926a4b)
REM
REM compiler GCC version 9.2.1 20190827 (Red Hat 9.2.1-1)
REM options -cpp -mtune=generic -march=x86-64 -g -O0 -fpre-include=/usr/include/finclude/math-vector-fortran.h
REM seed 297088782 783635631 496217922 -395155306 -380455165 -1785677266 -1261810425 -1500077301 -1803801594 -1978096473 -1444478784 410805900 1167490636 1155252627 -856214519 -706761831 -166065694 -1747853333 1469347055 1428422077 -1173889586 748946251 -92973724 1927868514 1090931106 -1256851832 959854916 894008162 -1441654436 932021041 -1056003821 1348084326 235865175
REM
CELL 1.54180   50.00000   50.00000   50.00000   90.00000   90.00000   90.00000
LATT -1
SFAC C  
C      1  0.3995590000000  0.5219810000000  0.4759270000000 1.0
C      1  0.4695590000000  0.5393360000000  0.5058220000000 1.0
C      1  0.5320680000000  0.5015780000000  0.5749750000000 1.0
C      1  0.5804150000000  0.5278410000000  0.5017730000000 1.0
C      1  0.5354730000000  0.4187750000000  0.4773680000000 1.0
C      1  0.4862200000000  0.5520100000000  0.5574560000000 1.0
C      1  0.4802840000000  0.5151130000000  0.4256420000000 1.0
C      1  0.5471860000000  0.4798910000000  0.4376800000000 1.0
C      1  0.4535930000000  0.5103130000000  0.4316640000000 1.0
C      1  0.5187930000000  0.5757540000000  0.4727490000000 1.0
C      1  0.5431380000000  0.4289950000000  0.5322920000000 1.0
C      1  0.4703920000000  0.4530820000000  0.4593470000000 1.0
C      1  0.5622300000000  0.5243160000000  0.4465600000000 1.0
C      1  0.5159710000000  0.4514130000000  0.5704670000000 1.0
C      1  0.5279550000000  0.4968820000000  0.4231500000000 1.0
C      1  0.5874600000000  0.5187930000000  0.5277020000000 1.0
C      1  0.4107970000000  0.5671370000000  0.4950220000000 1.0
C      1  0.4308910000000  0.4834590000000  0.4906890000000 1.0
C      1  0.5270410000000  0.5105600000000  0.5057130000000 1.0
C      1  0.4751750000000  0.5853150000000  0.4494350000000 1.0
C      1  0.5196970000000  0.5410580000000  0.4385850000000 1.0
C      1  0.5605440000000  0.4530620000000  0.5371570000000 1.0
C      1  0.5260590000000  0.5803320000000  0.5161500000000 1.0
C      1  0.4882800000000  0.4646400000000  0.5045770000000 1.0
C      1  0.5108580000000  0.4480250000000  0.5085690000000 1.0
C      1  0.4978540000000  0.5912210000000  0.4626410000000 1.0
C      1  0.5415090000000  0.4167420000000  0.5056720000000 1.0
C      1  0.5696810000000  0.4531210000000  0.4788450000000 1.0
C      1  0.5750030000000  0.4816370000000  0.4777990000000 1.0
C      1  0.4177270000000  0.4786820000000  0.5166750000000 1.0
C      1  0.4722970000000  0.4209010000000  0.4958830000000 1.0
C      1  0.4522040000000  0.4475550000000  0.5326170000000 1.0
C      1  0.4443800000000  0.4908520000000  0.5587910000000 1.0
C      1  0.5328240000000  0.4575140000000  0.4494560000000 1.0
C      1  0.4896020000000  0.5432390000000  0.4287640000000 1.0
C      1  0.5088920000000  0.4188460000000  0.4671420000000 1.0
C      1  0.4702210000000  0.5049880000000  0.5540400000000 1.0
C      1  0.4896850000000  0.4616560000000  0.5634870000000 1.0
C      1  0.5580420000000  0.5489890000000  0.4634940000000 1.0
C      1  0.5554720000000  0.4978470000000  0.4607090000000 1.0
C      1  0.4734120000000  0.4390750000000  0.5521840000000 1.0
C      1  0.3922600000000  0.5454750000000  0.4923440000000 1.0
C      1  0.5281650000000  0.5019850000000  0.4762900000000 1.0
C      1  0.4723550000000  0.5572740000000  0.4496200000000 1.0
C      1  0.4206530000000  0.5328810000000  0.5256700000000 1.0
C      1  0.4907160000000  0.4699130000000  0.4462300000000 1.0
C      1  0.4789990000000  0.5705240000000  0.5359460000000 1.0
C      1  0.5623100000000  0.4619150000000  0.5639210000000 1.0
C      1  0.5478470000000  0.5632410000000  0.5133270000000 1.0
C      1  0.4500370000000  0.4624080000000  0.4820030000000 1.0
C      1  0.4997260000000  0.4945780000000  0.4332890000000 1.0
C      1  0.5290380000000  0.4948350000000  0.5313030000000 1.0
C      1  0.4201430000000  0.5023080000000  0.4710410000000 1.0
C      1  0.5365280000000  0.4722360000000  0.5689740000000 1.0
C      1  0.5505330000000  0.4747290000000  0.5187810000000 1.0
C      1  0.3950760000000  0.5269260000000  0.5144440000000 1.0
C      1  0.5697970000000  0.5181900000000  0.5485640000000 1.0
C      1  0.4812380000000  0.4256520000000  0.4680340000000 1.0
C      1  0.4889980000000  0.4919010000000  0.5163680000000 1.0
C      1  0.5090260000000  0.5484660000000  0.4834570000000 1.0
C      1  0.4929180000000  0.5303310000000  0.5258950000000 1.0
C      1  0.5355580000000  0.4586700000000  0.4967780000000 1.0
C      1  0.4942240000000  0.4881380000000  0.5477700000000 1.0
C      1  0.4798250000000  0.5441950000000  0.4771850000000 1.0
C      1  0.4533900000000  0.5708130000000  0.5222680000000 1.0
C      1  0.4635410000000  0.4482210000000  0.5045470000000 1.0
C      1  0.5424830000000  0.5143440000000  0.5509010000000 1.0
C      1  0.5743720000000  0.4900450000000  0.5059580000000 1.0
C      1  0.4938170000000  0.4181590000000  0.5419690000000 1.0
C      1  0.4300390000000  0.5568650000000  0.5128000000000 1.0
C      1  0.4838100000000  0.5255210000000  0.5691880000000 1.0
C      1  0.5182980000000  0.4726480000000  0.4735580000000 1.0
C      1  0.5601890000000  0.5461900000000  0.4931830000000 1.0
C      1  0.4951400000000  0.4137570000000  0.5127050000000 1.0
C      1  0.4326540000000  0.5034400000000  0.4465510000000 1.0
C      1  0.5353030000000  0.5644530000000  0.4513950000000 1.0
C      1  0.4381770000000  0.5091210000000  0.5255560000000 1.0
C      1  0.5401500000000  0.5240140000000  0.4248660000000 1.0
C      1  0.5066340000000  0.5129240000000  0.5804330000000 1.0
C      1  0.4624990000000  0.5096340000000  0.5077490000000 1.0
C      1  0.5108900000000  0.5249180000000  0.4631640000000 1.0
C      1  0.4327110000000  0.4687310000000  0.5412090000000 1.0
C      1  0.5183350000000  0.5378970000000  0.5104530000000 1.0
C      1  0.5205010000000  0.4269600000000  0.5530000000000 1.0
C      1  0.5518780000000  0.4380120000000  0.4617380000000 1.0
C      1  0.5007730000000  0.5840390000000  0.5249050000000 1.0
END
