TITL C-950526-5686-630 -4.00576175083563e-06 125000 -513.32863992342 0 0 84 (C1) n - 1
REM
REM in /home/bkarasulu/work/CARBON/AIRSS/Generating-Clusters/EDIP-Nigel-Params/with-SteepDescent/Only-C1/SD-CG/HFTN-CG
REM
REM
REM
REM
REM
REM ./C.cell (11c1c37f851c82e70ff6c80c92926a4b)
REM
REM compiler GCC version 9.2.1 20190827 (Red Hat 9.2.1-1)
REM options -cpp -mtune=generic -march=x86-64 -g -O0 -fpre-include=/usr/include/finclude/math-vector-fortran.h
REM seed 1253193024 -842843814 -1713458947 986118076 -1244865765 -73419835 1908062999 -1481409053 24449303 -495172693 1878997765 -34478539 2004958973 1470969726 -1698886042 1282773957 999656047 -822743348 1037983713 410271752 1124982336 -1786229314 -2125846558 932005317 1585263396 1594125910 -956070442 944994001 766167924 1363560761 1183823141 -536563651 2009824354
REM
CELL 1.54180   50.00000   50.00000   50.00000   90.00000   90.00000   90.00000
LATT -1
SFAC C  
C      1  0.4709460000000  0.5026810000000  0.5274300000000 1.0
C      1  0.4932190000000  0.5674920000000  0.5587850000000 1.0
C      1  0.5351760000000  0.5690550000000  0.4949490000000 1.0
C      1  0.5069850000000  0.5413950000000  0.4315580000000 1.0
C      1  0.5207330000000  0.5418910000000  0.5302590000000 1.0
C      1  0.5442400000000  0.4287280000000  0.4624580000000 1.0
C      1  0.4388600000000  0.4797600000000  0.4961510000000 1.0
C      1  0.4390650000000  0.4538900000000  0.4788960000000 1.0
C      1  0.4913290000000  0.5697040000000  0.4685970000000 1.0
C      1  0.5209980000000  0.4344950000000  0.5239090000000 1.0
C      1  0.4505920000000  0.4744150000000  0.4294060000000 1.0
C      1  0.5138450000000  0.4682410000000  0.4932860000000 1.0
C      1  0.4785300000000  0.5285740000000  0.5115230000000 1.0
C      1  0.5176700000000  0.4998070000000  0.4942060000000 1.0
C      1  0.5058640000000  0.5802600000000  0.4924910000000 1.0
C      1  0.5002970000000  0.4640210000000  0.4337500000000 1.0
C      1  0.4997970000000  0.4378510000000  0.4463850000000 1.0
C      1  0.5645350000000  0.5456180000000  0.5324380000000 1.0
C      1  0.5264180000000  0.4766060000000  0.4341410000000 1.0
C      1  0.4491380000000  0.5426110000000  0.4606630000000 1.0
C      1  0.5218660000000  0.5024060000000  0.4472740000000 1.0
C      1  0.4862920000000  0.4662180000000  0.5072830000000 1.0
C      1  0.4386630000000  0.5446610000000  0.5189450000000 1.0
C      1  0.5368070000000  0.5457730000000  0.4744980000000 1.0
C      1  0.4276570000000  0.5057670000000  0.4847040000000 1.0
C      1  0.4483940000000  0.4548820000000  0.4512930000000 1.0
C      1  0.5591650000000  0.4511830000000  0.4705530000000 1.0
C      1  0.4904710000000  0.4803560000000  0.5332230000000 1.0
C      1  0.5539300000000  0.5378170000000  0.5585020000000 1.0
C      1  0.4820060000000  0.5281270000000  0.4249240000000 1.0
C      1  0.5723910000000  0.4743580000000  0.4559190000000 1.0
C      1  0.5411700000000  0.4840710000000  0.5328830000000 1.0
C      1  0.5033410000000  0.4236680000000  0.4933630000000 1.0
C      1  0.4786520000000  0.4769880000000  0.4182700000000 1.0
C      1  0.5244860000000  0.5062390000000  0.5221050000000 1.0
C      1  0.4439710000000  0.4919620000000  0.5729710000000 1.0
C      1  0.4654050000000  0.5721170000000  0.5647820000000 1.0
C      1  0.4769470000000  0.4181050000000  0.4787860000000 1.0
C      1  0.4772250000000  0.4214820000000  0.4503320000000 1.0
C      1  0.4806740000000  0.5313180000000  0.5816200000000 1.0
C      1  0.4417020000000  0.5156120000000  0.4613800000000 1.0
C      1  0.4412550000000  0.5000340000000  0.4382180000000 1.0
C      1  0.5610190000000  0.4542900000000  0.4995300000000 1.0
C      1  0.5337930000000  0.4551590000000  0.5649300000000 1.0
C      1  0.4567190000000  0.5449810000000  0.5683190000000 1.0
C      1  0.4936560000000  0.5519200000000  0.5324170000000 1.0
C      1  0.4689410000000  0.4410180000000  0.5158540000000 1.0
C      1  0.5284080000000  0.5229810000000  0.4262470000000 1.0
C      1  0.5781310000000  0.5241960000000  0.4853170000000 1.0
C      1  0.5713230000000  0.4947410000000  0.4782390000000 1.0
C      1  0.4951390000000  0.5191680000000  0.4851200000000 1.0
C      1  0.5645140000000  0.5230460000000  0.5129890000000 1.0
C      1  0.5623470000000  0.4899480000000  0.4338620000000 1.0
C      1  0.4533690000000  0.4309220000000  0.4928820000000 1.0
C      1  0.5673760000000  0.4957710000000  0.5251170000000 1.0
C      1  0.5388230000000  0.5067620000000  0.4742630000000 1.0
C      1  0.4606530000000  0.5624250000000  0.5045390000000 1.0
C      1  0.4832180000000  0.5037810000000  0.4113970000000 1.0
C      1  0.4898780000000  0.5038600000000  0.5769590000000 1.0
C      1  0.4758030000000  0.4633770000000  0.5538990000000 1.0
C      1  0.4247890000000  0.5269270000000  0.5024910000000 1.0
C      1  0.4626150000000  0.5628160000000  0.4748540000000 1.0
C      1  0.5051590000000  0.5487700000000  0.5789620000000 1.0
C      1  0.4869720000000  0.5751520000000  0.5153550000000 1.0
C      1  0.4699030000000  0.4826400000000  0.5756640000000 1.0
C      1  0.5290890000000  0.5307400000000  0.5721220000000 1.0
C      1  0.5173480000000  0.4372080000000  0.4699180000000 1.0
C      1  0.5173100000000  0.4363460000000  0.5529710000000 1.0
C      1  0.5639910000000  0.5196940000000  0.4379070000000 1.0
C      1  0.5085710000000  0.5470190000000  0.4607430000000 1.0
C      1  0.4350180000000  0.4766310000000  0.5264940000000 1.0
C      1  0.4912730000000  0.4403350000000  0.5619900000000 1.0
C      1  0.5196540000000  0.5031190000000  0.5761480000000 1.0
C      1  0.5384360000000  0.4817750000000  0.5703960000000 1.0
C      1  0.5408290000000  0.5629480000000  0.5240830000000 1.0
C      1  0.4678000000000  0.4854500000000  0.4922260000000 1.0
C      1  0.4509400000000  0.4534530000000  0.5373180000000 1.0
C      1  0.4909460000000  0.5073320000000  0.4550590000000 1.0
C      1  0.5764530000000  0.4789130000000  0.5031000000000 1.0
C      1  0.4721810000000  0.4836830000000  0.4613660000000 1.0
C      1  0.4433670000000  0.5008660000000  0.5449390000000 1.0
C      1  0.5350240000000  0.4591160000000  0.5136710000000 1.0
C      1  0.5656470000000  0.5387470000000  0.4619480000000 1.0
C      1  0.4428650000000  0.5317390000000  0.5452850000000 1.0
END
