TITL C-951342-2639-595 -1.50161515315655e-07 125000 -214.93906107628 0 0 37 (C1) n - 1
REM
REM in /home/bkarasulu/work/CARBON/AIRSS/Generating-Clusters/EDIP-Nigel-Params/with-SteepDescent/Only-C1/SD-CG/HFTN-CG
REM
REM
REM
REM
REM
REM ./C.cell (11c1c37f851c82e70ff6c80c92926a4b)
REM
REM compiler GCC version 9.2.1 20190827 (Red Hat 9.2.1-1)
REM options -cpp -mtune=generic -march=x86-64 -g -O0 -fpre-include=/usr/include/finclude/math-vector-fortran.h
REM seed 1898179192 -1718992252 1887209157 -1825064746 1809717222 320295715 568890348 98548237 1155326452 1693024433 -1875881169 -1437108544 2138017008 -1288623366 -1181555835 -1738485511 -682397088 -319170640 -1973627422 -1947525887 -505620501 -313613495 413783413 1199084714 1164018320 -732499387 -1426694761 316220504 2019756852 1049785298 -1184740176 -374123944 1877964445
REM
CELL 1.54180   50.00000   50.00000   50.00000   90.00000   90.00000   90.00000
LATT -1
SFAC C  
C      1  0.5488440000000  0.4729820000000  0.5016010000000 1.0
C      1  0.5250100000000  0.5545700000000  0.5374450000000 1.0
C      1  0.4721580000000  0.5525020000000  0.4765850000000 1.0
C      1  0.5476780000000  0.5187600000000  0.4855750000000 1.0
C      1  0.4366790000000  0.4749040000000  0.5001590000000 1.0
C      1  0.5252260000000  0.5301790000000  0.5547210000000 1.0
C      1  0.5454630000000  0.4505760000000  0.5204900000000 1.0
C      1  0.4423370000000  0.5243230000000  0.4930620000000 1.0
C      1  0.5207610000000  0.4791590000000  0.5507480000000 1.0
C      1  0.5291610000000  0.4669090000000  0.4804740000000 1.0
C      1  0.5311620000000  0.4290870000000  0.5088500000000 1.0
C      1  0.5037850000000  0.4957130000000  0.4836120000000 1.0
C      1  0.4399900000000  0.5004030000000  0.5074210000000 1.0
C      1  0.5299730000000  0.5031890000000  0.4676560000000 1.0
C      1  0.5005670000000  0.5492400000000  0.5541760000000 1.0
C      1  0.4839320000000  0.4983850000000  0.5293440000000 1.0
C      1  0.4939630000000  0.5075770000000  0.4380120000000 1.0
C      1  0.4750270000000  0.5474830000000  0.5252700000000 1.0
C      1  0.5311640000000  0.5048510000000  0.5414260000000 1.0
C      1  0.5227770000000  0.5450460000000  0.4546430000000 1.0
C      1  0.4541640000000  0.4523350000000  0.4605540000000 1.0
C      1  0.4611870000000  0.5243160000000  0.4689470000000 1.0
C      1  0.5004680000000  0.5400280000000  0.5118740000000 1.0
C      1  0.4876510000000  0.4525880000000  0.5242640000000 1.0
C      1  0.4808110000000  0.5010870000000  0.4629380000000 1.0
C      1  0.5004700000000  0.5102850000000  0.5099520000000 1.0
C      1  0.5384860000000  0.4577410000000  0.5466860000000 1.0
C      1  0.5190930000000  0.5182140000000  0.4445040000000 1.0
C      1  0.4931580000000  0.4746930000000  0.5406780000000 1.0
C      1  0.4555880000000  0.5509960000000  0.5036680000000 1.0
C      1  0.5513290000000  0.5014490000000  0.5093480000000 1.0
C      1  0.4731100000000  0.4658380000000  0.4772490000000 1.0
C      1  0.5384430000000  0.5453860000000  0.4787760000000 1.0
C      1  0.5159480000000  0.4416010000000  0.4883520000000 1.0
C      1  0.5009570000000  0.5532440000000  0.4846270000000 1.0
C      1  0.4351140000000  0.4566640000000  0.4798930000000 1.0
C      1  0.4883650000000  0.4476960000000  0.4964200000000 1.0
END
