TITL C-950522-5749-36 6.71000369072169e-07 125000 -1094.75456000503 0 0 177 (C1) n - 1
REM
REM in /home/bkarasulu/work/CARBON/AIRSS/Generating-Clusters/EDIP-Nigel-Params/with-SteepDescent/Only-C1/SD-CG/HFTN-CG
REM
REM
REM
REM
REM
REM ./C.cell (11c1c37f851c82e70ff6c80c92926a4b)
REM
REM compiler GCC version 9.2.1 20190827 (Red Hat 9.2.1-1)
REM options -cpp -mtune=generic -march=x86-64 -g -O0 -fpre-include=/usr/include/finclude/math-vector-fortran.h
REM seed -1714479993 569435393 -1445812568 -1708049700 250992677 196772975 -651747250 -612430486 1127412160 679278613 -1937506585 1569760394 -1770724456 -366913378 -1987964606 -15573246 -1358464475 2069261108 -886178363 594003468 -52590272 -989935023 1482467343 -646276025 1661435993 -40038707 -728880743 547466236 -199902918 938583634 780315764 -1583431493 -1353121193
REM
CELL 1.54180   50.00000   50.00000   50.00000   90.00000   90.00000   90.00000
LATT -1
SFAC C  
C      1  0.5461390000000  0.5646160000000  0.4328480000000 1.0
C      1  0.5436290000000  0.4581650000000  0.4016710000000 1.0
C      1  0.4026120000000  0.5279110000000  0.4846020000000 1.0
C      1  0.5634010000000  0.4980570000000  0.4919230000000 1.0
C      1  0.5015580000000  0.5663720000000  0.4019060000000 1.0
C      1  0.4430530000000  0.5739970000000  0.5576530000000 1.0
C      1  0.5704770000000  0.4739580000000  0.5831330000000 1.0
C      1  0.4263850000000  0.4076400000000  0.4623280000000 1.0
C      1  0.5484380000000  0.5531580000000  0.5663740000000 1.0
C      1  0.4256570000000  0.4408150000000  0.5442210000000 1.0
C      1  0.5160340000000  0.5111080000000  0.4849950000000 1.0
C      1  0.5949190000000  0.4903130000000  0.4867450000000 1.0
C      1  0.4949740000000  0.4800720000000  0.6044760000000 1.0
C      1  0.5272410000000  0.4421700000000  0.5406210000000 1.0
C      1  0.5241890000000  0.4667520000000  0.5628640000000 1.0
C      1  0.4749520000000  0.4272130000000  0.5812360000000 1.0
C      1  0.5818060000000  0.5596580000000  0.4656920000000 1.0
C      1  0.4321880000000  0.5202120000000  0.4794820000000 1.0
C      1  0.4644150000000  0.5524440000000  0.5969240000000 1.0
C      1  0.5646590000000  0.4758140000000  0.4124080000000 1.0
C      1  0.4357620000000  0.4906810000000  0.4697790000000 1.0
C      1  0.5508560000000  0.4420210000000  0.4453500000000 1.0
C      1  0.5361420000000  0.5073680000000  0.4413850000000 1.0
C      1  0.6115110000000  0.4397350000000  0.4821990000000 1.0
C      1  0.5202900000000  0.4816070000000  0.4425930000000 1.0
C      1  0.5023500000000  0.5878090000000  0.4646810000000 1.0
C      1  0.4790370000000  0.5871590000000  0.5318620000000 1.0
C      1  0.4873980000000  0.4918730000000  0.5152870000000 1.0
C      1  0.4903770000000  0.5714620000000  0.4382120000000 1.0
C      1  0.5005630000000  0.4397940000000  0.5781460000000 1.0
C      1  0.4817380000000  0.6005800000000  0.4850630000000 1.0
C      1  0.5988770000000  0.4645790000000  0.4440310000000 1.0
C      1  0.4306910000000  0.4497820000000  0.5734810000000 1.0
C      1  0.4751480000000  0.4520550000000  0.4194190000000 1.0
C      1  0.5430540000000  0.4636950000000  0.5867860000000 1.0
C      1  0.5133820000000  0.5873880000000  0.5702160000000 1.0
C      1  0.4691210000000  0.4236800000000  0.5291240000000 1.0
C      1  0.5713280000000  0.4631760000000  0.4372940000000 1.0
C      1  0.5889700000000  0.5328670000000  0.5564150000000 1.0
C      1  0.6057590000000  0.5302700000000  0.5325250000000 1.0
C      1  0.5571420000000  0.4892370000000  0.5411210000000 1.0
C      1  0.4505770000000  0.4758580000000  0.4903690000000 1.0
C      1  0.6113010000000  0.4879690000000  0.4352000000000 1.0
C      1  0.5539690000000  0.5175090000000  0.5927280000000 1.0
C      1  0.4653220000000  0.4103950000000  0.4313510000000 1.0
C      1  0.5051050000000  0.5440980000000  0.5720840000000 1.0
C      1  0.4511200000000  0.4855600000000  0.4418810000000 1.0
C      1  0.4908250000000  0.5600490000000  0.5221280000000 1.0
C      1  0.5556130000000  0.5339480000000  0.5268280000000 1.0
C      1  0.4165040000000  0.4761680000000  0.5801780000000 1.0
C      1  0.4959360000000  0.4756710000000  0.4239560000000 1.0
C      1  0.5348210000000  0.4814400000000  0.5236570000000 1.0
C      1  0.5895400000000  0.4697420000000  0.5612030000000 1.0
C      1  0.4868550000000  0.5826200000000  0.5606200000000 1.0
C      1  0.4331030000000  0.5451380000000  0.5207730000000 1.0
C      1  0.5969660000000  0.4202790000000  0.4956970000000 1.0
C      1  0.4201320000000  0.3992150000000  0.4882580000000 1.0
C      1  0.5628000000000  0.5061770000000  0.4128290000000 1.0
C      1  0.5942950000000  0.5405550000000  0.4842730000000 1.0
C      1  0.5689530000000  0.5093960000000  0.5210380000000 1.0
C      1  0.5383510000000  0.4340320000000  0.4189680000000 1.0
C      1  0.5278440000000  0.6038040000000  0.4611920000000 1.0
C      1  0.3978790000000  0.4860980000000  0.4648110000000 1.0
C      1  0.5748840000000  0.5586610000000  0.5588120000000 1.0
C      1  0.4449270000000  0.5471570000000  0.5470760000000 1.0
C      1  0.4932560000000  0.6066870000000  0.5115350000000 1.0
C      1  0.4126400000000  0.5711900000000  0.4869140000000 1.0
C      1  0.5030550000000  0.4419480000000  0.4520800000000 1.0
C      1  0.5198470000000  0.4993410000000  0.5613220000000 1.0
C      1  0.3915990000000  0.5532360000000  0.4922730000000 1.0
C      1  0.5122460000000  0.4235940000000  0.5574920000000 1.0
C      1  0.4487180000000  0.5810080000000  0.4584770000000 1.0
C      1  0.4614090000000  0.4790060000000  0.5864940000000 1.0
C      1  0.4331430000000  0.4026760000000  0.5119810000000 1.0
C      1  0.3963570000000  0.4632780000000  0.5089830000000 1.0
C      1  0.4709140000000  0.4203230000000  0.4796580000000 1.0
C      1  0.4719030000000  0.5168070000000  0.5198400000000 1.0
C      1  0.4280520000000  0.4471790000000  0.4327530000000 1.0
C      1  0.5373850000000  0.5480170000000  0.5115260000000 1.0
C      1  0.5156410000000  0.5029360000000  0.5149620000000 1.0
C      1  0.5055350000000  0.4142590000000  0.4878990000000 1.0
C      1  0.5361590000000  0.5508060000000  0.4823870000000 1.0
C      1  0.4876610000000  0.4462090000000  0.5214720000000 1.0
C      1  0.5558130000000  0.5742370000000  0.4749910000000 1.0
C      1  0.4150810000000  0.4680730000000  0.4175010000000 1.0
C      1  0.4796280000000  0.4249300000000  0.4132570000000 1.0
C      1  0.5975020000000  0.4534060000000  0.5157420000000 1.0
C      1  0.5409940000000  0.6041830000000  0.4876050000000 1.0
C      1  0.5712510000000  0.5799250000000  0.5392720000000 1.0
C      1  0.4889070000000  0.5413840000000  0.4433310000000 1.0
C      1  0.4392920000000  0.5428390000000  0.6058990000000 1.0
C      1  0.4341130000000  0.5180550000000  0.4087540000000 1.0
C      1  0.5129790000000  0.4163440000000  0.4412240000000 1.0
C      1  0.4132000000000  0.4550590000000  0.4814500000000 1.0
C      1  0.5469200000000  0.5455470000000  0.5938690000000 1.0
C      1  0.4138540000000  0.4346850000000  0.4557250000000 1.0
C      1  0.4333080000000  0.5220200000000  0.5878410000000 1.0
C      1  0.4141990000000  0.4880880000000  0.5508350000000 1.0
C      1  0.4409420000000  0.4486700000000  0.4943020000000 1.0
C      1  0.4879430000000  0.5085090000000  0.6018500000000 1.0
C      1  0.4349850000000  0.4934630000000  0.5965070000000 1.0
C      1  0.5251360000000  0.4604650000000  0.4863310000000 1.0
C      1  0.4863620000000  0.5351580000000  0.5388720000000 1.0
C      1  0.5214960000000  0.6077770000000  0.5078330000000 1.0
C      1  0.4819420000000  0.5533890000000  0.4898500000000 1.0
C      1  0.5456140000000  0.5916260000000  0.4420330000000 1.0
C      1  0.4038100000000  0.5028720000000  0.4419420000000 1.0
C      1  0.5552950000000  0.4320860000000  0.5383570000000 1.0
C      1  0.3964670000000  0.5075900000000  0.5345490000000 1.0
C      1  0.4847500000000  0.4713720000000  0.5364860000000 1.0
C      1  0.4719480000000  0.3988770000000  0.5117130000000 1.0
C      1  0.5041980000000  0.5141090000000  0.4011200000000 1.0
C      1  0.4483160000000  0.5889980000000  0.5320640000000 1.0
C      1  0.4619160000000  0.5775550000000  0.4856020000000 1.0
C      1  0.5759450000000  0.4555320000000  0.5371920000000 1.0
C      1  0.5285350000000  0.5242440000000  0.4134870000000 1.0
C      1  0.4434750000000  0.4974170000000  0.5471510000000 1.0
C      1  0.4617000000000  0.4757880000000  0.5552410000000 1.0
C      1  0.5206410000000  0.5648840000000  0.5266580000000 1.0
C      1  0.4070540000000  0.5333570000000  0.5281270000000 1.0
C      1  0.5714380000000  0.4098080000000  0.4883820000000 1.0
C      1  0.5246680000000  0.5535060000000  0.4164580000000 1.0
C      1  0.5126360000000  0.4398480000000  0.5046570000000 1.0
C      1  0.5474780000000  0.4731480000000  0.4989410000000 1.0
C      1  0.4639800000000  0.5774120000000  0.5788760000000 1.0
C      1  0.5019030000000  0.3925280000000  0.5086930000000 1.0
C      1  0.5985720000000  0.4632110000000  0.4723880000000 1.0
C      1  0.4375660000000  0.5379850000000  0.4556230000000 1.0
C      1  0.6030040000000  0.5130960000000  0.4442010000000 1.0
C      1  0.5198940000000  0.3975750000000  0.5310360000000 1.0
C      1  0.4563890000000  0.4555420000000  0.4419080000000 1.0
C      1  0.4789060000000  0.4970170000000  0.4383860000000 1.0
C      1  0.4607030000000  0.5338430000000  0.4054500000000 1.0
C      1  0.5538520000000  0.4179560000000  0.4658570000000 1.0
C      1  0.4203810000000  0.5246050000000  0.4339790000000 1.0
C      1  0.4828030000000  0.5218820000000  0.4210540000000 1.0
C      1  0.5140460000000  0.5771040000000  0.5962680000000 1.0
C      1  0.4531880000000  0.4426910000000  0.5918140000000 1.0
C      1  0.4893890000000  0.5037150000000  0.4698560000000 1.0
C      1  0.4363980000000  0.5739850000000  0.5074630000000 1.0
C      1  0.4096060000000  0.4626510000000  0.5353500000000 1.0
C      1  0.3858010000000  0.5040620000000  0.4847520000000 1.0
C      1  0.4687280000000  0.4161260000000  0.5566920000000 1.0
C      1  0.4760650000000  0.4485350000000  0.4670100000000 1.0
C      1  0.5250190000000  0.4716940000000  0.3855880000000 1.0
C      1  0.4715700000000  0.5617740000000  0.4005240000000 1.0
C      1  0.4507830000000  0.5228140000000  0.5634420000000 1.0
C      1  0.5251510000000  0.4801720000000  0.6052280000000 1.0
C      1  0.6064740000000  0.5158730000000  0.4734980000000 1.0
C      1  0.5693590000000  0.5487420000000  0.4414830000000 1.0
C      1  0.4250150000000  0.5656090000000  0.4604790000000 1.0
C      1  0.5350360000000  0.5762140000000  0.5515100000000 1.0
C      1  0.6017980000000  0.5500310000000  0.5110400000000 1.0
C      1  0.5474270000000  0.4057000000000  0.5254890000000 1.0
C      1  0.5421020000000  0.5180930000000  0.4718450000000 1.0
C      1  0.5267320000000  0.4575650000000  0.4576450000000 1.0
C      1  0.4793970000000  0.5301490000000  0.5823190000000 1.0
C      1  0.5772450000000  0.5218340000000  0.4339250000000 1.0
C      1  0.5622760000000  0.3909870000000  0.5067770000000 1.0
C      1  0.5261820000000  0.4065840000000  0.4653780000000 1.0
C      1  0.5031630000000  0.4851960000000  0.3966890000000 1.0
C      1  0.5082090000000  0.5616360000000  0.4775290000000 1.0
C      1  0.5899360000000  0.5739950000000  0.5197490000000 1.0
C      1  0.6072250000000  0.4810830000000  0.5127680000000 1.0
C      1  0.5248520000000  0.5072980000000  0.5896120000000 1.0
C      1  0.4362730000000  0.4875710000000  0.4157280000000 1.0
C      1  0.5732580000000  0.5097210000000  0.5699680000000 1.0
C      1  0.4562280000000  0.4055020000000  0.4575740000000 1.0
C      1  0.5165460000000  0.5229090000000  0.5410910000000 1.0
C      1  0.4733230000000  0.5324010000000  0.4676180000000 1.0
C      1  0.5192600000000  0.5498280000000  0.5997270000000 1.0
C      1  0.5999610000000  0.4938990000000  0.5386150000000 1.0
C      1  0.4410440000000  0.4301370000000  0.5199520000000 1.0
C      1  0.3857010000000  0.4912550000000  0.5111350000000 1.0
C      1  0.4489050000000  0.5269710000000  0.5042170000000 1.0
C      1  0.4795290000000  0.4795150000000  0.4877740000000 1.0
C      1  0.4627530000000  0.5796010000000  0.4333910000000 1.0
END
