TITL C-950536-5891-368 -1.20126874400818e-06 125000 -189.610436562432 0 0 33 (C1) n - 1
REM
REM in /home/bkarasulu/work/CARBON/AIRSS/Generating-Clusters/EDIP-Nigel-Params/with-SteepDescent/Only-C1/SD-CG/HFTN-CG
REM
REM
REM
REM
REM
REM ./C.cell (11c1c37f851c82e70ff6c80c92926a4b)
REM
REM compiler GCC version 9.2.1 20190827 (Red Hat 9.2.1-1)
REM options -cpp -mtune=generic -march=x86-64 -g -O0 -fpre-include=/usr/include/finclude/math-vector-fortran.h
REM seed -1728160478 1641937734 1376989867 290686882 -1964675889 -2013976993 858930480 -1242109625 2036016452 -376537929 125481690 -221682255 1886748866 -1338708283 -1415215789 2147190527 910592824 -545485398 32216457 -1098058513 -1538827529 703569682 -1868054909 1693130790 2091291623 2080061790 -1510448459 762938777 215436150 -2064051594 -1624780420 -40861075 485534297
REM
CELL 1.54180   50.00000   50.00000   50.00000   90.00000   90.00000   90.00000
LATT -1
SFAC C  
C      1  0.5403040000000  0.5156240000000  0.5476670000000 1.0
C      1  0.5281710000000  0.4986540000000  0.5288520000000 1.0
C      1  0.5334240000000  0.4928300000000  0.4380410000000 1.0
C      1  0.5159260000000  0.5363800000000  0.4902960000000 1.0
C      1  0.5431560000000  0.5373860000000  0.4839020000000 1.0
C      1  0.4829610000000  0.5225350000000  0.5372200000000 1.0
C      1  0.5348250000000  0.4700040000000  0.5288860000000 1.0
C      1  0.4914160000000  0.4722460000000  0.5386060000000 1.0
C      1  0.4626080000000  0.5079560000000  0.4557190000000 1.0
C      1  0.4916930000000  0.4963610000000  0.4940650000000 1.0
C      1  0.5294080000000  0.4627890000000  0.4771020000000 1.0
C      1  0.4721360000000  0.5504710000000  0.5000150000000 1.0
C      1  0.5498580000000  0.5119150000000  0.4748520000000 1.0
C      1  0.4978950000000  0.4979350000000  0.5249770000000 1.0
C      1  0.5413850000000  0.4616870000000  0.5031640000000 1.0
C      1  0.5010000000000  0.5546220000000  0.5088420000000 1.0
C      1  0.5134750000000  0.4554420000000  0.5404450000000 1.0
C      1  0.5263220000000  0.4923180000000  0.4667940000000 1.0
C      1  0.4347860000000  0.4873120000000  0.5210860000000 1.0
C      1  0.4728430000000  0.5409970000000  0.4727240000000 1.0
C      1  0.5445780000000  0.4485450000000  0.4595390000000 1.0
C      1  0.5557570000000  0.5079250000000  0.4462800000000 1.0
C      1  0.4606430000000  0.5289130000000  0.5180230000000 1.0
C      1  0.5269930000000  0.5389920000000  0.5472890000000 1.0
C      1  0.5028420000000  0.4514310000000  0.4783530000000 1.0
C      1  0.4401100000000  0.4689080000000  0.5397280000000 1.0
C      1  0.4952990000000  0.5206910000000  0.4744510000000 1.0
C      1  0.4658580000000  0.4642390000000  0.5449670000000 1.0
C      1  0.4834960000000  0.4715150000000  0.4807390000000 1.0
C      1  0.4491970000000  0.5044580000000  0.5046060000000 1.0
C      1  0.5015160000000  0.5462350000000  0.5378970000000 1.0
C      1  0.4426920000000  0.5032590000000  0.4763630000000 1.0
C      1  0.4674260000000  0.4794230000000  0.4585090000000 1.0
END
