TITL C-951341-1326-35 7.76617025089252e-07 125000 -577.509914278517 0 0 94 (C1) n - 1
REM
REM in /home/bkarasulu/work/CARBON/AIRSS/Generating-Clusters/EDIP-Nigel-Params/with-SteepDescent/Only-C1/SD-CG/HFTN-CG
REM
REM
REM
REM
REM
REM ./C.cell (11c1c37f851c82e70ff6c80c92926a4b)
REM
REM compiler GCC version 9.2.1 20190827 (Red Hat 9.2.1-1)
REM options -cpp -mtune=generic -march=x86-64 -g -O0 -fpre-include=/usr/include/finclude/math-vector-fortran.h
REM seed -590045869 -349505403 -1290619064 -2109510399 -798245629 1333730800 580745284 752208167 678240362 1298003955 -922183418 -1781592273 560828591 -1140505472 -451667900 546536171 805147126 -146538744 -999232027 1818465566 488320230 1522990943 -1205889897 1740424899 1980106986 1704006230 1800125275 -1144189405 90624824 -113587273 -1936522545 -788435160 -127380592
REM
CELL 1.54180   50.00000   50.00000   50.00000   90.00000   90.00000   90.00000
LATT -1
SFAC C  
C      1  0.5115850000000  0.4979020000000  0.4429460000000 1.0
C      1  0.4996630000000  0.5625920000000  0.4443220000000 1.0
C      1  0.5449730000000  0.4977070000000  0.5403520000000 1.0
C      1  0.4868280000000  0.4694100000000  0.5093140000000 1.0
C      1  0.4283990000000  0.5335990000000  0.5389520000000 1.0
C      1  0.4914440000000  0.4900050000000  0.4698160000000 1.0
C      1  0.4997790000000  0.5335690000000  0.5217920000000 1.0
C      1  0.4994030000000  0.4313770000000  0.4606630000000 1.0
C      1  0.4396360000000  0.5080240000000  0.5359910000000 1.0
C      1  0.4345140000000  0.5241740000000  0.4595320000000 1.0
C      1  0.4749840000000  0.4305050000000  0.5418290000000 1.0
C      1  0.4653750000000  0.4708340000000  0.4637700000000 1.0
C      1  0.5222310000000  0.5262530000000  0.5724370000000 1.0
C      1  0.4948340000000  0.4427870000000  0.5204840000000 1.0
C      1  0.5242410000000  0.5243280000000  0.4476770000000 1.0
C      1  0.5232220000000  0.4546120000000  0.4295290000000 1.0
C      1  0.4625180000000  0.4986900000000  0.4266460000000 1.0
C      1  0.5268530000000  0.4358310000000  0.4517770000000 1.0
C      1  0.5165890000000  0.4558090000000  0.5787360000000 1.0
C      1  0.5213520000000  0.5725440000000  0.4614000000000 1.0
C      1  0.5706660000000  0.4803100000000  0.4948590000000 1.0
C      1  0.5142890000000  0.5885650000000  0.4833850000000 1.0
C      1  0.5474540000000  0.4371160000000  0.5057810000000 1.0
C      1  0.4691660000000  0.5659900000000  0.4842880000000 1.0
C      1  0.4899210000000  0.5945670000000  0.5219060000000 1.0
C      1  0.5353020000000  0.4764630000000  0.5734300000000 1.0
C      1  0.5226190000000  0.4311700000000  0.5675930000000 1.0
C      1  0.5075910000000  0.5807920000000  0.5395080000000 1.0
C      1  0.4478140000000  0.4671040000000  0.4909830000000 1.0
C      1  0.4759210000000  0.5199880000000  0.5760260000000 1.0
C      1  0.4786720000000  0.4895050000000  0.5271500000000 1.0
C      1  0.5512900000000  0.4407180000000  0.4704420000000 1.0
C      1  0.4631170000000  0.5257450000000  0.4537690000000 1.0
C      1  0.5480200000000  0.5659560000000  0.4544190000000 1.0
C      1  0.5654050000000  0.5108570000000  0.4995810000000 1.0
C      1  0.5356200000000  0.5797770000000  0.5283410000000 1.0
C      1  0.4916300000000  0.4680350000000  0.5718700000000 1.0
C      1  0.4507800000000  0.4949880000000  0.5607260000000 1.0
C      1  0.4706580000000  0.4496610000000  0.5649800000000 1.0
C      1  0.4827000000000  0.4829490000000  0.4127320000000 1.0
C      1  0.5102410000000  0.4065720000000  0.5021530000000 1.0
C      1  0.5291650000000  0.4155170000000  0.5205990000000 1.0
C      1  0.5646450000000  0.4682710000000  0.4682000000000 1.0
C      1  0.4468170000000  0.5511760000000  0.4993030000000 1.0
C      1  0.4925410000000  0.5544010000000  0.5443440000000 1.0
C      1  0.4733110000000  0.5550990000000  0.4562390000000 1.0
C      1  0.5608800000000  0.4924110000000  0.4389270000000 1.0
C      1  0.5525720000000  0.5204110000000  0.4402100000000 1.0
C      1  0.5372290000000  0.5640280000000  0.5019470000000 1.0
C      1  0.4618970000000  0.4176050000000  0.4802220000000 1.0
C      1  0.5562040000000  0.4708930000000  0.5417220000000 1.0
C      1  0.4561440000000  0.4240700000000  0.4523790000000 1.0
C      1  0.4463240000000  0.4360400000000  0.4980700000000 1.0
C      1  0.5212840000000  0.4494730000000  0.4931480000000 1.0
C      1  0.4467110000000  0.4842400000000  0.4445140000000 1.0
C      1  0.4964040000000  0.5402670000000  0.5710480000000 1.0
C      1  0.4927590000000  0.5355810000000  0.4907600000000 1.0
C      1  0.4135330000000  0.4666190000000  0.5227900000000 1.0
C      1  0.5027640000000  0.5047450000000  0.5306180000000 1.0
C      1  0.5210190000000  0.5319100000000  0.4781490000000 1.0
C      1  0.4301980000000  0.4514920000000  0.5399830000000 1.0
C      1  0.4567880000000  0.5013750000000  0.5092220000000 1.0
C      1  0.5635980000000  0.4605680000000  0.5162740000000 1.0
C      1  0.4826510000000  0.4932190000000  0.5831720000000 1.0
C      1  0.5575780000000  0.5681220000000  0.5440520000000 1.0
C      1  0.5105930000000  0.4812280000000  0.4939860000000 1.0
C      1  0.4916880000000  0.4179580000000  0.4843770000000 1.0
C      1  0.5478540000000  0.5384860000000  0.5647420000000 1.0
C      1  0.4763980000000  0.4451190000000  0.4482770000000 1.0
C      1  0.5186060000000  0.5003570000000  0.5577160000000 1.0
C      1  0.4306760000000  0.5295830000000  0.4871620000000 1.0
C      1  0.5343710000000  0.4786410000000  0.4438200000000 1.0
C      1  0.5632890000000  0.5175940000000  0.5509930000000 1.0
C      1  0.4429560000000  0.5543150000000  0.5275070000000 1.0
C      1  0.5768740000000  0.5552950000000  0.5249650000000 1.0
C      1  0.5770670000000  0.5250620000000  0.5265130000000 1.0
C      1  0.4161450000000  0.5078030000000  0.4985310000000 1.0
C      1  0.5746940000000  0.5367360000000  0.4807390000000 1.0
C      1  0.4205310000000  0.4794710000000  0.4988910000000 1.0
C      1  0.5344550000000  0.5114420000000  0.5002740000000 1.0
C      1  0.4650880000000  0.5618100000000  0.5420030000000 1.0
C      1  0.5115530000000  0.5424900000000  0.4273960000000 1.0
C      1  0.5043940000000  0.5015240000000  0.4125930000000 1.0
C      1  0.5289700000000  0.5374760000000  0.5174600000000 1.0
C      1  0.4962670000000  0.5284840000000  0.4080280000000 1.0
C      1  0.5117340000000  0.4181130000000  0.5453560000000 1.0
C      1  0.4459940000000  0.4648760000000  0.5611190000000 1.0
C      1  0.4879780000000  0.5880530000000  0.4946550000000 1.0
C      1  0.4470690000000  0.4303410000000  0.5275120000000 1.0
C      1  0.4241110000000  0.4988570000000  0.4526270000000 1.0
C      1  0.5677550000000  0.5608570000000  0.4971070000000 1.0
C      1  0.5653540000000  0.5431770000000  0.4535410000000 1.0
C      1  0.4924000000000  0.4562720000000  0.4239300000000 1.0
C      1  0.4748280000000  0.5136630000000  0.4803990000000 1.0
END
