TITL C-951338-5626-139 -1.44610411194076e-06 125000 -1131.1516715038 0 0 180 (C1) n - 1
REM
REM in /home/bkarasulu/work/CARBON/AIRSS/Generating-Clusters/EDIP-Nigel-Params/with-SteepDescent/Only-C1/SD-CG/HFTN-CG
REM
REM
REM
REM
REM
REM ./C.cell (11c1c37f851c82e70ff6c80c92926a4b)
REM
REM compiler GCC version 9.2.1 20190827 (Red Hat 9.2.1-1)
REM options -cpp -mtune=generic -march=x86-64 -g -O0 -fpre-include=/usr/include/finclude/math-vector-fortran.h
REM seed 526287871 904689915 -346192731 -501622675 -847860116 1317779259 1894781088 -936930806 -23831824 1297141243 -1731509402 -488376790 -568565847 -2136077244 1886097416 -431859144 -595190299 -132891827 1287793224 1333888719 1931365222 -952101601 561280131 -1728526439 201800561 -1008514458 970344815 -1267267455 1592498812 679654126 -1575709244 606815324 -541319866
REM
CELL 1.54180   50.00000   50.00000   50.00000   90.00000   90.00000   90.00000
LATT -1
SFAC C  
C      1  0.4607760000000  0.4900040000000  0.6058410000000 1.0
C      1  0.4419300000000  0.4896590000000  0.4427970000000 1.0
C      1  0.5033830000000  0.5400240000000  0.4359280000000 1.0
C      1  0.4277710000000  0.4780610000000  0.5740940000000 1.0
C      1  0.4938580000000  0.4054600000000  0.4724230000000 1.0
C      1  0.5116520000000  0.5102320000000  0.3926110000000 1.0
C      1  0.3911060000000  0.5397110000000  0.4732190000000 1.0
C      1  0.4890150000000  0.4040130000000  0.4421360000000 1.0
C      1  0.4516150000000  0.5204160000000  0.5164530000000 1.0
C      1  0.5462370000000  0.4444210000000  0.4741050000000 1.0
C      1  0.4691950000000  0.4851500000000  0.4012980000000 1.0
C      1  0.5910840000000  0.5847920000000  0.4796200000000 1.0
C      1  0.4142570000000  0.4775380000000  0.4388550000000 1.0
C      1  0.4825030000000  0.5266030000000  0.5198480000000 1.0
C      1  0.5923020000000  0.5599720000000  0.4930250000000 1.0
C      1  0.4474450000000  0.5002210000000  0.4945150000000 1.0
C      1  0.5706610000000  0.4262640000000  0.5175180000000 1.0
C      1  0.6060470000000  0.5358470000000  0.4790870000000 1.0
C      1  0.4877110000000  0.4914220000000  0.4539610000000 1.0
C      1  0.5947220000000  0.4536260000000  0.4532140000000 1.0
C      1  0.4111760000000  0.4520040000000  0.4783310000000 1.0
C      1  0.4503190000000  0.4062190000000  0.5563200000000 1.0
C      1  0.4321320000000  0.4034980000000  0.5349740000000 1.0
C      1  0.4773000000000  0.5199960000000  0.4382540000000 1.0
C      1  0.5458570000000  0.5434750000000  0.4022920000000 1.0
C      1  0.5131530000000  0.6175800000000  0.4993550000000 1.0
C      1  0.5009260000000  0.5718650000000  0.5417860000000 1.0
C      1  0.5385270000000  0.4884740000000  0.5034720000000 1.0
C      1  0.4952510000000  0.4360910000000  0.4761310000000 1.0
C      1  0.4270330000000  0.4888590000000  0.5469750000000 1.0
C      1  0.3988010000000  0.4787940000000  0.4831390000000 1.0
C      1  0.4929290000000  0.5316890000000  0.5991910000000 1.0
C      1  0.3941220000000  0.5171430000000  0.5171410000000 1.0
C      1  0.4151820000000  0.5371350000000  0.4311120000000 1.0
C      1  0.5726730000000  0.5641330000000  0.5493740000000 1.0
C      1  0.4065800000000  0.5422360000000  0.5225190000000 1.0
C      1  0.5346960000000  0.4853500000000  0.5610820000000 1.0
C      1  0.5991050000000  0.4629700000000  0.5221620000000 1.0
C      1  0.5228350000000  0.4621590000000  0.5466530000000 1.0
C      1  0.4414220000000  0.6129330000000  0.5197170000000 1.0
C      1  0.5720720000000  0.4891870000000  0.4309870000000 1.0
C      1  0.5467920000000  0.4924470000000  0.4752140000000 1.0
C      1  0.4458090000000  0.5706480000000  0.5869630000000 1.0
C      1  0.4537900000000  0.5470850000000  0.4020540000000 1.0
C      1  0.4299090000000  0.5309910000000  0.4065960000000 1.0
C      1  0.4726700000000  0.4414100000000  0.4178580000000 1.0
C      1  0.4428930000000  0.5124500000000  0.5443160000000 1.0
C      1  0.4867270000000  0.5295690000000  0.5690810000000 1.0
C      1  0.4176930000000  0.4468730000000  0.5355190000000 1.0
C      1  0.5669900000000  0.4002410000000  0.5066420000000 1.0
C      1  0.5297730000000  0.4966700000000  0.6076150000000 1.0
C      1  0.5151360000000  0.4348510000000  0.4098480000000 1.0
C      1  0.4765930000000  0.5563330000000  0.6061800000000 1.0
C      1  0.4185050000000  0.4736740000000  0.5236560000000 1.0
C      1  0.4419120000000  0.4732220000000  0.5026100000000 1.0
C      1  0.5143360000000  0.4414650000000  0.6001350000000 1.0
C      1  0.4988320000000  0.5075300000000  0.5331110000000 1.0
C      1  0.4900550000000  0.4965340000000  0.4828230000000 1.0
C      1  0.4917030000000  0.6147800000000  0.5176680000000 1.0
C      1  0.4955370000000  0.4591370000000  0.6133680000000 1.0
C      1  0.5623560000000  0.4178050000000  0.4511490000000 1.0
C      1  0.4442560000000  0.4445370000000  0.6065270000000 1.0
C      1  0.5377550000000  0.4689340000000  0.4572940000000 1.0
C      1  0.5397350000000  0.5847870000000  0.5740530000000 1.0
C      1  0.4987720000000  0.4848680000000  0.3994880000000 1.0
C      1  0.4134860000000  0.4516470000000  0.4500840000000 1.0
C      1  0.4299840000000  0.5451900000000  0.5040810000000 1.0
C      1  0.4801740000000  0.5582790000000  0.5580890000000 1.0
C      1  0.4892990000000  0.4713540000000  0.5000540000000 1.0
C      1  0.5893030000000  0.4438480000000  0.5029300000000 1.0
C      1  0.5351230000000  0.4097680000000  0.4498100000000 1.0
C      1  0.5070110000000  0.4222680000000  0.5185440000000 1.0
C      1  0.4558470000000  0.4362470000000  0.5621180000000 1.0
C      1  0.5404570000000  0.4384300000000  0.5607940000000 1.0
C      1  0.5779390000000  0.4884720000000  0.4746910000000 1.0
C      1  0.4559910000000  0.5061010000000  0.4183670000000 1.0
C      1  0.4723250000000  0.5402380000000  0.3823530000000 1.0
C      1  0.5393180000000  0.6110890000000  0.5057260000000 1.0
C      1  0.4645110000000  0.4699570000000  0.4498510000000 1.0
C      1  0.4987910000000  0.5994180000000  0.5394790000000 1.0
C      1  0.5951020000000  0.5279630000000  0.5357410000000 1.0
C      1  0.4446210000000  0.4136610000000  0.4808490000000 1.0
C      1  0.4423880000000  0.5076810000000  0.4668600000000 1.0
C      1  0.3966130000000  0.4935270000000  0.4565050000000 1.0
C      1  0.5653250000000  0.5455740000000  0.4964820000000 1.0
C      1  0.3954570000000  0.4891810000000  0.5107520000000 1.0
C      1  0.5177520000000  0.4614030000000  0.3989520000000 1.0
C      1  0.4554520000000  0.5318090000000  0.4580970000000 1.0
C      1  0.5777620000000  0.4562690000000  0.4785110000000 1.0
C      1  0.5170920000000  0.5396790000000  0.4833930000000 1.0
C      1  0.5973760000000  0.4806530000000  0.4420780000000 1.0
C      1  0.5449280000000  0.5881060000000  0.4613680000000 1.0
C      1  0.4349460000000  0.4491480000000  0.5800470000000 1.0
C      1  0.5148610000000  0.4128550000000  0.4284950000000 1.0
C      1  0.5125450000000  0.5789800000000  0.4171340000000 1.0
C      1  0.4644040000000  0.5067100000000  0.5651110000000 1.0
C      1  0.4563620000000  0.4427450000000  0.5312190000000 1.0
C      1  0.5257170000000  0.5198240000000  0.4373630000000 1.0
C      1  0.5647410000000  0.5519480000000  0.4212170000000 1.0
C      1  0.4567850000000  0.4610030000000  0.4071540000000 1.0
C      1  0.5454090000000  0.4693830000000  0.3971100000000 1.0
C      1  0.5464030000000  0.4803550000000  0.5878120000000 1.0
C      1  0.6104340000000  0.4896950000000  0.5151490000000 1.0
C      1  0.5674550000000  0.4362820000000  0.5459120000000 1.0
C      1  0.5188980000000  0.5570410000000  0.3982820000000 1.0
C      1  0.5916610000000  0.4843080000000  0.5617410000000 1.0
C      1  0.5339990000000  0.3911270000000  0.5449700000000 1.0
C      1  0.5610100000000  0.5360780000000  0.4683300000000 1.0
C      1  0.5470440000000  0.5386740000000  0.5921930000000 1.0
C      1  0.4960600000000  0.4639130000000  0.5582270000000 1.0
C      1  0.4697610000000  0.4042540000000  0.4935380000000 1.0
C      1  0.5241390000000  0.3986070000000  0.4739160000000 1.0
C      1  0.4438930000000  0.5756160000000  0.4413510000000 1.0
C      1  0.4805620000000  0.4866550000000  0.5462240000000 1.0
C      1  0.4960230000000  0.4475660000000  0.4465350000000 1.0
C      1  0.5353760000000  0.5869120000000  0.4900440000000 1.0
C      1  0.4604130000000  0.5702080000000  0.4185430000000 1.0
C      1  0.5368210000000  0.5205730000000  0.4654050000000 1.0
C      1  0.5756870000000  0.5522030000000  0.4480240000000 1.0
C      1  0.4495340000000  0.5673360000000  0.5123380000000 1.0
C      1  0.4341960000000  0.5655420000000  0.5599310000000 1.0
C      1  0.4847810000000  0.5835660000000  0.4163310000000 1.0
C      1  0.4855480000000  0.4411720000000  0.5747380000000 1.0
C      1  0.5410540000000  0.4494180000000  0.5896600000000 1.0
C      1  0.3953080000000  0.5233760000000  0.4502510000000 1.0
C      1  0.4140020000000  0.5750620000000  0.5400590000000 1.0
C      1  0.5217440000000  0.3970950000000  0.5202800000000 1.0
C      1  0.4657670000000  0.6097260000000  0.5056900000000 1.0
C      1  0.4905500000000  0.5255600000000  0.4919650000000 1.0
C      1  0.5184210000000  0.5268470000000  0.5468590000000 1.0
C      1  0.4964520000000  0.4136710000000  0.5663830000000 1.0
C      1  0.4664980000000  0.4619100000000  0.6082840000000 1.0
C      1  0.4979610000000  0.5360840000000  0.3930690000000 1.0
C      1  0.5256680000000  0.5569470000000  0.5348950000000 1.0
C      1  0.4184240000000  0.4234730000000  0.5207030000000 1.0
C      1  0.5561010000000  0.4633890000000  0.4334820000000 1.0
C      1  0.5398840000000  0.4003260000000  0.4985860000000 1.0
C      1  0.5467010000000  0.5730820000000  0.5494440000000 1.0
C      1  0.4322150000000  0.5506230000000  0.4515190000000 1.0
C      1  0.5946580000000  0.5073470000000  0.4935610000000 1.0
C      1  0.4728410000000  0.5718880000000  0.4845140000000 1.0
C      1  0.5245170000000  0.5253180000000  0.6037630000000 1.0
C      1  0.5736460000000  0.5803320000000  0.4581500000000 1.0
C      1  0.6028860000000  0.5413430000000  0.4509570000000 1.0
C      1  0.5103610000000  0.4728550000000  0.4462690000000 1.0
C      1  0.5848040000000  0.4600290000000  0.5468580000000 1.0
C      1  0.4738790000000  0.5728780000000  0.5834170000000 1.0
C      1  0.4380710000000  0.4984110000000  0.5919710000000 1.0
C      1  0.5531520000000  0.5047020000000  0.5223390000000 1.0
C      1  0.4286600000000  0.5881350000000  0.5169710000000 1.0
C      1  0.4556840000000  0.5594730000000  0.5416490000000 1.0
C      1  0.5736910000000  0.4959400000000  0.5828960000000 1.0
C      1  0.5348650000000  0.5577550000000  0.5032650000000 1.0
C      1  0.5041410000000  0.5590340000000  0.4631930000000 1.0
C      1  0.4668760000000  0.4707350000000  0.5217290000000 1.0
C      1  0.5832590000000  0.5405020000000  0.5586500000000 1.0
C      1  0.4669070000000  0.6094640000000  0.4770690000000 1.0
C      1  0.4163930000000  0.5517520000000  0.4769870000000 1.0
C      1  0.4608960000000  0.4544130000000  0.4771560000000 1.0
C      1  0.5203270000000  0.4402240000000  0.4960910000000 1.0
C      1  0.5365390000000  0.5159700000000  0.4085620000000 1.0
C      1  0.5040740000000  0.4869890000000  0.6156600000000 1.0
C      1  0.4775100000000  0.3998850000000  0.5470280000000 1.0
C      1  0.4682750000000  0.5422150000000  0.4812180000000 1.0
C      1  0.6079870000000  0.5022670000000  0.5426060000000 1.0
C      1  0.4504820000000  0.5960310000000  0.4593580000000 1.0
C      1  0.4480000000000  0.4248460000000  0.4552010000000 1.0
C      1  0.4651170000000  0.4185420000000  0.4335720000000 1.0
C      1  0.5250040000000  0.5719060000000  0.4442320000000 1.0
C      1  0.4769770000000  0.4175690000000  0.5209220000000 1.0
C      1  0.5455690000000  0.5664550000000  0.5930670000000 1.0
C      1  0.5743750000000  0.4396370000000  0.4373150000000 1.0
C      1  0.4829310000000  0.5067520000000  0.6127640000000 1.0
C      1  0.5431650000000  0.5105570000000  0.5497450000000 1.0
C      1  0.5630370000000  0.5226500000000  0.5716340000000 1.0
C      1  0.5189910000000  0.4672610000000  0.5126070000000 1.0
C      1  0.4269700000000  0.4322370000000  0.4945950000000 1.0
C      1  0.5581050000000  0.4953220000000  0.4044800000000 1.0
C      1  0.5752530000000  0.5215010000000  0.5129420000000 1.0
C      1  0.5255900000000  0.4121380000000  0.5616760000000 1.0
END
