TITL C-950521-2237-479 -4.04500085166515e-06 125000 -1253.75691963217 0 0 200 (C1) n - 1
REM
REM in /home/bkarasulu/work/CARBON/AIRSS/Generating-Clusters/EDIP-Nigel-Params/with-SteepDescent/Only-C1/SD-CG/HFTN-CG
REM
REM
REM
REM
REM
REM ./C.cell (11c1c37f851c82e70ff6c80c92926a4b)
REM
REM compiler GCC version 9.2.1 20190827 (Red Hat 9.2.1-1)
REM options -cpp -mtune=generic -march=x86-64 -g -O0 -fpre-include=/usr/include/finclude/math-vector-fortran.h
REM seed -1205350972 821796152 -206982746 100423819 1922468164 -1418281178 -1005157721 1170173558 -2080975153 960044244 596969064 -931726213 1056320290 -1113759464 189598228 1093618323 471562051 -1827360409 -1756603129 -70132681 1346568937 -1582107827 1279941794 -1553731117 1927609820 2091010786 -874810879 115145964 -267268938 -683108557 1467387282 -556141283 1451862018
REM
CELL 1.54180   50.00000   50.00000   50.00000   90.00000   90.00000   90.00000
LATT -1
SFAC C  
C      1  0.5052750000000  0.4977880000000  0.5480730000000 1.0
C      1  0.4745890000000  0.5420730000000  0.3873580000000 1.0
C      1  0.5628800000000  0.4044930000000  0.5604490000000 1.0
C      1  0.5001620000000  0.4105820000000  0.4991070000000 1.0
C      1  0.4518790000000  0.4978930000000  0.5570450000000 1.0
C      1  0.5951810000000  0.4893280000000  0.5110340000000 1.0
C      1  0.4688630000000  0.5820990000000  0.5625050000000 1.0
C      1  0.4541010000000  0.5297390000000  0.6050600000000 1.0
C      1  0.4070540000000  0.5304660000000  0.4910580000000 1.0
C      1  0.4120530000000  0.4833650000000  0.4287380000000 1.0
C      1  0.4971960000000  0.4726030000000  0.5616190000000 1.0
C      1  0.4662810000000  0.5879050000000  0.5142730000000 1.0
C      1  0.5723160000000  0.4511740000000  0.5548100000000 1.0
C      1  0.5869180000000  0.5201780000000  0.5860240000000 1.0
C      1  0.5206960000000  0.5883570000000  0.4134760000000 1.0
C      1  0.4856870000000  0.5417450000000  0.5097470000000 1.0
C      1  0.5531110000000  0.4509270000000  0.4853430000000 1.0
C      1  0.4605180000000  0.4624330000000  0.6008660000000 1.0
C      1  0.5069850000000  0.4279010000000  0.5240750000000 1.0
C      1  0.4319820000000  0.5332300000000  0.4215540000000 1.0
C      1  0.3976950000000  0.4560160000000  0.5348910000000 1.0
C      1  0.4433470000000  0.5226940000000  0.5157660000000 1.0
C      1  0.5255430000000  0.3934760000000  0.4966320000000 1.0
C      1  0.4855230000000  0.4402250000000  0.5426660000000 1.0
C      1  0.5019130000000  0.3836600000000  0.4421300000000 1.0
C      1  0.5102260000000  0.5669060000000  0.3992330000000 1.0
C      1  0.4321830000000  0.5732330000000  0.4788740000000 1.0
C      1  0.5076640000000  0.5091750000000  0.6157280000000 1.0
C      1  0.5476140000000  0.5058370000000  0.5708740000000 1.0
C      1  0.5716220000000  0.5086760000000  0.4428810000000 1.0
C      1  0.6046580000000  0.4644590000000  0.5188430000000 1.0
C      1  0.4317360000000  0.4997160000000  0.5806500000000 1.0
C      1  0.4740460000000  0.3977000000000  0.5094280000000 1.0
C      1  0.5744600000000  0.5889170000000  0.4412870000000 1.0
C      1  0.5166150000000  0.4595300000000  0.4620300000000 1.0
C      1  0.4552650000000  0.5129370000000  0.4909820000000 1.0
C      1  0.4384010000000  0.4196370000000  0.5457910000000 1.0
C      1  0.3961790000000  0.5310130000000  0.5389080000000 1.0
C      1  0.6124680000000  0.5492560000000  0.5227380000000 1.0
C      1  0.4766510000000  0.5348050000000  0.5833470000000 1.0
C      1  0.5921900000000  0.5341800000000  0.4635220000000 1.0
C      1  0.4819620000000  0.4226960000000  0.5804030000000 1.0
C      1  0.4730610000000  0.5961520000000  0.4398270000000 1.0
C      1  0.4100570000000  0.5046800000000  0.4750690000000 1.0
C      1  0.4971530000000  0.5882750000000  0.5649480000000 1.0
C      1  0.5776450000000  0.5723770000000  0.4180910000000 1.0
C      1  0.5974200000000  0.4623930000000  0.4681370000000 1.0
C      1  0.5063260000000  0.5294060000000  0.5929430000000 1.0
C      1  0.5219140000000  0.5112090000000  0.4426390000000 1.0
C      1  0.3969220000000  0.5541830000000  0.4516350000000 1.0
C      1  0.4412880000000  0.4838130000000  0.6042780000000 1.0
C      1  0.5908630000000  0.5816790000000  0.4628360000000 1.0
C      1  0.4646510000000  0.4630170000000  0.5018280000000 1.0
C      1  0.5178360000000  0.4055860000000  0.4512290000000 1.0
C      1  0.4008660000000  0.5064410000000  0.4455250000000 1.0
C      1  0.5068500000000  0.4903670000000  0.4591240000000 1.0
C      1  0.5435810000000  0.3944440000000  0.5175110000000 1.0
C      1  0.4460590000000  0.5407330000000  0.3860930000000 1.0
C      1  0.4265680000000  0.4383270000000  0.4280320000000 1.0
C      1  0.4832900000000  0.4948050000000  0.6257780000000 1.0
C      1  0.5230930000000  0.5996480000000  0.4388000000000 1.0
C      1  0.5521690000000  0.5511600000000  0.5346330000000 1.0
C      1  0.4620490000000  0.4497200000000  0.4512580000000 1.0
C      1  0.4757200000000  0.4528130000000  0.3942470000000 1.0
C      1  0.5438290000000  0.4575230000000  0.5125700000000 1.0
C      1  0.5520630000000  0.6005400000000  0.5142270000000 1.0
C      1  0.5565550000000  0.4355030000000  0.5963960000000 1.0
C      1  0.4382960000000  0.5880690000000  0.4554740000000 1.0
C      1  0.6021650000000  0.5416550000000  0.5478200000000 1.0
C      1  0.5231760000000  0.4423740000000  0.4112110000000 1.0
C      1  0.5946650000000  0.5585860000000  0.4780780000000 1.0
C      1  0.5203430000000  0.5166160000000  0.5671970000000 1.0
C      1  0.5286220000000  0.4885690000000  0.6143080000000 1.0
C      1  0.4478670000000  0.4070230000000  0.4996800000000 1.0
C      1  0.5315260000000  0.4248980000000  0.5873100000000 1.0
C      1  0.6018310000000  0.5159120000000  0.5608330000000 1.0
C      1  0.5849040000000  0.5593610000000  0.5624600000000 1.0
C      1  0.4602110000000  0.5705510000000  0.5373470000000 1.0
C      1  0.4904280000000  0.6074410000000  0.5190870000000 1.0
C      1  0.4626430000000  0.5011560000000  0.3981240000000 1.0
C      1  0.4454930000000  0.4135840000000  0.4715540000000 1.0
C      1  0.5630360000000  0.4969880000000  0.4709850000000 1.0
C      1  0.5486440000000  0.5319460000000  0.4066690000000 1.0
C      1  0.5358970000000  0.6087800000000  0.5376510000000 1.0
C      1  0.5250120000000  0.5105650000000  0.5049790000000 1.0
C      1  0.5066370000000  0.6166350000000  0.4963220000000 1.0
C      1  0.4828130000000  0.5636720000000  0.4042400000000 1.0
C      1  0.4559510000000  0.4380760000000  0.5860440000000 1.0
C      1  0.4671000000000  0.4082590000000  0.4299740000000 1.0
C      1  0.4482390000000  0.4674620000000  0.4732220000000 1.0
C      1  0.5480260000000  0.4589930000000  0.4099820000000 1.0
C      1  0.4369470000000  0.4096680000000  0.4283540000000 1.0
C      1  0.5908550000000  0.4414010000000  0.5115100000000 1.0
C      1  0.5634240000000  0.5488360000000  0.4258840000000 1.0
C      1  0.4058380000000  0.5016990000000  0.5413250000000 1.0
C      1  0.5348050000000  0.6208570000000  0.5010950000000 1.0
C      1  0.5192340000000  0.4675380000000  0.5834280000000 1.0
C      1  0.5017480000000  0.5760990000000  0.4782890000000 1.0
C      1  0.4320170000000  0.4648880000000  0.4137390000000 1.0
C      1  0.4043930000000  0.4531340000000  0.4890560000000 1.0
C      1  0.5396980000000  0.4862920000000  0.4039940000000 1.0
C      1  0.5351130000000  0.5444840000000  0.4688330000000 1.0
C      1  0.5014070000000  0.4987020000000  0.4882730000000 1.0
C      1  0.5619980000000  0.4096920000000  0.5316580000000 1.0
C      1  0.5392090000000  0.5694600000000  0.4855710000000 1.0
C      1  0.4556800000000  0.5044960000000  0.6199500000000 1.0
C      1  0.4814380000000  0.5688730000000  0.4982880000000 1.0
C      1  0.4551460000000  0.4722870000000  0.3973270000000 1.0
C      1  0.4155610000000  0.5533070000000  0.5434330000000 1.0
C      1  0.5053670000000  0.4288330000000  0.5984370000000 1.0
C      1  0.4645230000000  0.5485600000000  0.4480040000000 1.0
C      1  0.5460450000000  0.4707490000000  0.4661700000000 1.0
C      1  0.3975090000000  0.4812730000000  0.4931950000000 1.0
C      1  0.4929230000000  0.4724190000000  0.5023600000000 1.0
C      1  0.5912670000000  0.4635250000000  0.4388740000000 1.0
C      1  0.5604520000000  0.4229200000000  0.4382740000000 1.0
C      1  0.6087090000000  0.5112240000000  0.4678670000000 1.0
C      1  0.4366170000000  0.5162690000000  0.3962930000000 1.0
C      1  0.4549620000000  0.5663500000000  0.5809800000000 1.0
C      1  0.5069480000000  0.4514480000000  0.4348850000000 1.0
C      1  0.5420890000000  0.5567870000000  0.4431010000000 1.0
C      1  0.5019650000000  0.5263760000000  0.4264080000000 1.0
C      1  0.5349780000000  0.4029110000000  0.5698660000000 1.0
C      1  0.5771460000000  0.5842270000000  0.5204450000000 1.0
C      1  0.4700040000000  0.4225800000000  0.4569340000000 1.0
C      1  0.4039770000000  0.5332670000000  0.4335880000000 1.0
C      1  0.6182730000000  0.5019300000000  0.4428470000000 1.0
C      1  0.4878250000000  0.4002440000000  0.5601430000000 1.0
C      1  0.5317330000000  0.5613380000000  0.5124040000000 1.0
C      1  0.4321460000000  0.5514100000000  0.5693920000000 1.0
C      1  0.5640610000000  0.4129310000000  0.4657710000000 1.0
C      1  0.5089050000000  0.4553390000000  0.6122870000000 1.0
C      1  0.4581170000000  0.4494320000000  0.5300190000000 1.0
C      1  0.5495710000000  0.5201790000000  0.4889070000000 1.0
C      1  0.5242300000000  0.5386870000000  0.5490920000000 1.0
C      1  0.5529260000000  0.4942760000000  0.5972960000000 1.0
C      1  0.4820850000000  0.4880250000000  0.4430930000000 1.0
C      1  0.4408530000000  0.5004730000000  0.4686240000000 1.0
C      1  0.3910190000000  0.4825830000000  0.5228100000000 1.0
C      1  0.4798470000000  0.4619340000000  0.4313820000000 1.0
C      1  0.5147200000000  0.4004050000000  0.5501930000000 1.0
C      1  0.4747140000000  0.5094850000000  0.4259490000000 1.0
C      1  0.4822450000000  0.5225240000000  0.4868120000000 1.0
C      1  0.4129750000000  0.5756130000000  0.5211320000000 1.0
C      1  0.4063270000000  0.5579930000000  0.4790840000000 1.0
C      1  0.4069490000000  0.4881440000000  0.5689320000000 1.0
C      1  0.4788370000000  0.3828930000000  0.4284410000000 1.0
C      1  0.4737510000000  0.5196270000000  0.5557750000000 1.0
C      1  0.4978970000000  0.5989440000000  0.4564050000000 1.0
C      1  0.5046140000000  0.5478510000000  0.4671070000000 1.0
C      1  0.5738350000000  0.5464940000000  0.5858370000000 1.0
C      1  0.5462670000000  0.5851780000000  0.4511210000000 1.0
C      1  0.4345220000000  0.4397110000000  0.5655720000000 1.0
C      1  0.5082610000000  0.6010100000000  0.5412910000000 1.0
C      1  0.5722160000000  0.5806480000000  0.5486950000000 1.0
C      1  0.4650500000000  0.4699530000000  0.5578720000000 1.0
C      1  0.4277440000000  0.4000220000000  0.4537730000000 1.0
C      1  0.4521790000000  0.5226450000000  0.4417000000000 1.0
C      1  0.5335570000000  0.4169350000000  0.4274970000000 1.0
C      1  0.4019610000000  0.4619810000000  0.4457550000000 1.0
C      1  0.4824050000000  0.4658780000000  0.6195250000000 1.0
C      1  0.4345150000000  0.5010970000000  0.5330360000000 1.0
C      1  0.5888710000000  0.5571700000000  0.5078420000000 1.0
C      1  0.5125300000000  0.4869950000000  0.3915980000000 1.0
C      1  0.5139010000000  0.5363430000000  0.5186700000000 1.0
C      1  0.5301960000000  0.4907620000000  0.5279980000000 1.0
C      1  0.4927190000000  0.5511460000000  0.4393820000000 1.0
C      1  0.4289920000000  0.4187720000000  0.5192980000000 1.0
C      1  0.5182660000000  0.5372990000000  0.4010890000000 1.0
C      1  0.4728560000000  0.3938220000000  0.5373230000000 1.0
C      1  0.4361380000000  0.5873230000000  0.5042400000000 1.0
C      1  0.5804250000000  0.5070930000000  0.5309090000000 1.0
C      1  0.5752850000000  0.4285430000000  0.5747850000000 1.0
C      1  0.4108150000000  0.4587260000000  0.5614600000000 1.0
C      1  0.4647800000000  0.5379500000000  0.5316690000000 1.0
C      1  0.5562420000000  0.4911460000000  0.5456000000000 1.0
C      1  0.3916990000000  0.5726180000000  0.5007750000000 1.0
C      1  0.5038270000000  0.4584530000000  0.3910030000000 1.0
C      1  0.4957240000000  0.6236770000000  0.4714940000000 1.0
C      1  0.5496540000000  0.5537120000000  0.5983290000000 1.0
C      1  0.4110620000000  0.4409730000000  0.5139990000000 1.0
C      1  0.5815980000000  0.4409570000000  0.4828750000000 1.0
C      1  0.5918790000000  0.4899670000000  0.4808800000000 1.0
C      1  0.4210200000000  0.4494130000000  0.4653450000000 1.0
C      1  0.4962830000000  0.5139210000000  0.3843080000000 1.0
C      1  0.5684900000000  0.5322300000000  0.5146260000000 1.0
C      1  0.5794060000000  0.5004040000000  0.6054310000000 1.0
C      1  0.3880270000000  0.5302510000000  0.5119890000000 1.0
C      1  0.5475960000000  0.4618830000000  0.5694860000000 1.0
C      1  0.5108810000000  0.5784280000000  0.5872220000000 1.0
C      1  0.5942660000000  0.4919670000000  0.4309410000000 1.0
C      1  0.5655940000000  0.4509630000000  0.4318750000000 1.0
C      1  0.4546810000000  0.5738270000000  0.4372490000000 1.0
C      1  0.5142880000000  0.4532940000000  0.5120490000000 1.0
C      1  0.5459570000000  0.5077270000000  0.4242410000000 1.0
C      1  0.5216680000000  0.5552640000000  0.5984720000000 1.0
C      1  0.5664230000000  0.4393180000000  0.5280670000000 1.0
C      1  0.4997540000000  0.4251930000000  0.4692490000000 1.0
C      1  0.4292610000000  0.5291920000000  0.5884210000000 1.0
C      1  0.5387890000000  0.3970470000000  0.4705240000000 1.0
END
