TITL C-950531-5884-136 -1.2324479408376e-06 125000 -332.691757876736 0 0 55 (C1) n - 1
REM
REM in /home/bkarasulu/work/CARBON/AIRSS/Generating-Clusters/EDIP-Nigel-Params/with-SteepDescent/Only-C1/SD-CG/HFTN-CG
REM
REM
REM
REM
REM
REM ./C.cell (11c1c37f851c82e70ff6c80c92926a4b)
REM
REM compiler GCC version 9.2.1 20190827 (Red Hat 9.2.1-1)
REM options -cpp -mtune=generic -march=x86-64 -g -O0 -fpre-include=/usr/include/finclude/math-vector-fortran.h
REM seed 937668748 953490819 531308516 477893348 1369517783 270884005 -1265635383 -1190556048 1204759996 16342869 -820942927 -1359199629 -328655835 -714899730 -1070787427 1284466471 52069034 868821479 1746009072 -458459936 -355445263 951057369 -1993592284 1064676882 366614734 1476494344 -2051724693 175770305 2044295303 1651870245 -74325536 -1123185426 -2026531373
REM
CELL 1.54180   50.00000   50.00000   50.00000   90.00000   90.00000   90.00000
LATT -1
SFAC C  
C      1  0.5080470000000  0.5171250000000  0.4867110000000 1.0
C      1  0.5558950000000  0.4787270000000  0.5032180000000 1.0
C      1  0.4420190000000  0.5423870000000  0.4835070000000 1.0
C      1  0.5170780000000  0.5080460000000  0.5887380000000 1.0
C      1  0.5320530000000  0.4852730000000  0.5454320000000 1.0
C      1  0.4965980000000  0.5665920000000  0.4961430000000 1.0
C      1  0.4721000000000  0.4872160000000  0.4421670000000 1.0
C      1  0.4655840000000  0.5117180000000  0.4600740000000 1.0
C      1  0.4921190000000  0.4641550000000  0.5197250000000 1.0
C      1  0.5567400000000  0.5340900000000  0.4568110000000 1.0
C      1  0.4768660000000  0.5769760000000  0.4788860000000 1.0
C      1  0.4581770000000  0.5377090000000  0.5085060000000 1.0
C      1  0.4745180000000  0.5387270000000  0.4490340000000 1.0
C      1  0.5005390000000  0.4321420000000  0.4779080000000 1.0
C      1  0.5030640000000  0.5427950000000  0.4509550000000 1.0
C      1  0.5482710000000  0.5458650000000  0.5369090000000 1.0
C      1  0.5211530000000  0.4491090000000  0.4903540000000 1.0
C      1  0.4987050000000  0.4806200000000  0.4559170000000 1.0
C      1  0.4527770000000  0.4669730000000  0.4442930000000 1.0
C      1  0.4693280000000  0.4702300000000  0.5631340000000 1.0
C      1  0.4795920000000  0.5052160000000  0.4886520000000 1.0
C      1  0.5539090000000  0.4812620000000  0.4736090000000 1.0
C      1  0.4550150000000  0.5138460000000  0.5241300000000 1.0
C      1  0.5251850000000  0.5290560000000  0.5418760000000 1.0
C      1  0.4529740000000  0.4612150000000  0.5175710000000 1.0
C      1  0.5253520000000  0.5049160000000  0.5211960000000 1.0
C      1  0.4593330000000  0.5593750000000  0.4650290000000 1.0
C      1  0.5434510000000  0.5490740000000  0.4790910000000 1.0
C      1  0.5452940000000  0.5055060000000  0.4567300000000 1.0
C      1  0.5304800000000  0.4573620000000  0.5392490000000 1.0
C      1  0.4448900000000  0.4898150000000  0.5112430000000 1.0
C      1  0.5161590000000  0.4581180000000  0.4456860000000 1.0
C      1  0.5149470000000  0.5072540000000  0.4582970000000 1.0
C      1  0.4740330000000  0.4970410000000  0.5673400000000 1.0
C      1  0.5019540000000  0.4337670000000  0.4495510000000 1.0
C      1  0.5389850000000  0.4566130000000  0.5124460000000 1.0
C      1  0.4475310000000  0.4670350000000  0.4728970000000 1.0
C      1  0.5315870000000  0.5088450000000  0.5649550000000 1.0
C      1  0.5767440000000  0.5204080000000  0.5077550000000 1.0
C      1  0.4363890000000  0.5157050000000  0.4683620000000 1.0
C      1  0.4956140000000  0.4946990000000  0.5220220000000 1.0
C      1  0.4952330000000  0.5378410000000  0.5414320000000 1.0
C      1  0.4906600000000  0.5036930000000  0.5883720000000 1.0
C      1  0.4837380000000  0.4722760000000  0.4865430000000 1.0
C      1  0.4716850000000  0.4544910000000  0.5405190000000 1.0
C      1  0.5712590000000  0.5305360000000  0.5333350000000 1.0
C      1  0.5131150000000  0.5467430000000  0.4791900000000 1.0
C      1  0.5513790000000  0.5212700000000  0.4924340000000 1.0
C      1  0.4819320000000  0.5529640000000  0.5184480000000 1.0
C      1  0.4320420000000  0.4908590000000  0.4846700000000 1.0
C      1  0.4789140000000  0.5113710000000  0.5414710000000 1.0
C      1  0.4753090000000  0.4294960000000  0.4889020000000 1.0
C      1  0.5366670000000  0.4576330000000  0.4672890000000 1.0
C      1  0.5751770000000  0.4943640000000  0.5185650000000 1.0
C      1  0.4518390000000  0.4438610000000  0.4927190000000 1.0
END
