TITL C-950526-5686-260 -4.56048707909901e-06 125000 -1023.6409668316 0 0 164 (C1) n - 1
REM
REM in /home/bkarasulu/work/CARBON/AIRSS/Generating-Clusters/EDIP-Nigel-Params/with-SteepDescent/Only-C1/SD-CG/HFTN-CG
REM
REM
REM
REM
REM
REM ./C.cell (11c1c37f851c82e70ff6c80c92926a4b)
REM
REM compiler GCC version 9.2.1 20190827 (Red Hat 9.2.1-1)
REM options -cpp -mtune=generic -march=x86-64 -g -O0 -fpre-include=/usr/include/finclude/math-vector-fortran.h
REM seed 375194877 -887005324 -591418476 1966372367 -1736728733 -1077613767 -418598575 1653987438 1303098102 897320896 202069123 -1991966175 -1793248380 -2057876752 -1823418850 552793936 1509088089 -1121921152 -1964812475 -183077169 -1082885360 -789315601 -102805494 -773699430 1350638489 1749261478 -955741510 -144246165 1313176273 1457647430 -99209614 1267167333 994098016
REM
CELL 1.54180   50.00000   50.00000   50.00000   90.00000   90.00000   90.00000
LATT -1
SFAC C  
C      1  0.4997230000000  0.4882080000000  0.4949220000000 1.0
C      1  0.4923040000000  0.5267070000000  0.5878850000000 1.0
C      1  0.4957340000000  0.5348730000000  0.4254410000000 1.0
C      1  0.5342110000000  0.4063200000000  0.4511040000000 1.0
C      1  0.4637830000000  0.4668180000000  0.5181580000000 1.0
C      1  0.4994430000000  0.4937730000000  0.4050000000000 1.0
C      1  0.4972410000000  0.5452680000000  0.5647120000000 1.0
C      1  0.5517970000000  0.4957500000000  0.5123040000000 1.0
C      1  0.5565340000000  0.4579390000000  0.4846820000000 1.0
C      1  0.4464780000000  0.5655390000000  0.5279610000000 1.0
C      1  0.4962850000000  0.5897270000000  0.4464220000000 1.0
C      1  0.4926500000000  0.3948210000000  0.4771200000000 1.0
C      1  0.5477810000000  0.4763020000000  0.5976410000000 1.0
C      1  0.5347440000000  0.4539570000000  0.5798770000000 1.0
C      1  0.4645420000000  0.4544980000000  0.4613480000000 1.0
C      1  0.5913760000000  0.5616330000000  0.4809460000000 1.0
C      1  0.5087800000000  0.5831590000000  0.5267950000000 1.0
C      1  0.4197110000000  0.5402450000000  0.4396180000000 1.0
C      1  0.5082760000000  0.4250500000000  0.5464710000000 1.0
C      1  0.4227660000000  0.5259070000000  0.5859440000000 1.0
C      1  0.4883190000000  0.5060400000000  0.5372160000000 1.0
C      1  0.4469930000000  0.4280840000000  0.5676650000000 1.0
C      1  0.4368180000000  0.4748680000000  0.5664450000000 1.0
C      1  0.4750120000000  0.5523890000000  0.4142110000000 1.0
C      1  0.4938480000000  0.4054180000000  0.5272810000000 1.0
C      1  0.4758120000000  0.5954320000000  0.4919450000000 1.0
C      1  0.5202740000000  0.5757060000000  0.4340720000000 1.0
C      1  0.5181140000000  0.5177960000000  0.5999510000000 1.0
C      1  0.3875710000000  0.4535590000000  0.5262000000000 1.0
C      1  0.5200920000000  0.4565030000000  0.4594370000000 1.0
C      1  0.5437780000000  0.4716060000000  0.4167230000000 1.0
C      1  0.4267720000000  0.4480860000000  0.5617810000000 1.0
C      1  0.5275790000000  0.5961770000000  0.5467160000000 1.0
C      1  0.5390370000000  0.5291980000000  0.4015600000000 1.0
C      1  0.5529130000000  0.4414400000000  0.5596250000000 1.0
C      1  0.5924870000000  0.4717800000000  0.5388330000000 1.0
C      1  0.5131160000000  0.5484640000000  0.4461800000000 1.0
C      1  0.4668630000000  0.5809480000000  0.5413160000000 1.0
C      1  0.4547550000000  0.5759180000000  0.4812970000000 1.0
C      1  0.5046710000000  0.4562170000000  0.5392960000000 1.0
C      1  0.5383940000000  0.4797900000000  0.4478540000000 1.0
C      1  0.5315170000000  0.5711090000000  0.4818020000000 1.0
C      1  0.5613040000000  0.4907930000000  0.5739630000000 1.0
C      1  0.4334370000000  0.4738580000000  0.4516020000000 1.0
C      1  0.6122100000000  0.5505430000000  0.4967310000000 1.0
C      1  0.5620710000000  0.4806370000000  0.4668450000000 1.0
C      1  0.5639120000000  0.4875950000000  0.4038730000000 1.0
C      1  0.4309160000000  0.4363050000000  0.4997610000000 1.0
C      1  0.4764620000000  0.4943720000000  0.5129990000000 1.0
C      1  0.4744960000000  0.4644190000000  0.5946320000000 1.0
C      1  0.4077730000000  0.5116310000000  0.5096300000000 1.0
C      1  0.4586860000000  0.5590060000000  0.5859160000000 1.0
C      1  0.4312860000000  0.5462680000000  0.5422010000000 1.0
C      1  0.5668800000000  0.4537430000000  0.5343910000000 1.0
C      1  0.5034760000000  0.5897030000000  0.5763640000000 1.0
C      1  0.4449720000000  0.5149490000000  0.6028820000000 1.0
C      1  0.5302820000000  0.5786690000000  0.5716100000000 1.0
C      1  0.4526950000000  0.4771330000000  0.4102950000000 1.0
C      1  0.4668510000000  0.4266710000000  0.4484460000000 1.0
C      1  0.4224370000000  0.4471680000000  0.4498710000000 1.0
C      1  0.4773640000000  0.4453060000000  0.5019360000000 1.0
C      1  0.4897640000000  0.5348650000000  0.5379380000000 1.0
C      1  0.4310560000000  0.5177160000000  0.5287490000000 1.0
C      1  0.4883480000000  0.4891910000000  0.4336750000000 1.0
C      1  0.4972720000000  0.4254670000000  0.5741120000000 1.0
C      1  0.5169030000000  0.4344110000000  0.5921790000000 1.0
C      1  0.3842180000000  0.5006040000000  0.5256230000000 1.0
C      1  0.4370220000000  0.5189650000000  0.4265380000000 1.0
C      1  0.5498630000000  0.4093430000000  0.4757090000000 1.0
C      1  0.5391190000000  0.5126230000000  0.5322660000000 1.0
C      1  0.5604360000000  0.5609900000000  0.5248150000000 1.0
C      1  0.5516200000000  0.5873040000000  0.4684380000000 1.0
C      1  0.4953760000000  0.4837860000000  0.5830490000000 1.0
C      1  0.5176180000000  0.4726200000000  0.5632590000000 1.0
C      1  0.4054000000000  0.5323660000000  0.4626470000000 1.0
C      1  0.4321300000000  0.4891720000000  0.4269820000000 1.0
C      1  0.4177960000000  0.4357050000000  0.4750300000000 1.0
C      1  0.5472380000000  0.6065510000000  0.5016160000000 1.0
C      1  0.5637870000000  0.5335420000000  0.4138830000000 1.0
C      1  0.5863900000000  0.5252230000000  0.5512560000000 1.0
C      1  0.4973150000000  0.5406620000000  0.4729210000000 1.0
C      1  0.5598790000000  0.5044710000000  0.4866090000000 1.0
C      1  0.5153670000000  0.4660220000000  0.5116210000000 1.0
C      1  0.6125860000000  0.4602950000000  0.5226080000000 1.0
C      1  0.5256380000000  0.5058060000000  0.4509790000000 1.0
C      1  0.4727300000000  0.4428750000000  0.5728340000000 1.0
C      1  0.5512330000000  0.4135090000000  0.5230710000000 1.0
C      1  0.5358580000000  0.4984140000000  0.5585460000000 1.0
C      1  0.4680210000000  0.5489930000000  0.4734000000000 1.0
C      1  0.4318020000000  0.5667740000000  0.4379110000000 1.0
C      1  0.3967160000000  0.5155940000000  0.5754150000000 1.0
C      1  0.4543860000000  0.5253080000000  0.4608330000000 1.0
C      1  0.5522180000000  0.5916920000000  0.5275290000000 1.0
C      1  0.5222960000000  0.6128660000000  0.4880080000000 1.0
C      1  0.5179030000000  0.4700870000000  0.4005830000000 1.0
C      1  0.4543800000000  0.5129700000000  0.5071460000000 1.0
C      1  0.5557740000000  0.4450790000000  0.4229240000000 1.0
C      1  0.4811180000000  0.4344230000000  0.4125020000000 1.0
C      1  0.4658570000000  0.4073940000000  0.4732330000000 1.0
C      1  0.4496860000000  0.4084310000000  0.5482650000000 1.0
C      1  0.5712690000000  0.5182660000000  0.5763310000000 1.0
C      1  0.5399100000000  0.5286570000000  0.5821910000000 1.0
C      1  0.4112930000000  0.5590760000000  0.4981370000000 1.0
C      1  0.6006450000000  0.5215780000000  0.4604100000000 1.0
C      1  0.5828200000000  0.5513910000000  0.5407590000000 1.0
C      1  0.6133380000000  0.5025820000000  0.5094660000000 1.0
C      1  0.5507780000000  0.5312140000000  0.4807480000000 1.0
C      1  0.4582650000000  0.4223800000000  0.4998930000000 1.0
C      1  0.4749990000000  0.4626710000000  0.5469800000000 1.0
C      1  0.5095850000000  0.3933260000000  0.4547620000000 1.0
C      1  0.4954120000000  0.4383850000000  0.4782270000000 1.0
C      1  0.5938510000000  0.4720540000000  0.4486120000000 1.0
C      1  0.4676270000000  0.5347830000000  0.6020290000000 1.0
C      1  0.4230260000000  0.4980590000000  0.5529890000000 1.0
C      1  0.5907910000000  0.5485780000000  0.4540030000000 1.0
C      1  0.4195910000000  0.4865470000000  0.4935770000000 1.0
C      1  0.3930310000000  0.4761560000000  0.4846680000000 1.0
C      1  0.4827680000000  0.5963290000000  0.5218110000000 1.0
C      1  0.5647260000000  0.5553590000000  0.4938800000000 1.0
C      1  0.6127180000000  0.5235330000000  0.4881800000000 1.0
C      1  0.4402700000000  0.4306750000000  0.4326360000000 1.0
C      1  0.3798790000000  0.4753770000000  0.5102690000000 1.0
C      1  0.5377800000000  0.4195920000000  0.5477300000000 1.0
C      1  0.5800030000000  0.4507280000000  0.4363720000000 1.0
C      1  0.5751330000000  0.4289560000000  0.5197600000000 1.0
C      1  0.4015870000000  0.5346270000000  0.4902330000000 1.0
C      1  0.5068880000000  0.4029150000000  0.5013450000000 1.0
C      1  0.5767390000000  0.5077910000000  0.4178700000000 1.0
C      1  0.5122850000000  0.5213700000000  0.4043650000000 1.0
C      1  0.4808590000000  0.5712430000000  0.5676320000000 1.0
C      1  0.4498580000000  0.4802160000000  0.5920770000000 1.0
C      1  0.4782150000000  0.5151530000000  0.4415040000000 1.0
C      1  0.4686970000000  0.4987400000000  0.3952680000000 1.0
C      1  0.5919120000000  0.5004080000000  0.4417890000000 1.0
C      1  0.5035850000000  0.4463570000000  0.4022300000000 1.0
C      1  0.5137060000000  0.5518470000000  0.4931510000000 1.0
C      1  0.4991610000000  0.6004580000000  0.4748620000000 1.0
C      1  0.4334110000000  0.4641390000000  0.5112670000000 1.0
C      1  0.5362900000000  0.5435380000000  0.5345130000000 1.0
C      1  0.5239260000000  0.4907690000000  0.6076770000000 1.0
C      1  0.4909500000000  0.4698590000000  0.4559300000000 1.0
C      1  0.3921770000000  0.4954150000000  0.5539880000000 1.0
C      1  0.5951290000000  0.5018560000000  0.5334960000000 1.0
C      1  0.5100370000000  0.5527020000000  0.5217520000000 1.0
C      1  0.4337220000000  0.5490090000000  0.5718290000000 1.0
C      1  0.5342450000000  0.4302350000000  0.4354200000000 1.0
C      1  0.5414390000000  0.5325030000000  0.4522850000000 1.0
C      1  0.4567060000000  0.5270570000000  0.4049420000000 1.0
C      1  0.4402270000000  0.5856690000000  0.4573890000000 1.0
C      1  0.4549100000000  0.4465240000000  0.4106940000000 1.0
C      1  0.5665390000000  0.4322010000000  0.4782940000000 1.0
C      1  0.5503840000000  0.5793420000000  0.4402530000000 1.0
C      1  0.4644140000000  0.4056660000000  0.5246540000000 1.0
C      1  0.4351180000000  0.5721450000000  0.5029010000000 1.0
C      1  0.5029300000000  0.5088960000000  0.4707850000000 1.0
C      1  0.5358780000000  0.4039620000000  0.5005370000000 1.0
C      1  0.4452590000000  0.5048050000000  0.4808010000000 1.0
C      1  0.4700680000000  0.5737770000000  0.4368780000000 1.0
C      1  0.4773150000000  0.4908110000000  0.5589250000000 1.0
C      1  0.5639980000000  0.5505810000000  0.4385570000000 1.0
C      1  0.5465680000000  0.4669340000000  0.5116770000000 1.0
C      1  0.6209510000000  0.4763980000000  0.5021280000000 1.0
C      1  0.5279210000000  0.5499840000000  0.5639710000000 1.0
C      1  0.4079650000000  0.4439490000000  0.5413090000000 1.0
END
