TITL C-951334-9093-297 -2.66478095471598e-06 125000 -906.680688554839 0 0 146 (C1) n - 1
REM
REM in /home/bkarasulu/work/CARBON/AIRSS/Generating-Clusters/EDIP-Nigel-Params/with-SteepDescent/Only-C1/SD-CG/HFTN-CG
REM
REM
REM
REM
REM
REM ./C.cell (11c1c37f851c82e70ff6c80c92926a4b)
REM
REM compiler GCC version 9.2.1 20190827 (Red Hat 9.2.1-1)
REM options -cpp -mtune=generic -march=x86-64 -g -O0 -fpre-include=/usr/include/finclude/math-vector-fortran.h
REM seed -11057293 -212689416 1430794334 1371867199 1873515961 -2141474723 -1833206562 1135351296 349509374 -2037057155 -1399690313 -594514133 -1205960078 1939905198 -744901614 1065716672 -1076238390 2059979034 -936569731 1860950172 1486725142 1369719060 1569308641 -772136807 -1690279419 1129346951 2112723731 -251024067 1268568496 -2092671026 -1674549331 -1471356812 859548801
REM
CELL 1.54180   50.00000   50.00000   50.00000   90.00000   90.00000   90.00000
LATT -1
SFAC C  
C      1  0.4763960000000  0.4541640000000  0.5090610000000 1.0
C      1  0.4961890000000  0.4442350000000  0.4105080000000 1.0
C      1  0.4979010000000  0.5744170000000  0.4422250000000 1.0
C      1  0.5202960000000  0.5044150000000  0.5461460000000 1.0
C      1  0.4379110000000  0.5956510000000  0.5017610000000 1.0
C      1  0.4248460000000  0.5464410000000  0.5392840000000 1.0
C      1  0.4735310000000  0.4919610000000  0.3993240000000 1.0
C      1  0.4895070000000  0.4231120000000  0.4321330000000 1.0
C      1  0.5061070000000  0.4219970000000  0.5582370000000 1.0
C      1  0.5009590000000  0.5035240000000  0.6059220000000 1.0
C      1  0.5037640000000  0.4796440000000  0.5538000000000 1.0
C      1  0.5354740000000  0.4784610000000  0.4084760000000 1.0
C      1  0.4618320000000  0.4310550000000  0.4408320000000 1.0
C      1  0.4951430000000  0.5492880000000  0.4264050000000 1.0
C      1  0.5390380000000  0.4758840000000  0.5966060000000 1.0
C      1  0.4113150000000  0.4666190000000  0.5360940000000 1.0
C      1  0.5247190000000  0.4510640000000  0.4111420000000 1.0
C      1  0.5129420000000  0.4230310000000  0.4530020000000 1.0
C      1  0.5570670000000  0.5424760000000  0.5007540000000 1.0
C      1  0.4144680000000  0.5168390000000  0.4368450000000 1.0
C      1  0.4570510000000  0.4365210000000  0.5484600000000 1.0
C      1  0.4561650000000  0.5692880000000  0.5743750000000 1.0
C      1  0.5530290000000  0.4094770000000  0.5448570000000 1.0
C      1  0.5086110000000  0.5300410000000  0.5548970000000 1.0
C      1  0.4522840000000  0.5597500000000  0.5068850000000 1.0
C      1  0.5289910000000  0.5359810000000  0.5109670000000 1.0
C      1  0.5680810000000  0.5090410000000  0.4310530000000 1.0
C      1  0.4186150000000  0.5469470000000  0.5691000000000 1.0
C      1  0.4844290000000  0.6006520000000  0.4829360000000 1.0
C      1  0.4517770000000  0.4408290000000  0.5198960000000 1.0
C      1  0.4733800000000  0.4851130000000  0.5464370000000 1.0
C      1  0.5318830000000  0.5279310000000  0.4005520000000 1.0
C      1  0.4661080000000  0.6020810000000  0.5057020000000 1.0
C      1  0.5369220000000  0.5924100000000  0.4901050000000 1.0
C      1  0.5757350000000  0.4264870000000  0.5050920000000 1.0
C      1  0.4306050000000  0.4708910000000  0.4313650000000 1.0
C      1  0.4826490000000  0.5074550000000  0.4432540000000 1.0
C      1  0.4721190000000  0.4833940000000  0.5155370000000 1.0
C      1  0.4420810000000  0.4878040000000  0.5041130000000 1.0
C      1  0.4657360000000  0.5425090000000  0.4197070000000 1.0
C      1  0.4551560000000  0.5205600000000  0.5911960000000 1.0
C      1  0.5237070000000  0.5259350000000  0.4653210000000 1.0
C      1  0.4783090000000  0.6066880000000  0.5307170000000 1.0
C      1  0.5190030000000  0.5805750000000  0.5444490000000 1.0
C      1  0.5057320000000  0.4465370000000  0.4724010000000 1.0
C      1  0.4280860000000  0.5211150000000  0.5807700000000 1.0
C      1  0.5235850000000  0.5499330000000  0.5387060000000 1.0
C      1  0.5502770000000  0.5843740000000  0.5133190000000 1.0
C      1  0.4703590000000  0.4148120000000  0.4891250000000 1.0
C      1  0.5272180000000  0.4962830000000  0.4769280000000 1.0
C      1  0.4381340000000  0.5193450000000  0.5331960000000 1.0
C      1  0.5039070000000  0.5260840000000  0.4430700000000 1.0
C      1  0.4763230000000  0.4456060000000  0.4803440000000 1.0
C      1  0.4160180000000  0.4843820000000  0.4736980000000 1.0
C      1  0.5709340000000  0.5415420000000  0.5656490000000 1.0
C      1  0.5224070000000  0.4402130000000  0.4951810000000 1.0
C      1  0.4067870000000  0.5525830000000  0.4930440000000 1.0
C      1  0.4207730000000  0.5007480000000  0.5627100000000 1.0
C      1  0.4735080000000  0.5641070000000  0.5531690000000 1.0
C      1  0.5647420000000  0.4792040000000  0.5177640000000 1.0
C      1  0.5893690000000  0.5129470000000  0.5472480000000 1.0
C      1  0.5452850000000  0.4562480000000  0.5223480000000 1.0
C      1  0.5329120000000  0.4424530000000  0.4378370000000 1.0
C      1  0.4533230000000  0.4534370000000  0.4237910000000 1.0
C      1  0.5903370000000  0.4617450000000  0.5107650000000 1.0
C      1  0.5978730000000  0.5147330000000  0.5188000000000 1.0
C      1  0.4468910000000  0.4908940000000  0.4726390000000 1.0
C      1  0.4937680000000  0.4553790000000  0.5966450000000 1.0
C      1  0.4932010000000  0.5024850000000  0.5048300000000 1.0
C      1  0.5115570000000  0.6045830000000  0.4894440000000 1.0
C      1  0.3943730000000  0.5153590000000  0.5223410000000 1.0
C      1  0.5747730000000  0.5168790000000  0.4982020000000 1.0
C      1  0.5981930000000  0.4708620000000  0.4819750000000 1.0
C      1  0.4820280000000  0.5351340000000  0.5450220000000 1.0
C      1  0.5293340000000  0.4118180000000  0.4870590000000 1.0
C      1  0.5535900000000  0.5495150000000  0.4704660000000 1.0
C      1  0.4785340000000  0.4677310000000  0.4174030000000 1.0
C      1  0.5126990000000  0.5485590000000  0.4031200000000 1.0
C      1  0.5452150000000  0.5037080000000  0.5883290000000 1.0
C      1  0.5679860000000  0.4165110000000  0.4591880000000 1.0
C      1  0.5778830000000  0.5489010000000  0.5391310000000 1.0
C      1  0.4018490000000  0.5093620000000  0.4618090000000 1.0
C      1  0.4444540000000  0.5547510000000  0.4365610000000 1.0
C      1  0.5581210000000  0.4827440000000  0.4268390000000 1.0
C      1  0.4962800000000  0.4986230000000  0.3849670000000 1.0
C      1  0.5131240000000  0.5439730000000  0.4873670000000 1.0
C      1  0.5438480000000  0.5460210000000  0.5758740000000 1.0
C      1  0.6011580000000  0.5482980000000  0.4827650000000 1.0
C      1  0.5119170000000  0.4758920000000  0.6088010000000 1.0
C      1  0.4792750000000  0.5765520000000  0.4660380000000 1.0
C      1  0.5337110000000  0.5726540000000  0.5692290000000 1.0
C      1  0.5231190000000  0.5218000000000  0.5956560000000 1.0
C      1  0.5217000000000  0.5057640000000  0.5144710000000 1.0
C      1  0.5694320000000  0.4898880000000  0.5472580000000 1.0
C      1  0.4326850000000  0.5705760000000  0.4859850000000 1.0
C      1  0.5851950000000  0.4458580000000  0.5458150000000 1.0
C      1  0.5156270000000  0.4002270000000  0.5129140000000 1.0
C      1  0.5244230000000  0.5815980000000  0.4465460000000 1.0
C      1  0.4497910000000  0.4005110000000  0.4765110000000 1.0
C      1  0.6008800000000  0.4981560000000  0.4715380000000 1.0
C      1  0.4868990000000  0.4790170000000  0.4454680000000 1.0
C      1  0.4381060000000  0.4998300000000  0.4357690000000 1.0
C      1  0.5218700000000  0.5010440000000  0.3955070000000 1.0
C      1  0.5635920000000  0.4326370000000  0.5309650000000 1.0
C      1  0.4269010000000  0.4732670000000  0.5606950000000 1.0
C      1  0.5822180000000  0.5426450000000  0.4628810000000 1.0
C      1  0.4136750000000  0.4607470000000  0.4536390000000 1.0
C      1  0.5710230000000  0.4655510000000  0.4713320000000 1.0
C      1  0.4818540000000  0.5286300000000  0.5142110000000 1.0
C      1  0.4022610000000  0.5425410000000  0.5206980000000 1.0
C      1  0.3969600000000  0.5327600000000  0.4761960000000 1.0
C      1  0.4855420000000  0.4064510000000  0.5156020000000 1.0
C      1  0.5577270000000  0.4918880000000  0.4827100000000 1.0
C      1  0.5723860000000  0.4614350000000  0.4419310000000 1.0
C      1  0.5127410000000  0.4480900000000  0.5741290000000 1.0
C      1  0.5598890000000  0.4118350000000  0.4854220000000 1.0
C      1  0.5835690000000  0.5148910000000  0.4551830000000 1.0
C      1  0.3951500000000  0.4889370000000  0.5287480000000 1.0
C      1  0.6086870000000  0.5382850000000  0.5071850000000 1.0
C      1  0.4500580000000  0.5713130000000  0.4599760000000 1.0
C      1  0.4305030000000  0.5686280000000  0.5829370000000 1.0
C      1  0.5152550000000  0.4722360000000  0.4577620000000 1.0
C      1  0.5547990000000  0.5286910000000  0.4165170000000 1.0
C      1  0.4633880000000  0.5115380000000  0.4213840000000 1.0
C      1  0.4190720000000  0.4337790000000  0.4601440000000 1.0
C      1  0.5730670000000  0.5704350000000  0.5208650000000 1.0
C      1  0.5258950000000  0.4102540000000  0.5391180000000 1.0
C      1  0.4793080000000  0.4167540000000  0.5460070000000 1.0
C      1  0.4683540000000  0.4700600000000  0.5897440000000 1.0
C      1  0.4654470000000  0.4687710000000  0.4636700000000 1.0
C      1  0.4622290000000  0.5137000000000  0.5539200000000 1.0
C      1  0.5471590000000  0.5051360000000  0.5586620000000 1.0
C      1  0.4861940000000  0.5566420000000  0.4879490000000 1.0
C      1  0.4411830000000  0.4172120000000  0.4558600000000 1.0
C      1  0.4188700000000  0.5441110000000  0.4333320000000 1.0
C      1  0.4904160000000  0.5875850000000  0.5477650000000 1.0
C      1  0.5021790000000  0.4416360000000  0.5188510000000 1.0
C      1  0.5614320000000  0.4341610000000  0.4384060000000 1.0
C      1  0.4299160000000  0.4609230000000  0.5138410000000 1.0
C      1  0.5441910000000  0.5780790000000  0.4659290000000 1.0
C      1  0.5496920000000  0.4553570000000  0.5788370000000 1.0
C      1  0.5173730000000  0.4618610000000  0.5333560000000 1.0
C      1  0.4558670000000  0.4643330000000  0.5619810000000 1.0
C      1  0.5737320000000  0.4648160000000  0.5640740000000 1.0
C      1  0.4742900000000  0.4990600000000  0.5937150000000 1.0
C      1  0.4527460000000  0.5298160000000  0.5089990000000 1.0
END
