TITL C-950528-5794-41 2.75648655060219e-07 125000 -249.809150801934 0 0 42 (C1) n - 1
REM
REM in /home/bkarasulu/work/CARBON/AIRSS/Generating-Clusters/EDIP-Nigel-Params/with-SteepDescent/Only-C1/SD-CG/HFTN-CG
REM
REM
REM
REM
REM
REM ./C.cell (11c1c37f851c82e70ff6c80c92926a4b)
REM
REM compiler GCC version 9.2.1 20190827 (Red Hat 9.2.1-1)
REM options -cpp -mtune=generic -march=x86-64 -g -O0 -fpre-include=/usr/include/finclude/math-vector-fortran.h
REM seed -125204672 147313211 -1206982468 -1652310499 -1264410202 -1811427523 615259192 1966347377 -2119191223 2011672442 -11382370 1157185846 578113842 -1695156704 1417522147 -1099211425 -2068313220 890948116 -1849361306 -623366190 -164873189 -1150283301 -782541465 -1608420336 1163703061 602614482 -1829098304 -2004927111 1255302879 1252341722 1023623480 -1847986877 -345961443
REM
CELL 1.54180   50.00000   50.00000   50.00000   90.00000   90.00000   90.00000
LATT -1
SFAC C  
C      1  0.4274310000000  0.5075340000000  0.5162530000000 1.0
C      1  0.5132050000000  0.5426590000000  0.5068980000000 1.0
C      1  0.5598290000000  0.4915420000000  0.4835510000000 1.0
C      1  0.4738200000000  0.5408230000000  0.5309020000000 1.0
C      1  0.5037050000000  0.4885090000000  0.5379850000000 1.0
C      1  0.4446060000000  0.5336130000000  0.4931210000000 1.0
C      1  0.5572720000000  0.4650350000000  0.4925510000000 1.0
C      1  0.5259930000000  0.5422310000000  0.4611410000000 1.0
C      1  0.4894600000000  0.4458830000000  0.5210870000000 1.0
C      1  0.4909870000000  0.4929670000000  0.5077900000000 1.0
C      1  0.4751750000000  0.5035560000000  0.4286050000000 1.0
C      1  0.4714440000000  0.4681220000000  0.5098690000000 1.0
C      1  0.5527370000000  0.5039770000000  0.5287050000000 1.0
C      1  0.5028050000000  0.5474470000000  0.5344470000000 1.0
C      1  0.4572150000000  0.4659290000000  0.4828900000000 1.0
C      1  0.5341140000000  0.4870060000000  0.5403690000000 1.0
C      1  0.4935450000000  0.5101040000000  0.5564500000000 1.0
C      1  0.5296420000000  0.4608250000000  0.4944250000000 1.0
C      1  0.4528390000000  0.4714090000000  0.5326040000000 1.0
C      1  0.4742750000000  0.4536070000000  0.4641910000000 1.0
C      1  0.4797770000000  0.5268900000000  0.4426930000000 1.0
C      1  0.5442060000000  0.5231900000000  0.4480900000000 1.0
C      1  0.4912280000000  0.5399840000000  0.4891310000000 1.0
C      1  0.4301800000000  0.5093950000000  0.4868130000000 1.0
C      1  0.5190090000000  0.4456790000000  0.5548700000000 1.0
C      1  0.4949010000000  0.4599700000000  0.5475470000000 1.0
C      1  0.4530230000000  0.4990790000000  0.4446670000000 1.0
C      1  0.4713120000000  0.5258800000000  0.5046120000000 1.0
C      1  0.5355610000000  0.5493270000000  0.4892030000000 1.0
C      1  0.4990360000000  0.5302400000000  0.4637050000000 1.0
C      1  0.4493200000000  0.4990820000000  0.5325500000000 1.0
C      1  0.4966020000000  0.4691710000000  0.4636820000000 1.0
C      1  0.4661750000000  0.5183540000000  0.5481100000000 1.0
C      1  0.5643350000000  0.5116000000000  0.5045460000000 1.0
C      1  0.5402090000000  0.4995110000000  0.4641030000000 1.0
C      1  0.4502060000000  0.4927360000000  0.4728100000000 1.0
C      1  0.5604390000000  0.5381690000000  0.4960460000000 1.0
C      1  0.5199200000000  0.4431250000000  0.5160480000000 1.0
C      1  0.5119170000000  0.4825860000000  0.4838080000000 1.0
C      1  0.5408330000000  0.5208830000000  0.4217640000000 1.0
C      1  0.5408930000000  0.4594880000000  0.5438520000000 1.0
C      1  0.5108200000000  0.5328820000000  0.5575150000000 1.0
END
