TITL C-950522-5749-378 -2.31703300614404e-06 125000 -349.721821943401 0 0 57 (C1) n - 1
REM
REM in /home/bkarasulu/work/CARBON/AIRSS/Generating-Clusters/EDIP-Nigel-Params/with-SteepDescent/Only-C1/SD-CG/HFTN-CG
REM
REM
REM
REM
REM
REM ./C.cell (11c1c37f851c82e70ff6c80c92926a4b)
REM
REM compiler GCC version 9.2.1 20190827 (Red Hat 9.2.1-1)
REM options -cpp -mtune=generic -march=x86-64 -g -O0 -fpre-include=/usr/include/finclude/math-vector-fortran.h
REM seed 1062318407 -1774812113 -2065427323 104469533 -1109616068 1282774683 804933375 -1064412981 -373703306 207360814 -42756290 1359294764 533167698 -489859088 -780486864 -1389584297 -1425978154 -1837481755 -1612081554 2109405489 1435822160 1287588572 828511188 1600081823 -1548120151 -665140175 -765212021 141645466 -1045872886 -2049701116 1507918414 -2100405317 -920765205
REM
CELL 1.54180   50.00000   50.00000   50.00000   90.00000   90.00000   90.00000
LATT -1
SFAC C  
C      1  0.4839730000000  0.4373280000000  0.5126550000000 1.0
C      1  0.5065270000000  0.5693310000000  0.4933660000000 1.0
C      1  0.5163940000000  0.5611800000000  0.4678370000000 1.0
C      1  0.5169380000000  0.4508150000000  0.4339320000000 1.0
C      1  0.4930060000000  0.4413210000000  0.4839020000000 1.0
C      1  0.4827600000000  0.4929080000000  0.4328900000000 1.0
C      1  0.5141780000000  0.4551140000000  0.5515460000000 1.0
C      1  0.4639950000000  0.5426380000000  0.5409640000000 1.0
C      1  0.5538370000000  0.5172600000000  0.5357310000000 1.0
C      1  0.5596320000000  0.5154170000000  0.4846380000000 1.0
C      1  0.4815110000000  0.5069590000000  0.4585570000000 1.0
C      1  0.4662860000000  0.4716240000000  0.5661980000000 1.0
C      1  0.4385100000000  0.5426370000000  0.4981820000000 1.0
C      1  0.4698840000000  0.4648930000000  0.4325320000000 1.0
C      1  0.5092280000000  0.4350970000000  0.5316340000000 1.0
C      1  0.5541000000000  0.4867780000000  0.4802880000000 1.0
C      1  0.4478430000000  0.4767110000000  0.5080470000000 1.0
C      1  0.5494220000000  0.4893890000000  0.5434560000000 1.0
C      1  0.5027410000000  0.5027540000000  0.5505140000000 1.0
C      1  0.5263920000000  0.4762920000000  0.4401000000000 1.0
C      1  0.4508610000000  0.5337430000000  0.4730510000000 1.0
C      1  0.5379800000000  0.5383000000000  0.5479510000000 1.0
C      1  0.4938750000000  0.5479550000000  0.5096510000000 1.0
C      1  0.5440330000000  0.5651150000000  0.5435740000000 1.0
C      1  0.4563460000000  0.4523250000000  0.5504470000000 1.0
C      1  0.5079840000000  0.4747390000000  0.5114620000000 1.0
C      1  0.4749880000000  0.4977050000000  0.5617680000000 1.0
C      1  0.5110420000000  0.4979880000000  0.4261490000000 1.0
C      1  0.4435960000000  0.5065780000000  0.4669440000000 1.0
C      1  0.4382790000000  0.5003590000000  0.5245440000000 1.0
C      1  0.4566890000000  0.5556990000000  0.5160450000000 1.0
C      1  0.5362490000000  0.5280880000000  0.4685740000000 1.0
C      1  0.4715920000000  0.5440830000000  0.4542870000000 1.0
C      1  0.5024830000000  0.5202280000000  0.5022540000000 1.0
C      1  0.5667910000000  0.5222580000000  0.5112300000000 1.0
C      1  0.5376870000000  0.5862780000000  0.5286300000000 1.0
C      1  0.5180580000000  0.5255540000000  0.4343870000000 1.0
C      1  0.4911560000000  0.5505130000000  0.5479540000000 1.0
C      1  0.5332520000000  0.4277820000000  0.5182260000000 1.0
C      1  0.5612120000000  0.4647180000000  0.5001540000000 1.0
C      1  0.5214640000000  0.5877830000000  0.5075180000000 1.0
C      1  0.4536050000000  0.4605710000000  0.4594380000000 1.0
C      1  0.5001240000000  0.4994360000000  0.5208810000000 1.0
C      1  0.4907860000000  0.4417120000000  0.4330160000000 1.0
C      1  0.4609200000000  0.4541280000000  0.5229230000000 1.0
C      1  0.5095880000000  0.5098870000000  0.4749410000000 1.0
C      1  0.5007720000000  0.5451460000000  0.4491530000000 1.0
C      1  0.4528880000000  0.4821670000000  0.4790250000000 1.0
C      1  0.5162940000000  0.4600580000000  0.4881900000000 1.0
C      1  0.4747800000000  0.4378580000000  0.4600310000000 1.0
C      1  0.5109520000000  0.5312430000000  0.5563570000000 1.0
C      1  0.5261910000000  0.4826800000000  0.4695800000000 1.0
C      1  0.4252550000000  0.5208050000000  0.5100780000000 1.0
C      1  0.5636650000000  0.4711760000000  0.5275870000000 1.0
C      1  0.5402810000000  0.4438750000000  0.4960910000000 1.0
C      1  0.4573970000000  0.5134710000000  0.5439260000000 1.0
C      1  0.5237250000000  0.4815470000000  0.5570140000000 1.0
END
