TITL C-951334-9093-635 -7.81335010845054e-07 125000 -333.742958906113 0 0 55 (C1) n - 1
REM
REM in /home/bkarasulu/work/CARBON/AIRSS/Generating-Clusters/EDIP-Nigel-Params/with-SteepDescent/Only-C1/SD-CG/HFTN-CG
REM
REM
REM
REM
REM
REM ./C.cell (11c1c37f851c82e70ff6c80c92926a4b)
REM
REM compiler GCC version 9.2.1 20190827 (Red Hat 9.2.1-1)
REM options -cpp -mtune=generic -march=x86-64 -g -O0 -fpre-include=/usr/include/finclude/math-vector-fortran.h
REM seed -379592196 -1029431211 1415106571 -2123464097 1293806967 762472586 657682372 -782884897 1480421107 818970930 -152671359 -799076379 154465978 803605032 -308128810 1236334626 1736900333 213446725 -389451648 429355428 -753734877 -1659440947 -650601741 121473047 1329230128 2052747173 1909069774 1459061636 -266667709 283556407 -1797894310 -1688136165 -609921796
REM
CELL 1.54180   50.00000   50.00000   50.00000   90.00000   90.00000   90.00000
LATT -1
SFAC C  
C      1  0.4866860000000  0.5320030000000  0.5586810000000 1.0
C      1  0.4357350000000  0.5656870000000  0.5331940000000 1.0
C      1  0.5241950000000  0.4341000000000  0.4666810000000 1.0
C      1  0.4879770000000  0.5738140000000  0.4714450000000 1.0
C      1  0.5050510000000  0.5087410000000  0.4690560000000 1.0
C      1  0.5205130000000  0.4832490000000  0.4622700000000 1.0
C      1  0.4768860000000  0.5011560000000  0.4625950000000 1.0
C      1  0.4981520000000  0.4499440000000  0.5322920000000 1.0
C      1  0.5658280000000  0.5310070000000  0.5096330000000 1.0
C      1  0.4354270000000  0.4829410000000  0.4671640000000 1.0
C      1  0.5567060000000  0.4868680000000  0.5407220000000 1.0
C      1  0.4707430000000  0.5125600000000  0.4345620000000 1.0
C      1  0.4635240000000  0.5387600000000  0.4447400000000 1.0
C      1  0.5600010000000  0.4673890000000  0.4535250000000 1.0
C      1  0.5205510000000  0.4773930000000  0.4948880000000 1.0
C      1  0.5601690000000  0.4840460000000  0.5117090000000 1.0
C      1  0.5404260000000  0.4672030000000  0.5516230000000 1.0
C      1  0.5101480000000  0.5095620000000  0.5011860000000 1.0
C      1  0.5535680000000  0.5121750000000  0.5524580000000 1.0
C      1  0.4566070000000  0.5736410000000  0.5169900000000 1.0
C      1  0.4463370000000  0.5402130000000  0.5327690000000 1.0
C      1  0.5129210000000  0.4635770000000  0.5534790000000 1.0
C      1  0.4767270000000  0.4821530000000  0.5717570000000 1.0
C      1  0.4777010000000  0.5099180000000  0.5727720000000 1.0
C      1  0.5485000000000  0.4509140000000  0.4733510000000 1.0
C      1  0.5368400000000  0.5334740000000  0.5454950000000 1.0
C      1  0.5372930000000  0.5335180000000  0.5155970000000 1.0
C      1  0.5541480000000  0.4940390000000  0.4479610000000 1.0
C      1  0.4453980000000  0.5316590000000  0.4654240000000 1.0
C      1  0.5661090000000  0.5075660000000  0.4946330000000 1.0
C      1  0.5518800000000  0.5135250000000  0.4694080000000 1.0
C      1  0.5007090000000  0.4558460000000  0.5032740000000 1.0
C      1  0.4999700000000  0.4676290000000  0.5778240000000 1.0
C      1  0.4983950000000  0.5608010000000  0.4941530000000 1.0
C      1  0.4554460000000  0.4625660000000  0.4627960000000 1.0
C      1  0.4378270000000  0.5089010000000  0.4803810000000 1.0
C      1  0.4532860000000  0.4506330000000  0.5120370000000 1.0
C      1  0.5123190000000  0.4395030000000  0.4414290000000 1.0
C      1  0.5142680000000  0.5391390000000  0.4477470000000 1.0
C      1  0.5036410000000  0.4661810000000  0.4443990000000 1.0
C      1  0.4471990000000  0.4789330000000  0.5171720000000 1.0
C      1  0.4593150000000  0.4702400000000  0.5521480000000 1.0
C      1  0.4754770000000  0.5355670000000  0.5313860000000 1.0
C      1  0.4888270000000  0.5534150000000  0.4516040000000 1.0
C      1  0.4828670000000  0.5616740000000  0.5186910000000 1.0
C      1  0.5135540000000  0.5371500000000  0.5595260000000 1.0
C      1  0.5032340000000  0.4319180000000  0.4866920000000 1.0
C      1  0.4608840000000  0.4977370000000  0.4984590000000 1.0
C      1  0.4826030000000  0.5125650000000  0.5131950000000 1.0
C      1  0.5538440000000  0.4582550000000  0.5006640000000 1.0
C      1  0.4754000000000  0.4754080000000  0.4444230000000 1.0
C      1  0.4674020000000  0.4467220000000  0.4857040000000 1.0
C      1  0.4691990000000  0.4467950000000  0.5375700000000 1.0
C      1  0.5255380000000  0.5499320000000  0.4933680000000 1.0
C      1  0.5360490000000  0.5396900000000  0.4673000000000 1.0
END
