TITL C-950532-2784-313 -1.67529715823625e-07 125000 -1065.01431278459 0 0 170 (C1) n - 1
REM
REM in /home/bkarasulu/work/CARBON/AIRSS/Generating-Clusters/EDIP-Nigel-Params/with-SteepDescent/Only-C1/SD-CG/HFTN-CG
REM
REM
REM
REM
REM
REM ./C.cell (11c1c37f851c82e70ff6c80c92926a4b)
REM
REM compiler GCC version 9.2.1 20190827 (Red Hat 9.2.1-1)
REM options -cpp -mtune=generic -march=x86-64 -g -O0 -fpre-include=/usr/include/finclude/math-vector-fortran.h
REM seed -792001134 1995883175 1367989250 -1771110015 784595022 1875530788 2103295529 -569481791 1404872051 510503117 -1853061999 296265446 -1211131328 1611393295 847856364 -1351469525 -500917908 -2109003356 57200813 -1124344131 652259725 590373049 955664186 1492302566 -466442606 -1143323321 -1988898994 1490347968 -1408615330 -1252823533 -832602964 328900115 1206995423
REM
CELL 1.54180   50.00000   50.00000   50.00000   90.00000   90.00000   90.00000
LATT -1
SFAC C  
C      1  0.4107130000000  0.5149570000000  0.5561580000000 1.0
C      1  0.5739060000000  0.5089340000000  0.5509460000000 1.0
C      1  0.4541910000000  0.4872080000000  0.5500420000000 1.0
C      1  0.5814470000000  0.4936850000000  0.4506290000000 1.0
C      1  0.4412730000000  0.5833570000000  0.5374500000000 1.0
C      1  0.5483230000000  0.5522620000000  0.5809240000000 1.0
C      1  0.3963930000000  0.5234830000000  0.5310980000000 1.0
C      1  0.4717280000000  0.4999330000000  0.6006880000000 1.0
C      1  0.5472710000000  0.5022470000000  0.5066410000000 1.0
C      1  0.4744190000000  0.4796670000000  0.4441350000000 1.0
C      1  0.4887210000000  0.4657590000000  0.4686050000000 1.0
C      1  0.5658820000000  0.5512250000000  0.5198650000000 1.0
C      1  0.4551290000000  0.4615250000000  0.4285930000000 1.0
C      1  0.4455220000000  0.5580380000000  0.4188230000000 1.0
C      1  0.5286850000000  0.4462830000000  0.5392950000000 1.0
C      1  0.5483010000000  0.5994000000000  0.4691470000000 1.0
C      1  0.4175080000000  0.5647430000000  0.5463970000000 1.0
C      1  0.5874220000000  0.5604390000000  0.4835120000000 1.0
C      1  0.4005960000000  0.4799280000000  0.4589330000000 1.0
C      1  0.4665190000000  0.4697770000000  0.5285310000000 1.0
C      1  0.4431930000000  0.5832940000000  0.5048150000000 1.0
C      1  0.4348600000000  0.5311520000000  0.4131620000000 1.0
C      1  0.5354550000000  0.4248450000000  0.5603200000000 1.0
C      1  0.5105260000000  0.5846010000000  0.5616490000000 1.0
C      1  0.4766790000000  0.4715270000000  0.3888520000000 1.0
C      1  0.5524620000000  0.4403440000000  0.5794360000000 1.0
C      1  0.5562950000000  0.4977210000000  0.4062470000000 1.0
C      1  0.4998510000000  0.4835930000000  0.4923260000000 1.0
C      1  0.5557840000000  0.5791200000000  0.5137320000000 1.0
C      1  0.4729380000000  0.4519320000000  0.5817320000000 1.0
C      1  0.5185340000000  0.5565770000000  0.5744770000000 1.0
C      1  0.5519730000000  0.4464900000000  0.5199420000000 1.0
C      1  0.4883400000000  0.5694330000000  0.5267300000000 1.0
C      1  0.4611880000000  0.4022690000000  0.4967800000000 1.0
C      1  0.4007090000000  0.5557320000000  0.4959540000000 1.0
C      1  0.4387030000000  0.5284220000000  0.4858540000000 1.0
C      1  0.4720140000000  0.5651660000000  0.4721050000000 1.0
C      1  0.5394280000000  0.4175800000000  0.4423740000000 1.0
C      1  0.3983680000000  0.5047000000000  0.5074430000000 1.0
C      1  0.4570770000000  0.5056970000000  0.4794040000000 1.0
C      1  0.4979950000000  0.6049400000000  0.4584100000000 1.0
C      1  0.5508160000000  0.5313220000000  0.6034960000000 1.0
C      1  0.5192990000000  0.5915500000000  0.5345890000000 1.0
C      1  0.4077360000000  0.4473040000000  0.4790110000000 1.0
C      1  0.4957740000000  0.4257520000000  0.4413020000000 1.0
C      1  0.5445960000000  0.4251000000000  0.4994110000000 1.0
C      1  0.4711160000000  0.5109350000000  0.5445980000000 1.0
C      1  0.5306000000000  0.5715530000000  0.4974490000000 1.0
C      1  0.4613520000000  0.5347840000000  0.5314890000000 1.0
C      1  0.5361670000000  0.4008870000000  0.5173410000000 1.0
C      1  0.5068450000000  0.6053250000000  0.5116750000000 1.0
C      1  0.5210500000000  0.4357160000000  0.4827320000000 1.0
C      1  0.4613970000000  0.5596360000000  0.5493350000000 1.0
C      1  0.5709980000000  0.4192530000000  0.4854730000000 1.0
C      1  0.5951490000000  0.5326780000000  0.4789650000000 1.0
C      1  0.4853410000000  0.5088730000000  0.4909470000000 1.0
C      1  0.4730980000000  0.5587960000000  0.4090820000000 1.0
C      1  0.4421730000000  0.4805260000000  0.4866560000000 1.0
C      1  0.4359950000000  0.4820230000000  0.4171490000000 1.0
C      1  0.4881680000000  0.5814530000000  0.4151560000000 1.0
C      1  0.5186690000000  0.6049200000000  0.4810540000000 1.0
C      1  0.5360400000000  0.4779160000000  0.4444740000000 1.0
C      1  0.5165930000000  0.4552510000000  0.4123300000000 1.0
C      1  0.4128420000000  0.4819260000000  0.5196600000000 1.0
C      1  0.4845230000000  0.5947150000000  0.5621250000000 1.0
C      1  0.4986650000000  0.4392150000000  0.5248050000000 1.0
C      1  0.5451710000000  0.4711120000000  0.4723130000000 1.0
C      1  0.4531360000000  0.4584230000000  0.5040570000000 1.0
C      1  0.5799740000000  0.4649710000000  0.5215060000000 1.0
C      1  0.4272690000000  0.4329970000000  0.5266920000000 1.0
C      1  0.4946610000000  0.5471580000000  0.4603300000000 1.0
C      1  0.4082630000000  0.5224710000000  0.4821780000000 1.0
C      1  0.5169490000000  0.4757860000000  0.5429700000000 1.0
C      1  0.5048310000000  0.3890210000000  0.4711070000000 1.0
C      1  0.4731970000000  0.4459070000000  0.4846200000000 1.0
C      1  0.5050590000000  0.5292460000000  0.4814150000000 1.0
C      1  0.5761430000000  0.4918260000000  0.5030970000000 1.0
C      1  0.5066390000000  0.5884750000000  0.4347460000000 1.0
C      1  0.5484910000000  0.5716480000000  0.4517190000000 1.0
C      1  0.5249740000000  0.5068600000000  0.4493980000000 1.0
C      1  0.4251030000000  0.4681060000000  0.4665920000000 1.0
C      1  0.4557700000000  0.5204200000000  0.3942890000000 1.0
C      1  0.5827830000000  0.4363720000000  0.4468870000000 1.0
C      1  0.5182420000000  0.5640670000000  0.4463080000000 1.0
C      1  0.4823910000000  0.5331650000000  0.3961510000000 1.0
C      1  0.4545960000000  0.5470970000000  0.5776250000000 1.0
C      1  0.4900780000000  0.3912690000000  0.4962700000000 1.0
C      1  0.5584330000000  0.5572700000000  0.4761160000000 1.0
C      1  0.5170950000000  0.4974810000000  0.6216820000000 1.0
C      1  0.5743730000000  0.4777150000000  0.4749840000000 1.0
C      1  0.5561290000000  0.5004640000000  0.5957550000000 1.0
C      1  0.5286920000000  0.4920750000000  0.4853900000000 1.0
C      1  0.5832490000000  0.5219810000000  0.4547030000000 1.0
C      1  0.4246730000000  0.5663110000000  0.4571470000000 1.0
C      1  0.4687740000000  0.5660310000000  0.5013730000000 1.0
C      1  0.5071050000000  0.3959730000000  0.5217420000000 1.0
C      1  0.4782380000000  0.5280720000000  0.5881970000000 1.0
C      1  0.5661110000000  0.4125630000000  0.4546040000000 1.0
C      1  0.5674210000000  0.4522220000000  0.4253690000000 1.0
C      1  0.5310390000000  0.4567080000000  0.5943270000000 1.0
C      1  0.5024010000000  0.5443460000000  0.5984890000000 1.0
C      1  0.5669880000000  0.5522390000000  0.5579720000000 1.0
C      1  0.5752890000000  0.4212750000000  0.5384500000000 1.0
C      1  0.5073110000000  0.5078630000000  0.4025430000000 1.0
C      1  0.5504790000000  0.4042000000000  0.5430370000000 1.0
C      1  0.5024170000000  0.4438110000000  0.5866430000000 1.0
C      1  0.5787980000000  0.4406360000000  0.5627500000000 1.0
C      1  0.5226370000000  0.5284940000000  0.6151240000000 1.0
C      1  0.5982800000000  0.4469590000000  0.5046790000000 1.0
C      1  0.5348820000000  0.5355020000000  0.4250820000000 1.0
C      1  0.4588010000000  0.6082730000000  0.4932230000000 1.0
C      1  0.4710530000000  0.5956940000000  0.4669570000000 1.0
C      1  0.4327250000000  0.5077170000000  0.4342210000000 1.0
C      1  0.6003440000000  0.5352050000000  0.5263720000000 1.0
C      1  0.4923900000000  0.5159920000000  0.5639300000000 1.0
C      1  0.4947550000000  0.4707270000000  0.5218210000000 1.0
C      1  0.5053330000000  0.4781280000000  0.3947400000000 1.0
C      1  0.4119380000000  0.5468850000000  0.5224370000000 1.0
C      1  0.5093370000000  0.4183470000000  0.5720240000000 1.0
C      1  0.4955730000000  0.4298770000000  0.4967100000000 1.0
C      1  0.5074670000000  0.4903590000000  0.5728060000000 1.0
C      1  0.4305690000000  0.5786730000000  0.4321890000000 1.0
C      1  0.4545530000000  0.4911120000000  0.3954780000000 1.0
C      1  0.4262760000000  0.4022200000000  0.4501420000000 1.0
C      1  0.4244320000000  0.5427890000000  0.5671490000000 1.0
C      1  0.5579070000000  0.5536480000000  0.4288200000000 1.0
C      1  0.4299290000000  0.4437470000000  0.5541770000000 1.0
C      1  0.4975860000000  0.4845150000000  0.6029180000000 1.0
C      1  0.4953620000000  0.4351950000000  0.4137270000000 1.0
C      1  0.5872980000000  0.4666290000000  0.5524570000000 1.0
C      1  0.5131700000000  0.4024880000000  0.4473940000000 1.0
C      1  0.4146100000000  0.4535030000000  0.5084300000000 1.0
C      1  0.4138130000000  0.4650040000000  0.5642430000000 1.0
C      1  0.4942750000000  0.4078500000000  0.5477250000000 1.0
C      1  0.5405990000000  0.4797760000000  0.6129990000000 1.0
C      1  0.4447710000000  0.4032370000000  0.4723670000000 1.0
C      1  0.5685660000000  0.5935780000000  0.4909170000000 1.0
C      1  0.5408330000000  0.4398660000000  0.4225970000000 1.0
C      1  0.4519020000000  0.4172330000000  0.5204530000000 1.0
C      1  0.4079910000000  0.5072820000000  0.4542850000000 1.0
C      1  0.5205600000000  0.5434080000000  0.5032160000000 1.0
C      1  0.4816280000000  0.5282910000000  0.4400050000000 1.0
C      1  0.4599460000000  0.4793160000000  0.5805140000000 1.0
C      1  0.4694180000000  0.4476920000000  0.4054500000000 1.0
C      1  0.5816550000000  0.4891620000000  0.5702140000000 1.0
C      1  0.4780590000000  0.6116890000000  0.5166410000000 1.0
C      1  0.5898660000000  0.4516100000000  0.4748640000000 1.0
C      1  0.4373460000000  0.5328790000000  0.5151500000000 1.0
C      1  0.4667820000000  0.4167070000000  0.5452650000000 1.0
C      1  0.4600170000000  0.5068130000000  0.4498350000000 1.0
C      1  0.5350110000000  0.5015650000000  0.5749380000000 1.0
C      1  0.5461100000000  0.5312760000000  0.5088950000000 1.0
C      1  0.4555200000000  0.4342430000000  0.5653030000000 1.0
C      1  0.4470710000000  0.5499300000000  0.4660930000000 1.0
C      1  0.4183400000000  0.4191830000000  0.4715840000000 1.0
C      1  0.5814180000000  0.5394310000000  0.4330570000000 1.0
C      1  0.5367380000000  0.4941410000000  0.5314900000000 1.0
C      1  0.5119940000000  0.4493760000000  0.4560190000000 1.0
C      1  0.5626970000000  0.4816760000000  0.4296660000000 1.0
C      1  0.5885050000000  0.5333850000000  0.5527560000000 1.0
C      1  0.5044460000000  0.5448580000000  0.5272290000000 1.0
C      1  0.5005150000000  0.5060880000000  0.4321650000000 1.0
C      1  0.5957940000000  0.5165560000000  0.5037900000000 1.0
C      1  0.5361590000000  0.5169420000000  0.4023510000000 1.0
C      1  0.5145230000000  0.5347130000000  0.5531240000000 1.0
C      1  0.5906870000000  0.4195300000000  0.5113670000000 1.0
C      1  0.4173420000000  0.5767800000000  0.4847950000000 1.0
C      1  0.5437170000000  0.5144110000000  0.5507320000000 1.0
C      1  0.4656010000000  0.6033530000000  0.5431080000000 1.0
C      1  0.4225190000000  0.4874640000000  0.5477930000000 1.0
END
