TITL C-950529-3362-319 -1.18392170711069e-06 125000 -686.486361353705 0 0 109 (C1) n - 1
REM
REM in /home/bkarasulu/work/CARBON/AIRSS/Generating-Clusters/EDIP-Nigel-Params/with-SteepDescent/Only-C1/SD-CG/HFTN-CG
REM
REM
REM
REM
REM
REM ./C.cell (11c1c37f851c82e70ff6c80c92926a4b)
REM
REM compiler GCC version 9.2.1 20190827 (Red Hat 9.2.1-1)
REM options -cpp -mtune=generic -march=x86-64 -g -O0 -fpre-include=/usr/include/finclude/math-vector-fortran.h
REM seed 83638980 -1613104401 -831479633 618889676 -676972885 -1812248238 -281285002 -1309115097 2095625037 -503074259 -1069255299 914791171 180347248 -1504994444 163104215 204004701 594866285 1191545877 -1688517906 949429052 1578592392 -1388040845 1205105039 704693224 1011653113 1477887166 -1964216848 1288297573 1750472150 1991385025 -525445680 -1397629083 429471015
REM
CELL 1.54180   50.00000   50.00000   50.00000   90.00000   90.00000   90.00000
LATT -1
SFAC C  
C      1  0.4671790000000  0.5301110000000  0.4162780000000 1.0
C      1  0.4941590000000  0.5477930000000  0.4981360000000 1.0
C      1  0.4582730000000  0.4849970000000  0.5142500000000 1.0
C      1  0.4536080000000  0.4147170000000  0.5337530000000 1.0
C      1  0.5440780000000  0.4443820000000  0.4462290000000 1.0
C      1  0.4942600000000  0.4418680000000  0.4460100000000 1.0
C      1  0.4557750000000  0.5783170000000  0.4872500000000 1.0
C      1  0.5189060000000  0.4351510000000  0.4580120000000 1.0
C      1  0.5660980000000  0.4845830000000  0.4600730000000 1.0
C      1  0.5448730000000  0.4113050000000  0.4896700000000 1.0
C      1  0.5778650000000  0.5312720000000  0.4696410000000 1.0
C      1  0.5530510000000  0.5386750000000  0.4542600000000 1.0
C      1  0.5093590000000  0.5867900000000  0.4844870000000 1.0
C      1  0.6122310000000  0.5001470000000  0.4837490000000 1.0
C      1  0.4961840000000  0.4921170000000  0.5811630000000 1.0
C      1  0.6070280000000  0.4903830000000  0.5091120000000 1.0
C      1  0.4292030000000  0.5432250000000  0.5606470000000 1.0
C      1  0.5373070000000  0.5193850000000  0.5188120000000 1.0
C      1  0.5014070000000  0.4266120000000  0.5247190000000 1.0
C      1  0.4570510000000  0.5736150000000  0.4362250000000 1.0
C      1  0.5056700000000  0.5195220000000  0.4487510000000 1.0
C      1  0.5192630000000  0.4152780000000  0.4787240000000 1.0
C      1  0.4818900000000  0.5901870000000  0.4883990000000 1.0
C      1  0.5466330000000  0.5117950000000  0.4193880000000 1.0
C      1  0.5219660000000  0.5602770000000  0.5679890000000 1.0
C      1  0.5412500000000  0.4705580000000  0.5758720000000 1.0
C      1  0.5541980000000  0.5679260000000  0.4904850000000 1.0
C      1  0.4128880000000  0.4613200000000  0.5075240000000 1.0
C      1  0.5757630000000  0.5467470000000  0.4945910000000 1.0
C      1  0.4319570000000  0.5445270000000  0.4622870000000 1.0
C      1  0.5149750000000  0.5738050000000  0.5407700000000 1.0
C      1  0.4961090000000  0.4568560000000  0.5224120000000 1.0
C      1  0.4959860000000  0.4148600000000  0.4970590000000 1.0
C      1  0.5464570000000  0.4925320000000  0.5589930000000 1.0
C      1  0.5234470000000  0.5368820000000  0.4947600000000 1.0
C      1  0.5469490000000  0.5431160000000  0.5647560000000 1.0
C      1  0.4096370000000  0.5048670000000  0.5398580000000 1.0
C      1  0.5451960000000  0.5660240000000  0.4621930000000 1.0
C      1  0.5006510000000  0.5414530000000  0.5833170000000 1.0
C      1  0.5635300000000  0.4525320000000  0.4674300000000 1.0
C      1  0.4441340000000  0.4406560000000  0.5603300000000 1.0
C      1  0.5786910000000  0.5349290000000  0.5225790000000 1.0
C      1  0.4297130000000  0.5431790000000  0.5136210000000 1.0
C      1  0.4556060000000  0.5525940000000  0.5603830000000 1.0
C      1  0.5278790000000  0.5741970000000  0.5054510000000 1.0
C      1  0.5301910000000  0.4272760000000  0.5355220000000 1.0
C      1  0.5172780000000  0.5080620000000  0.4211170000000 1.0
C      1  0.4746290000000  0.5464180000000  0.4750130000000 1.0
C      1  0.5456650000000  0.4495600000000  0.5202460000000 1.0
C      1  0.5158680000000  0.5718940000000  0.4596490000000 1.0
C      1  0.4916450000000  0.4743070000000  0.4749540000000 1.0
C      1  0.5426680000000  0.4967650000000  0.4771400000000 1.0
C      1  0.4767190000000  0.4651390000000  0.5007730000000 1.0
C      1  0.5416180000000  0.5162690000000  0.5770500000000 1.0
C      1  0.4441240000000  0.5685840000000  0.5138950000000 1.0
C      1  0.4698690000000  0.4441580000000  0.4626930000000 1.0
C      1  0.5231420000000  0.4707750000000  0.5162430000000 1.0
C      1  0.5205150000000  0.4785950000000  0.4870990000000 1.0
C      1  0.5917570000000  0.5070660000000  0.5312490000000 1.0
C      1  0.4220300000000  0.5337260000000  0.4875820000000 1.0
C      1  0.4930100000000  0.4663430000000  0.4317180000000 1.0
C      1  0.4483120000000  0.4248180000000  0.5074220000000 1.0
C      1  0.4309870000000  0.4834620000000  0.5020010000000 1.0
C      1  0.4630610000000  0.5700480000000  0.5369230000000 1.0
C      1  0.5793000000000  0.4789010000000  0.5059680000000 1.0
C      1  0.4251470000000  0.5248510000000  0.4406140000000 1.0
C      1  0.4679550000000  0.5110240000000  0.5070410000000 1.0
C      1  0.5281650000000  0.4946550000000  0.5345800000000 1.0
C      1  0.4738180000000  0.4390950000000  0.5641270000000 1.0
C      1  0.4807030000000  0.5015790000000  0.4603360000000 1.0
C      1  0.5605490000000  0.4875770000000  0.4301130000000 1.0
C      1  0.5290810000000  0.4292860000000  0.5632540000000 1.0
C      1  0.4949690000000  0.5342080000000  0.5400780000000 1.0
C      1  0.4131090000000  0.4770840000000  0.5419440000000 1.0
C      1  0.5521040000000  0.5407640000000  0.5353900000000 1.0
C      1  0.4265140000000  0.5048620000000  0.4814400000000 1.0
C      1  0.4269650000000  0.4727380000000  0.4454220000000 1.0
C      1  0.4395840000000  0.5240150000000  0.4156740000000 1.0
C      1  0.4910920000000  0.5610370000000  0.5281840000000 1.0
C      1  0.5250800000000  0.4495980000000  0.5817720000000 1.0
C      1  0.4985390000000  0.4614080000000  0.5848700000000 1.0
C      1  0.4187750000000  0.5313120000000  0.5379620000000 1.0
C      1  0.5142400000000  0.5151660000000  0.5896960000000 1.0
C      1  0.4366510000000  0.4683490000000  0.5563420000000 1.0
C      1  0.4943640000000  0.5490160000000  0.4509350000000 1.0
C      1  0.5302980000000  0.5226010000000  0.4674450000000 1.0
C      1  0.4604030000000  0.4831760000000  0.5469240000000 1.0
C      1  0.4716140000000  0.5027250000000  0.5684970000000 1.0
C      1  0.4692810000000  0.4239620000000  0.4864660000000 1.0
C      1  0.4626270000000  0.5181930000000  0.4789760000000 1.0
C      1  0.4781880000000  0.5322060000000  0.5642140000000 1.0
C      1  0.5566320000000  0.5369940000000  0.4257990000000 1.0
C      1  0.5419410000000  0.4656790000000  0.4250690000000 1.0
C      1  0.5155170000000  0.4782410000000  0.4186070000000 1.0
C      1  0.5743260000000  0.4878320000000  0.5487700000000 1.0
C      1  0.4928540000000  0.5153980000000  0.5185570000000 1.0
C      1  0.4423450000000  0.5713920000000  0.4601470000000 1.0
C      1  0.5713520000000  0.4635050000000  0.5309170000000 1.0
C      1  0.5893700000000  0.5042160000000  0.4677930000000 1.0
C      1  0.4767060000000  0.5551440000000  0.4278330000000 1.0
C      1  0.4490300000000  0.4558630000000  0.4418390000000 1.0
C      1  0.5546560000000  0.4376880000000  0.4931870000000 1.0
C      1  0.4660930000000  0.4727540000000  0.4246620000000 1.0
C      1  0.4601980000000  0.4988990000000  0.4366420000000 1.0
C      1  0.4809460000000  0.4169270000000  0.5449000000000 1.0
C      1  0.4836370000000  0.4643460000000  0.5493380000000 1.0
C      1  0.4231600000000  0.4359960000000  0.5036870000000 1.0
C      1  0.5610230000000  0.5060530000000  0.5016560000000 1.0
C      1  0.4196720000000  0.4983560000000  0.4536420000000 1.0
END
