TITL C-951347-9520-428 -4.80695295814969e-06 125000 -1087.3459177997 0 0 173 (C1) n - 1
REM
REM in /home/bkarasulu/work/CARBON/AIRSS/Generating-Clusters/EDIP-Nigel-Params/with-SteepDescent/Only-C1/SD-CG/HFTN-CG
REM
REM
REM
REM
REM
REM ./C.cell (11c1c37f851c82e70ff6c80c92926a4b)
REM
REM compiler GCC version 9.2.1 20190827 (Red Hat 9.2.1-1)
REM options -cpp -mtune=generic -march=x86-64 -g -O0 -fpre-include=/usr/include/finclude/math-vector-fortran.h
REM seed 1623989108 350649988 2094869845 1309907575 1506539237 -2052212668 -1235477572 2088623429 1533322239 -1012359586 1721546835 -265901124 -1975610403 461032599 -1007807363 1305329391 1226108407 -1724788563 -537659027 -922599461 -538684132 -1402925042 1966689136 -754452272 1201151648 1484090205 -14790700 1132280093 -97285943 -1040937004 2067008307 2129894754 1534983466
REM
CELL 1.54180   50.00000   50.00000   50.00000   90.00000   90.00000   90.00000
LATT -1
SFAC C  
C      1  0.4188610000000  0.5500740000000  0.5458140000000 1.0
C      1  0.4400320000000  0.4488190000000  0.5488630000000 1.0
C      1  0.5559300000000  0.4864300000000  0.5405410000000 1.0
C      1  0.3979150000000  0.5420980000000  0.5296410000000 1.0
C      1  0.4788220000000  0.4608610000000  0.5207690000000 1.0
C      1  0.5540350000000  0.4214200000000  0.4632270000000 1.0
C      1  0.5503160000000  0.4053150000000  0.5486080000000 1.0
C      1  0.3960070000000  0.5168980000000  0.5184340000000 1.0
C      1  0.5738230000000  0.4531520000000  0.5509470000000 1.0
C      1  0.5765830000000  0.5621470000000  0.4403260000000 1.0
C      1  0.4788060000000  0.4502500000000  0.4147130000000 1.0
C      1  0.4360660000000  0.5860390000000  0.4949920000000 1.0
C      1  0.4820120000000  0.5139300000000  0.5502670000000 1.0
C      1  0.4864500000000  0.4449160000000  0.6024810000000 1.0
C      1  0.4788270000000  0.5218260000000  0.5028300000000 1.0
C      1  0.5397100000000  0.5788950000000  0.4617220000000 1.0
C      1  0.5163450000000  0.5479300000000  0.5831280000000 1.0
C      1  0.6099580000000  0.5167810000000  0.4994280000000 1.0
C      1  0.4405210000000  0.4221310000000  0.4742820000000 1.0
C      1  0.4867240000000  0.5182090000000  0.6082580000000 1.0
C      1  0.4946510000000  0.4945060000000  0.4650330000000 1.0
C      1  0.5295360000000  0.5342250000000  0.5418620000000 1.0
C      1  0.4279480000000  0.4645300000000  0.4151370000000 1.0
C      1  0.4998150000000  0.5718560000000  0.4296800000000 1.0
C      1  0.5580540000000  0.4312150000000  0.5635430000000 1.0
C      1  0.5514780000000  0.4911690000000  0.4146850000000 1.0
C      1  0.4107000000000  0.5112410000000  0.4177740000000 1.0
C      1  0.4490340000000  0.5539010000000  0.5371270000000 1.0
C      1  0.4413920000000  0.5677030000000  0.4516900000000 1.0
C      1  0.4390320000000  0.4450400000000  0.4336000000000 1.0
C      1  0.4749840000000  0.6020960000000  0.5258980000000 1.0
C      1  0.5108410000000  0.4160040000000  0.4388550000000 1.0
C      1  0.5648420000000  0.4477990000000  0.5028220000000 1.0
C      1  0.5114970000000  0.6044530000000  0.5114770000000 1.0
C      1  0.4421150000000  0.4909190000000  0.4651030000000 1.0
C      1  0.4768760000000  0.6139690000000  0.4893710000000 1.0
C      1  0.5726520000000  0.5718030000000  0.5336310000000 1.0
C      1  0.4229890000000  0.5034370000000  0.5625290000000 1.0
C      1  0.4198780000000  0.5323210000000  0.5694730000000 1.0
C      1  0.4949810000000  0.4923390000000  0.3923890000000 1.0
C      1  0.4685290000000  0.4147320000000  0.4620400000000 1.0
C      1  0.4933730000000  0.4659030000000  0.4534020000000 1.0
C      1  0.5648970000000  0.4943780000000  0.5110080000000 1.0
C      1  0.4848850000000  0.5828910000000  0.4541720000000 1.0
C      1  0.4815590000000  0.4947390000000  0.4922460000000 1.0
C      1  0.4254310000000  0.5647420000000  0.4764920000000 1.0
C      1  0.4641240000000  0.4531740000000  0.4955460000000 1.0
C      1  0.5390700000000  0.4981340000000  0.5868740000000 1.0
C      1  0.4757450000000  0.5720660000000  0.5672760000000 1.0
C      1  0.4248170000000  0.4379380000000  0.4565940000000 1.0
C      1  0.5923320000000  0.5177770000000  0.5455390000000 1.0
C      1  0.4918430000000  0.4905050000000  0.6128550000000 1.0
C      1  0.5626470000000  0.5578320000000  0.5589490000000 1.0
C      1  0.4483680000000  0.4717470000000  0.5960750000000 1.0
C      1  0.4557440000000  0.4679680000000  0.4013120000000 1.0
C      1  0.4803800000000  0.5658530000000  0.5010880000000 1.0
C      1  0.5582720000000  0.5308340000000  0.4632960000000 1.0
C      1  0.5297570000000  0.5686960000000  0.4343520000000 1.0
C      1  0.4384070000000  0.5219300000000  0.4619190000000 1.0
C      1  0.5149300000000  0.5304980000000  0.6061140000000 1.0
C      1  0.5851840000000  0.4735100000000  0.5695040000000 1.0
C      1  0.5357900000000  0.4342620000000  0.4421560000000 1.0
C      1  0.4731650000000  0.4684980000000  0.6127430000000 1.0
C      1  0.5418150000000  0.4779820000000  0.4696130000000 1.0
C      1  0.5497080000000  0.4647120000000  0.4013390000000 1.0
C      1  0.4069140000000  0.4678440000000  0.5257140000000 1.0
C      1  0.4367840000000  0.5522680000000  0.4270940000000 1.0
C      1  0.4212240000000  0.5297250000000  0.4367880000000 1.0
C      1  0.5389980000000  0.4479580000000  0.5783370000000 1.0
C      1  0.5151480000000  0.3834340000000  0.5216860000000 1.0
C      1  0.4153100000000  0.4964870000000  0.5316610000000 1.0
C      1  0.4563650000000  0.5921530000000  0.4511590000000 1.0
C      1  0.4506940000000  0.6061150000000  0.4775350000000 1.0
C      1  0.5384820000000  0.5148990000000  0.6110690000000 1.0
C      1  0.4423320000000  0.5431820000000  0.5855470000000 1.0
C      1  0.5016070000000  0.5413440000000  0.3918220000000 1.0
C      1  0.4244570000000  0.5359090000000  0.4848220000000 1.0
C      1  0.5363670000000  0.5665960000000  0.5034780000000 1.0
C      1  0.5342030000000  0.6048970000000  0.5319640000000 1.0
C      1  0.5433980000000  0.4297820000000  0.5122280000000 1.0
C      1  0.4846350000000  0.5571440000000  0.4074700000000 1.0
C      1  0.5493960000000  0.5436180000000  0.5194880000000 1.0
C      1  0.4908950000000  0.3997730000000  0.5080870000000 1.0
C      1  0.4889370000000  0.5937380000000  0.5523480000000 1.0
C      1  0.5247020000000  0.4767880000000  0.5365240000000 1.0
C      1  0.5244120000000  0.5090150000000  0.4996850000000 1.0
C      1  0.5532200000000  0.5880020000000  0.5173220000000 1.0
C      1  0.5168040000000  0.4540400000000  0.5588970000000 1.0
C      1  0.5057720000000  0.4253410000000  0.5486600000000 1.0
C      1  0.5942360000000  0.4896910000000  0.5005690000000 1.0
C      1  0.4795520000000  0.4172150000000  0.5612550000000 1.0
C      1  0.5216550000000  0.3987460000000  0.5482010000000 1.0
C      1  0.5141490000000  0.5472490000000  0.4789740000000 1.0
C      1  0.5743710000000  0.4391100000000  0.4762530000000 1.0
C      1  0.5243160000000  0.4591830000000  0.4539350000000 1.0
C      1  0.5735910000000  0.4913660000000  0.4315620000000 1.0
C      1  0.4114700000000  0.4520880000000  0.5476530000000 1.0
C      1  0.6037020000000  0.5328590000000  0.5234360000000 1.0
C      1  0.5691910000000  0.4831710000000  0.4580400000000 1.0
C      1  0.5129240000000  0.5157950000000  0.3925070000000 1.0
C      1  0.4708850000000  0.4869400000000  0.5602360000000 1.0
C      1  0.5856420000000  0.5570380000000  0.4860230000000 1.0
C      1  0.4587940000000  0.4766670000000  0.4433260000000 1.0
C      1  0.4630010000000  0.5220210000000  0.5892260000000 1.0
C      1  0.4290840000000  0.4282900000000  0.5012480000000 1.0
C      1  0.5241830000000  0.4532830000000  0.3943250000000 1.0
C      1  0.5512590000000  0.5106010000000  0.5615390000000 1.0
C      1  0.5227820000000  0.5018670000000  0.4713420000000 1.0
C      1  0.5099580000000  0.4958940000000  0.5792810000000 1.0
C      1  0.3989070000000  0.5220840000000  0.4898160000000 1.0
C      1  0.4658860000000  0.4940480000000  0.3868010000000 1.0
C      1  0.6042450000000  0.5259670000000  0.4508110000000 1.0
C      1  0.5399850000000  0.3870380000000  0.5037590000000 1.0
C      1  0.4461840000000  0.4466830000000  0.5792530000000 1.0
C      1  0.5694340000000  0.5736730000000  0.4653650000000 1.0
C      1  0.4843940000000  0.5157840000000  0.4452380000000 1.0
C      1  0.5784540000000  0.5341470000000  0.4421990000000 1.0
C      1  0.4953090000000  0.4688620000000  0.5745760000000 1.0
C      1  0.4974990000000  0.6051280000000  0.4696370000000 1.0
C      1  0.4846380000000  0.5576940000000  0.4723990000000 1.0
C      1  0.5521850000000  0.5201770000000  0.4999140000000 1.0
C      1  0.4004110000000  0.4804360000000  0.4557870000000 1.0
C      1  0.5386250000000  0.5169220000000  0.4063180000000 1.0
C      1  0.5582580000000  0.4043230000000  0.5200120000000 1.0
C      1  0.4530850000000  0.5200850000000  0.3942550000000 1.0
C      1  0.5058080000000  0.4710990000000  0.5115470000000 1.0
C      1  0.3922490000000  0.5012510000000  0.4722790000000 1.0
C      1  0.5084370000000  0.5315920000000  0.4328530000000 1.0
C      1  0.6038140000000  0.4735590000000  0.5235470000000 1.0
C      1  0.5119250000000  0.3976320000000  0.4623850000000 1.0
C      1  0.4594850000000  0.5423310000000  0.4114930000000 1.0
C      1  0.4147850000000  0.4864150000000  0.4303970000000 1.0
C      1  0.4658790000000  0.3953880000000  0.5500100000000 1.0
C      1  0.4908610000000  0.5471740000000  0.5670810000000 1.0
C      1  0.5013770000000  0.4663190000000  0.4042990000000 1.0
C      1  0.4120310000000  0.4589740000000  0.4712630000000 1.0
C      1  0.4578060000000  0.4733030000000  0.5376860000000 1.0
C      1  0.5051380000000  0.4260130000000  0.5171130000000 1.0
C      1  0.4642920000000  0.4013330000000  0.5229750000000 1.0
C      1  0.4688790000000  0.4295230000000  0.5855060000000 1.0
C      1  0.4535240000000  0.4833190000000  0.4918180000000 1.0
C      1  0.5527500000000  0.4715810000000  0.5889010000000 1.0
C      1  0.4485960000000  0.5685220000000  0.5727200000000 1.0
C      1  0.5202930000000  0.5894580000000  0.5538390000000 1.0
C      1  0.4873960000000  0.4458290000000  0.4758000000000 1.0
C      1  0.5284690000000  0.5288030000000  0.4585590000000 1.0
C      1  0.5867530000000  0.4494740000000  0.5245610000000 1.0
C      1  0.5362350000000  0.5670770000000  0.5706940000000 1.0
C      1  0.5066560000000  0.5731270000000  0.5146000000000 1.0
C      1  0.5116870000000  0.5071330000000  0.5421440000000 1.0
C      1  0.5736420000000  0.5302670000000  0.5647140000000 1.0
C      1  0.4676940000000  0.5335530000000  0.4615870000000 1.0
C      1  0.5247990000000  0.6000410000000  0.4773940000000 1.0
C      1  0.4493320000000  0.4963470000000  0.5787810000000 1.0
C      1  0.5906080000000  0.5575100000000  0.5149630000000 1.0
C      1  0.5520860000000  0.4398700000000  0.4174800000000 1.0
C      1  0.6050040000000  0.5360080000000  0.4774550000000 1.0
C      1  0.5484680000000  0.4720020000000  0.4990370000000 1.0
C      1  0.5063380000000  0.5300620000000  0.5044160000000 1.0
C      1  0.4829920000000  0.4271670000000  0.4357000000000 1.0
C      1  0.5067470000000  0.5549290000000  0.5405980000000 1.0
C      1  0.5353430000000  0.4032910000000  0.4784710000000 1.0
C      1  0.5908250000000  0.4734260000000  0.4747050000000 1.0
C      1  0.5128930000000  0.4467850000000  0.4947370000000 1.0
C      1  0.4625020000000  0.5229500000000  0.5279330000000 1.0
C      1  0.4500340000000  0.4280440000000  0.5219300000000 1.0
C      1  0.4668720000000  0.5010390000000  0.4252370000000 1.0
C      1  0.5422090000000  0.5447710000000  0.4193240000000 1.0
C      1  0.5995770000000  0.4893910000000  0.5490610000000 1.0
C      1  0.4134270000000  0.4535410000000  0.5002270000000 1.0
C      1  0.4870530000000  0.3969640000000  0.4776280000000 1.0
C      1  0.4442950000000  0.4964210000000  0.5209180000000 1.0
C      1  0.4570250000000  0.5772670000000  0.5157250000000 1.0
END
