TITL C-950529-3362-571 -3.82220912814874e-06 125000 -802.079912440428 0 0 129 (C1) n - 1
REM
REM in /home/bkarasulu/work/CARBON/AIRSS/Generating-Clusters/EDIP-Nigel-Params/with-SteepDescent/Only-C1/SD-CG/HFTN-CG
REM
REM
REM
REM
REM
REM ./C.cell (11c1c37f851c82e70ff6c80c92926a4b)
REM
REM compiler GCC version 9.2.1 20190827 (Red Hat 9.2.1-1)
REM options -cpp -mtune=generic -march=x86-64 -g -O0 -fpre-include=/usr/include/finclude/math-vector-fortran.h
REM seed 1615374755 263284783 1791416522 -1878979812 2027614412 -438308293 1211257389 -820957650 686073143 -1752261951 -584371172 -49456229 -918119862 -1335797944 -657388434 1706433314 1840711615 -819952144 560957189 -54083945 613020010 2062415616 412658367 1748950357 1858829565 1484306317 386857137 909576152 -591972062 782310217 947193127 -333530198 -475270632
REM
CELL 1.54180   50.00000   50.00000   50.00000   90.00000   90.00000   90.00000
LATT -1
SFAC C  
C      1  0.5626590000000  0.5655230000000  0.4447910000000 1.0
C      1  0.4424640000000  0.5163570000000  0.4260980000000 1.0
C      1  0.4774160000000  0.5329870000000  0.4718140000000 1.0
C      1  0.4220080000000  0.5251490000000  0.4668210000000 1.0
C      1  0.5022430000000  0.4952830000000  0.4516320000000 1.0
C      1  0.4261680000000  0.4956970000000  0.4667760000000 1.0
C      1  0.5466340000000  0.5633880000000  0.5058500000000 1.0
C      1  0.4822150000000  0.3977110000000  0.5261750000000 1.0
C      1  0.5489790000000  0.5402470000000  0.5754740000000 1.0
C      1  0.5229080000000  0.4753650000000  0.4660050000000 1.0
C      1  0.4961780000000  0.4416030000000  0.5851490000000 1.0
C      1  0.5081300000000  0.4284300000000  0.4386850000000 1.0
C      1  0.4463060000000  0.5674690000000  0.5232300000000 1.0
C      1  0.4744500000000  0.5493880000000  0.4455450000000 1.0
C      1  0.5181760000000  0.5843210000000  0.4413270000000 1.0
C      1  0.4921010000000  0.5939570000000  0.5327540000000 1.0
C      1  0.4315880000000  0.5386210000000  0.4427050000000 1.0
C      1  0.4950510000000  0.5503250000000  0.5157330000000 1.0
C      1  0.5844710000000  0.4859770000000  0.4725040000000 1.0
C      1  0.5819860000000  0.5177970000000  0.5118960000000 1.0
C      1  0.4420060000000  0.4350510000000  0.5338580000000 1.0
C      1  0.5129350000000  0.5254870000000  0.5152300000000 1.0
C      1  0.4584070000000  0.5282410000000  0.5450980000000 1.0
C      1  0.4956810000000  0.5551540000000  0.4822210000000 1.0
C      1  0.4708110000000  0.5103310000000  0.5851300000000 1.0
C      1  0.5337460000000  0.4549730000000  0.5683830000000 1.0
C      1  0.5401810000000  0.4912200000000  0.5967210000000 1.0
C      1  0.5801530000000  0.4599600000000  0.4830370000000 1.0
C      1  0.4461940000000  0.4899210000000  0.5171820000000 1.0
C      1  0.4634030000000  0.4287930000000  0.5133410000000 1.0
C      1  0.4938160000000  0.4961120000000  0.5925680000000 1.0
C      1  0.4091180000000  0.4545900000000  0.4721340000000 1.0
C      1  0.5633520000000  0.4862680000000  0.5592220000000 1.0
C      1  0.4181610000000  0.4503240000000  0.5249630000000 1.0
C      1  0.4887300000000  0.5984660000000  0.4778680000000 1.0
C      1  0.5154060000000  0.4679410000000  0.4108890000000 1.0
C      1  0.5049790000000  0.4159180000000  0.5725480000000 1.0
C      1  0.5200700000000  0.5648300000000  0.4193230000000 1.0
C      1  0.4022010000000  0.4960740000000  0.5421880000000 1.0
C      1  0.4124650000000  0.5181650000000  0.5119190000000 1.0
C      1  0.4299750000000  0.5661230000000  0.5476360000000 1.0
C      1  0.4934690000000  0.5036550000000  0.5196910000000 1.0
C      1  0.4584110000000  0.5158370000000  0.4035080000000 1.0
C      1  0.4375070000000  0.4920060000000  0.4403190000000 1.0
C      1  0.5481840000000  0.4777220000000  0.5119020000000 1.0
C      1  0.4663410000000  0.5455460000000  0.5233960000000 1.0
C      1  0.4858180000000  0.4061810000000  0.5530880000000 1.0
C      1  0.5779550000000  0.5344220000000  0.5374240000000 1.0
C      1  0.5861450000000  0.5458480000000  0.4858670000000 1.0
C      1  0.5213800000000  0.5364990000000  0.5833500000000 1.0
C      1  0.5742380000000  0.4635440000000  0.5123280000000 1.0
C      1  0.4561120000000  0.4550950000000  0.4796740000000 1.0
C      1  0.4294670000000  0.5380230000000  0.5523870000000 1.0
C      1  0.4248810000000  0.4780500000000  0.5355540000000 1.0
C      1  0.5316600000000  0.4171350000000  0.5613540000000 1.0
C      1  0.5069730000000  0.4501480000000  0.4780360000000 1.0
C      1  0.5359100000000  0.5371640000000  0.4945940000000 1.0
C      1  0.5378470000000  0.5667530000000  0.5339910000000 1.0
C      1  0.4431990000000  0.5774100000000  0.4760910000000 1.0
C      1  0.4802610000000  0.5019470000000  0.4730760000000 1.0
C      1  0.5918800000000  0.4893980000000  0.5209760000000 1.0
C      1  0.4997620000000  0.4045450000000  0.5043970000000 1.0
C      1  0.4382410000000  0.4731450000000  0.5619230000000 1.0
C      1  0.5921350000000  0.4919470000000  0.5501920000000 1.0
C      1  0.5303520000000  0.5099380000000  0.4109570000000 1.0
C      1  0.4951100000000  0.4014660000000  0.4760170000000 1.0
C      1  0.5675690000000  0.4716560000000  0.4320220000000 1.0
C      1  0.4526160000000  0.4482160000000  0.5584560000000 1.0
C      1  0.5085070000000  0.6136270000000  0.5210170000000 1.0
C      1  0.4823140000000  0.4518380000000  0.5592660000000 1.0
C      1  0.5374120000000  0.5715990000000  0.4596730000000 1.0
C      1  0.5587360000000  0.5183570000000  0.4876630000000 1.0
C      1  0.4937510000000  0.4873190000000  0.4974530000000 1.0
C      1  0.4831700000000  0.5028120000000  0.4023010000000 1.0
C      1  0.4752580000000  0.5338060000000  0.5682390000000 1.0
C      1  0.5494980000000  0.5411630000000  0.5456300000000 1.0
C      1  0.5656090000000  0.5167030000000  0.5830350000000 1.0
C      1  0.5488960000000  0.5554330000000  0.4196820000000 1.0
C      1  0.4295660000000  0.5634610000000  0.4979500000000 1.0
C      1  0.5671160000000  0.5188500000000  0.4440900000000 1.0
C      1  0.5408490000000  0.4908670000000  0.5380380000000 1.0
C      1  0.5172960000000  0.5230590000000  0.4453090000000 1.0
C      1  0.5224910000000  0.5461240000000  0.4695410000000 1.0
C      1  0.4416830000000  0.4641710000000  0.4331970000000 1.0
C      1  0.5006820000000  0.5485420000000  0.5653920000000 1.0
C      1  0.5370730000000  0.4265080000000  0.5346080000000 1.0
C      1  0.5245530000000  0.4645300000000  0.5950320000000 1.0
C      1  0.4956450000000  0.4575500000000  0.5059730000000 1.0
C      1  0.5079690000000  0.6100880000000  0.4943040000000 1.0
C      1  0.5195290000000  0.4741430000000  0.5493540000000 1.0
C      1  0.5738220000000  0.5679820000000  0.4992330000000 1.0
C      1  0.5642010000000  0.4343810000000  0.5206220000000 1.0
C      1  0.4512730000000  0.4187000000000  0.4874890000000 1.0
C      1  0.5315990000000  0.5192990000000  0.5366900000000 1.0
C      1  0.5477330000000  0.4886810000000  0.4842210000000 1.0
C      1  0.4062790000000  0.5249100000000  0.5389420000000 1.0
C      1  0.4348300000000  0.4479720000000  0.4585940000000 1.0
C      1  0.5015200000000  0.5414350000000  0.4250350000000 1.0
C      1  0.4184920000000  0.5373010000000  0.4921340000000 1.0
C      1  0.5527830000000  0.5257680000000  0.4197030000000 1.0
C      1  0.4791230000000  0.4344350000000  0.4419390000000 1.0
C      1  0.5788540000000  0.4928770000000  0.4459750000000 1.0
C      1  0.5236790000000  0.4525750000000  0.4338460000000 1.0
C      1  0.4909180000000  0.4803970000000  0.4215690000000 1.0
C      1  0.4466670000000  0.5643350000000  0.4474090000000 1.0
C      1  0.4095550000000  0.4461520000000  0.4987060000000 1.0
C      1  0.4689780000000  0.4572060000000  0.4223450000000 1.0
C      1  0.4633120000000  0.5950280000000  0.4898720000000 1.0
C      1  0.5256610000000  0.4161630000000  0.5096340000000 1.0
C      1  0.4687790000000  0.4104040000000  0.4652430000000 1.0
C      1  0.4507730000000  0.4858200000000  0.4863340000000 1.0
C      1  0.5898870000000  0.5204340000000  0.5610420000000 1.0
C      1  0.5518370000000  0.4515010000000  0.4431140000000 1.0
C      1  0.5070330000000  0.5668440000000  0.5388150000000 1.0
C      1  0.5564720000000  0.4469670000000  0.4720250000000 1.0
C      1  0.4921930000000  0.5824190000000  0.4539200000000 1.0
C      1  0.4012500000000  0.4811540000000  0.4688730000000 1.0
C      1  0.4811900000000  0.4532830000000  0.4643890000000 1.0
C      1  0.5624400000000  0.4593410000000  0.5691850000000 1.0
C      1  0.5051280000000  0.5215640000000  0.4027380000000 1.0
C      1  0.5165630000000  0.4166790000000  0.4637220000000 1.0
C      1  0.4945670000000  0.4380940000000  0.5321180000000 1.0
C      1  0.5182940000000  0.5098850000000  0.5961550000000 1.0
C      1  0.5492760000000  0.4258520000000  0.4921800000000 1.0
C      1  0.4638200000000  0.5925730000000  0.5198020000000 1.0
C      1  0.5779940000000  0.5427970000000  0.4567850000000 1.0
C      1  0.4899390000000  0.4818100000000  0.5575370000000 1.0
C      1  0.4680780000000  0.4999250000000  0.5357850000000 1.0
C      1  0.4502580000000  0.4936700000000  0.5765380000000 1.0
END
