TITL C-951347-9520-50 -9.97057523756441e-07 125000 -819.137661676123 0 0 132 (C1) n - 1
REM
REM in /home/bkarasulu/work/CARBON/AIRSS/Generating-Clusters/EDIP-Nigel-Params/with-SteepDescent/Only-C1/SD-CG/HFTN-CG
REM
REM
REM
REM
REM
REM ./C.cell (11c1c37f851c82e70ff6c80c92926a4b)
REM
REM compiler GCC version 9.2.1 20190827 (Red Hat 9.2.1-1)
REM options -cpp -mtune=generic -march=x86-64 -g -O0 -fpre-include=/usr/include/finclude/math-vector-fortran.h
REM seed -18730147 -2103110784 -400850909 1536255343 1078300727 -720770137 1855523496 1124189799 -1945544439 2022729907 1064204152 -2093605570 -2100844661 901497532 -2064170965 1861260612 363400590 -1779622783 -478831010 1058500748 570186310 -1129352281 -416441537 -1828985188 64216477 -678625057 -374828146 1637465236 137085117 1247568929 1318187030 1186999769 -1577816389
REM
CELL 1.54180   50.00000   50.00000   50.00000   90.00000   90.00000   90.00000
LATT -1
SFAC C  
C      1  0.5343430000000  0.4661520000000  0.4682960000000 1.0
C      1  0.5830890000000  0.5306630000000  0.5290890000000 1.0
C      1  0.5524030000000  0.5650980000000  0.5726420000000 1.0
C      1  0.5118620000000  0.6015740000000  0.5123100000000 1.0
C      1  0.4532530000000  0.4695040000000  0.5899620000000 1.0
C      1  0.5348570000000  0.4277670000000  0.5103070000000 1.0
C      1  0.4489010000000  0.4980770000000  0.4582930000000 1.0
C      1  0.4060100000000  0.4808300000000  0.4684610000000 1.0
C      1  0.4859640000000  0.4401670000000  0.5701320000000 1.0
C      1  0.4778630000000  0.5001090000000  0.5603530000000 1.0
C      1  0.4606220000000  0.5459170000000  0.4566190000000 1.0
C      1  0.5245210000000  0.4654560000000  0.5715490000000 1.0
C      1  0.5636900000000  0.5035760000000  0.4279220000000 1.0
C      1  0.5186670000000  0.5093800000000  0.4435940000000 1.0
C      1  0.4916330000000  0.5128130000000  0.4785630000000 1.0
C      1  0.5782870000000  0.5580610000000  0.5222640000000 1.0
C      1  0.4915790000000  0.5193420000000  0.4319540000000 1.0
C      1  0.5429770000000  0.4353900000000  0.5376260000000 1.0
C      1  0.5434760000000  0.5202330000000  0.4704750000000 1.0
C      1  0.4057580000000  0.5292300000000  0.4785840000000 1.0
C      1  0.4749550000000  0.4613660000000  0.4407130000000 1.0
C      1  0.4936950000000  0.5479650000000  0.4226400000000 1.0
C      1  0.4467040000000  0.5581700000000  0.5451570000000 1.0
C      1  0.5567910000000  0.4152590000000  0.4948760000000 1.0
C      1  0.5487800000000  0.5133990000000  0.5018080000000 1.0
C      1  0.4399350000000  0.5873810000000  0.5128410000000 1.0
C      1  0.4730120000000  0.5181170000000  0.4560680000000 1.0
C      1  0.4498240000000  0.4268300000000  0.4838170000000 1.0
C      1  0.4844730000000  0.4733430000000  0.5196950000000 1.0
C      1  0.4859020000000  0.5414780000000  0.5245930000000 1.0
C      1  0.4847620000000  0.5355440000000  0.5853360000000 1.0
C      1  0.4937960000000  0.4415180000000  0.5402740000000 1.0
C      1  0.4292540000000  0.4338620000000  0.5006590000000 1.0
C      1  0.4996300000000  0.4604350000000  0.5863690000000 1.0
C      1  0.5416770000000  0.5421250000000  0.4147920000000 1.0
C      1  0.4324640000000  0.4827070000000  0.5735110000000 1.0
C      1  0.5074930000000  0.5194100000000  0.5254920000000 1.0
C      1  0.4054540000000  0.5081770000000  0.4579440000000 1.0
C      1  0.5718910000000  0.5895790000000  0.4916770000000 1.0
C      1  0.5213500000000  0.4701200000000  0.4196430000000 1.0
C      1  0.4573090000000  0.5287410000000  0.5760730000000 1.0
C      1  0.5467970000000  0.5265750000000  0.5966210000000 1.0
C      1  0.4172100000000  0.5551760000000  0.4700020000000 1.0
C      1  0.4383650000000  0.4815590000000  0.4141730000000 1.0
C      1  0.4998730000000  0.5573610000000  0.5708050000000 1.0
C      1  0.4388080000000  0.4712120000000  0.5462900000000 1.0
C      1  0.5271240000000  0.5071220000000  0.5947200000000 1.0
C      1  0.5169340000000  0.5798650000000  0.5294770000000 1.0
C      1  0.5661710000000  0.5648230000000  0.4482490000000 1.0
C      1  0.5195700000000  0.4241380000000  0.4420040000000 1.0
C      1  0.5109330000000  0.4898920000000  0.4684300000000 1.0
C      1  0.4587660000000  0.5542940000000  0.4857630000000 1.0
C      1  0.5057710000000  0.5803180000000  0.4679020000000 1.0
C      1  0.4665260000000  0.4346450000000  0.5238990000000 1.0
C      1  0.4940180000000  0.4240550000000  0.4577240000000 1.0
C      1  0.5458990000000  0.5754840000000  0.4918920000000 1.0
C      1  0.4418850000000  0.5790640000000  0.4849350000000 1.0
C      1  0.4455000000000  0.4401330000000  0.5471830000000 1.0
C      1  0.5836470000000  0.4588220000000  0.4738080000000 1.0
C      1  0.5471380000000  0.5544370000000  0.4686310000000 1.0
C      1  0.5186240000000  0.5554310000000  0.4586960000000 1.0
C      1  0.4924980000000  0.5660210000000  0.5425150000000 1.0
C      1  0.3917380000000  0.5237920000000  0.5023960000000 1.0
C      1  0.5051760000000  0.5382930000000  0.4829830000000 1.0
C      1  0.5672110000000  0.5214710000000  0.5523840000000 1.0
C      1  0.5892300000000  0.5677450000000  0.4970360000000 1.0
C      1  0.4273230000000  0.4548790000000  0.4516680000000 1.0
C      1  0.5410370000000  0.4882160000000  0.5183650000000 1.0
C      1  0.5271820000000  0.4954130000000  0.5672540000000 1.0
C      1  0.5792470000000  0.5125000000000  0.5051850000000 1.0
C      1  0.4285080000000  0.5155770000000  0.4404070000000 1.0
C      1  0.4665920000000  0.4043820000000  0.4913060000000 1.0
C      1  0.4641540000000  0.4877370000000  0.5365490000000 1.0
C      1  0.5673030000000  0.4697410000000  0.5604180000000 1.0
C      1  0.4804830000000  0.4838580000000  0.5877310000000 1.0
C      1  0.5051710000000  0.5088070000000  0.5528450000000 1.0
C      1  0.5376730000000  0.4046180000000  0.4508860000000 1.0
C      1  0.4688610000000  0.4654740000000  0.4934180000000 1.0
C      1  0.5314040000000  0.4512670000000  0.4412820000000 1.0
C      1  0.4887010000000  0.4664910000000  0.4681470000000 1.0
C      1  0.5677230000000  0.4506350000000  0.5374210000000 1.0
C      1  0.4651790000000  0.5804640000000  0.5402490000000 1.0
C      1  0.4802460000000  0.5012570000000  0.4114380000000 1.0
C      1  0.4329610000000  0.5446840000000  0.4470770000000 1.0
C      1  0.5212980000000  0.4521620000000  0.5457030000000 1.0
C      1  0.5871160000000  0.4835370000000  0.5099820000000 1.0
C      1  0.5738250000000  0.4344630000000  0.4834060000000 1.0
C      1  0.4865930000000  0.5894580000000  0.4494630000000 1.0
C      1  0.5836680000000  0.5472880000000  0.4348730000000 1.0
C      1  0.4757820000000  0.4074590000000  0.5186470000000 1.0
C      1  0.4906230000000  0.4730840000000  0.4174870000000 1.0
C      1  0.4980300000000  0.5126860000000  0.6004190000000 1.0
C      1  0.5396720000000  0.3977530000000  0.4780860000000 1.0
C      1  0.4232680000000  0.5139160000000  0.5376120000000 1.0
C      1  0.5048410000000  0.4053700000000  0.5180170000000 1.0
C      1  0.4075610000000  0.5039620000000  0.5148270000000 1.0
C      1  0.5617940000000  0.4649720000000  0.5110010000000 1.0
C      1  0.4474050000000  0.4734310000000  0.4406160000000 1.0
C      1  0.4137580000000  0.4554400000000  0.5083290000000 1.0
C      1  0.5257100000000  0.5649340000000  0.5783680000000 1.0
C      1  0.4440030000000  0.4306070000000  0.4559730000000 1.0
C      1  0.4353740000000  0.5115060000000  0.5650680000000 1.0
C      1  0.5226700000000  0.5940360000000  0.4876260000000 1.0
C      1  0.5254390000000  0.4535030000000  0.4961210000000 1.0
C      1  0.4700410000000  0.4321820000000  0.4411030000000 1.0
C      1  0.5343200000000  0.4975160000000  0.4213990000000 1.0
C      1  0.4859530000000  0.5543660000000  0.4979370000000 1.0
C      1  0.5086530000000  0.4907500000000  0.5125650000000 1.0
C      1  0.5208810000000  0.5559830000000  0.4277030000000 1.0
C      1  0.5128680000000  0.3940480000000  0.4915320000000 1.0
C      1  0.5525990000000  0.4948540000000  0.5497910000000 1.0
C      1  0.5620410000000  0.4776260000000  0.4692880000000 1.0
C      1  0.5514080000000  0.4577800000000  0.5816730000000 1.0
C      1  0.4898700000000  0.3990390000000  0.4736590000000 1.0
C      1  0.6034290000000  0.4712460000000  0.4900440000000 1.0
C      1  0.4574990000000  0.4427580000000  0.5751170000000 1.0
C      1  0.4511150000000  0.5057130000000  0.4105400000000 1.0
C      1  0.4962530000000  0.4376320000000  0.4938770000000 1.0
C      1  0.5410770000000  0.5624770000000  0.5196710000000 1.0
C      1  0.4759020000000  0.5650200000000  0.4389170000000 1.0
C      1  0.4473780000000  0.4869340000000  0.4875500000000 1.0
C      1  0.4279900000000  0.5626150000000  0.5232910000000 1.0
C      1  0.5675040000000  0.5309100000000  0.4176700000000 1.0
C      1  0.4574190000000  0.5311040000000  0.5320740000000 1.0
C      1  0.4136190000000  0.4589030000000  0.5360180000000 1.0
C      1  0.4185830000000  0.4819780000000  0.4955970000000 1.0
C      1  0.5329860000000  0.5334440000000  0.5172030000000 1.0
C      1  0.5612510000000  0.5386440000000  0.5759610000000 1.0
C      1  0.4394090000000  0.5397640000000  0.5054080000000 1.0
C      1  0.5675060000000  0.5053330000000  0.4591980000000 1.0
C      1  0.5888280000000  0.5200940000000  0.4774820000000 1.0
C      1  0.5911270000000  0.5491260000000  0.4729690000000 1.0
END
