TITL C-950535-5962-87 -2.46336709123268e-08 125000 -1180.28071409129 0 0 188 (C1) n - 1
REM
REM in /home/bkarasulu/work/CARBON/AIRSS/Generating-Clusters/EDIP-Nigel-Params/with-SteepDescent/Only-C1/SD-CG/HFTN-CG
REM
REM
REM
REM
REM
REM ./C.cell (11c1c37f851c82e70ff6c80c92926a4b)
REM
REM compiler GCC version 9.2.1 20190827 (Red Hat 9.2.1-1)
REM options -cpp -mtune=generic -march=x86-64 -g -O0 -fpre-include=/usr/include/finclude/math-vector-fortran.h
REM seed 250923253 294675695 1064715503 1070456763 693667955 1167514567 1967825855 -2049416791 -234482252 1706708567 -1791097701 549359239 -454588060 -1504096375 678076716 1828141341 -2075193726 -1091640146 1370759066 -1346072068 -1720094262 -78684520 8022583 -2128078977 524312156 -561552383 -968775666 -600415649 1993162516 2135422713 -1443642767 1155315281 1185755344
REM
CELL 1.54180   50.00000   50.00000   50.00000   90.00000   90.00000   90.00000
LATT -1
SFAC C  
C      1  0.4737820000000  0.4162220000000  0.5599660000000 1.0
C      1  0.5676590000000  0.4266590000000  0.4597710000000 1.0
C      1  0.4258100000000  0.5488850000000  0.4231610000000 1.0
C      1  0.5224230000000  0.5087850000000  0.5094230000000 1.0
C      1  0.5365530000000  0.4343510000000  0.4139370000000 1.0
C      1  0.4367250000000  0.4822620000000  0.4612610000000 1.0
C      1  0.5575210000000  0.4009590000000  0.4711090000000 1.0
C      1  0.4070150000000  0.5171060000000  0.5563280000000 1.0
C      1  0.5247230000000  0.5105150000000  0.5673180000000 1.0
C      1  0.4604870000000  0.4291090000000  0.4507680000000 1.0
C      1  0.5042530000000  0.3799390000000  0.5149980000000 1.0
C      1  0.5727890000000  0.4776650000000  0.5742340000000 1.0
C      1  0.4969230000000  0.5487380000000  0.4637180000000 1.0
C      1  0.5181920000000  0.4933660000000  0.4824270000000 1.0
C      1  0.5879570000000  0.5027410000000  0.4202110000000 1.0
C      1  0.4779450000000  0.5673130000000  0.5775530000000 1.0
C      1  0.5169200000000  0.4625310000000  0.4913370000000 1.0
C      1  0.5201420000000  0.4265800000000  0.4539370000000 1.0
C      1  0.5869950000000  0.4469240000000  0.4711230000000 1.0
C      1  0.4863710000000  0.5285420000000  0.4831480000000 1.0
C      1  0.6059320000000  0.4901300000000  0.4430830000000 1.0
C      1  0.5199920000000  0.5407940000000  0.5685410000000 1.0
C      1  0.5594680000000  0.5419940000000  0.5977430000000 1.0
C      1  0.4728390000000  0.5675150000000  0.4985520000000 1.0
C      1  0.5674270000000  0.4947760000000  0.4711520000000 1.0
C      1  0.4329700000000  0.4084810000000  0.5247390000000 1.0
C      1  0.4034590000000  0.5399680000000  0.5385020000000 1.0
C      1  0.5135890000000  0.5257670000000  0.3874050000000 1.0
C      1  0.4813570000000  0.5530140000000  0.4150650000000 1.0
C      1  0.4856580000000  0.4601270000000  0.5449660000000 1.0
C      1  0.4560500000000  0.4319810000000  0.5782160000000 1.0
C      1  0.4956290000000  0.4570860000000  0.6011270000000 1.0
C      1  0.4310520000000  0.4199010000000  0.4949570000000 1.0
C      1  0.5446380000000  0.5824880000000  0.5624400000000 1.0
C      1  0.5865450000000  0.4338580000000  0.5184340000000 1.0
C      1  0.4718850000000  0.5392640000000  0.5380600000000 1.0
C      1  0.5350610000000  0.5101290000000  0.4004360000000 1.0
C      1  0.4555770000000  0.4795140000000  0.6010140000000 1.0
C      1  0.4063770000000  0.4588130000000  0.5044710000000 1.0
C      1  0.4220140000000  0.4710060000000  0.4172960000000 1.0
C      1  0.4266260000000  0.5545630000000  0.5264770000000 1.0
C      1  0.5024460000000  0.4943800000000  0.5533060000000 1.0
C      1  0.5573650000000  0.4385540000000  0.4345880000000 1.0
C      1  0.5472770000000  0.4619570000000  0.5054480000000 1.0
C      1  0.5839640000000  0.5429450000000  0.4500990000000 1.0
C      1  0.5884570000000  0.5347520000000  0.5020670000000 1.0
C      1  0.5631580000000  0.4870010000000  0.4997350000000 1.0
C      1  0.5476450000000  0.4326010000000  0.5458660000000 1.0
C      1  0.4881920000000  0.4588590000000  0.4327580000000 1.0
C      1  0.5237780000000  0.4847780000000  0.4111790000000 1.0
C      1  0.4718360000000  0.4852360000000  0.4963150000000 1.0
C      1  0.5326880000000  0.5587270000000  0.4096680000000 1.0
C      1  0.4919990000000  0.5903760000000  0.5339420000000 1.0
C      1  0.4589160000000  0.5932230000000  0.4468430000000 1.0
C      1  0.4771980000000  0.4519280000000  0.4587610000000 1.0
C      1  0.5762480000000  0.5303860000000  0.4245330000000 1.0
C      1  0.5315100000000  0.4964880000000  0.5942870000000 1.0
C      1  0.3996410000000  0.4476270000000  0.5327590000000 1.0
C      1  0.5396370000000  0.4440170000000  0.5877670000000 1.0
C      1  0.5817530000000  0.5682340000000  0.5335090000000 1.0
C      1  0.4738430000000  0.4287970000000  0.5114300000000 1.0
C      1  0.4674180000000  0.6069880000000  0.5207340000000 1.0
C      1  0.4673200000000  0.4533170000000  0.5962770000000 1.0
C      1  0.5511430000000  0.5103610000000  0.5153200000000 1.0
C      1  0.4392870000000  0.5726800000000  0.5483460000000 1.0
C      1  0.5242990000000  0.5517110000000  0.3831940000000 1.0
C      1  0.4914120000000  0.5260280000000  0.4069630000000 1.0
C      1  0.5037080000000  0.4858170000000  0.6060980000000 1.0
C      1  0.5435590000000  0.5541230000000  0.5520600000000 1.0
C      1  0.5372670000000  0.4608380000000  0.4011930000000 1.0
C      1  0.4596280000000  0.5929070000000  0.4956460000000 1.0
C      1  0.5656310000000  0.3946070000000  0.4985660000000 1.0
C      1  0.4476690000000  0.5322190000000  0.4620950000000 1.0
C      1  0.5807040000000  0.5806010000000  0.4842530000000 1.0
C      1  0.5695320000000  0.6064080000000  0.4931350000000 1.0
C      1  0.5582570000000  0.5129400000000  0.6002550000000 1.0
C      1  0.5461220000000  0.5315980000000  0.4205250000000 1.0
C      1  0.5695830000000  0.4639260000000  0.4315160000000 1.0
C      1  0.3922680000000  0.5494490000000  0.4924670000000 1.0
C      1  0.4572530000000  0.4658630000000  0.4782510000000 1.0
C      1  0.6144020000000  0.5080380000000  0.4651620000000 1.0
C      1  0.5914220000000  0.5212450000000  0.5305490000000 1.0
C      1  0.4246470000000  0.5013730000000  0.4111110000000 1.0
C      1  0.4334600000000  0.5089430000000  0.5683600000000 1.0
C      1  0.5452550000000  0.5457290000000  0.4720950000000 1.0
C      1  0.5318880000000  0.5905010000000  0.5163040000000 1.0
C      1  0.5269720000000  0.4227410000000  0.5083230000000 1.0
C      1  0.3892650000000  0.4958560000000  0.5470180000000 1.0
C      1  0.4564460000000  0.5983730000000  0.5482790000000 1.0
C      1  0.4723880000000  0.5275640000000  0.5977750000000 1.0
C      1  0.5390340000000  0.5833250000000  0.5901870000000 1.0
C      1  0.5265410000000  0.3867050000000  0.5336990000000 1.0
C      1  0.4943690000000  0.4679730000000  0.5138320000000 1.0
C      1  0.5165210000000  0.4861020000000  0.5289340000000 1.0
C      1  0.4173480000000  0.4256800000000  0.5438490000000 1.0
C      1  0.5122190000000  0.4012120000000  0.4939940000000 1.0
C      1  0.5061980000000  0.5296140000000  0.4422430000000 1.0
C      1  0.4516290000000  0.5103860000000  0.4162660000000 1.0
C      1  0.5321210000000  0.5553490000000  0.5952380000000 1.0
C      1  0.5036060000000  0.6097120000000  0.4748400000000 1.0
C      1  0.5464360000000  0.4720390000000  0.5851650000000 1.0
C      1  0.4642290000000  0.4080790000000  0.5316290000000 1.0
C      1  0.5556610000000  0.4268520000000  0.5723090000000 1.0
C      1  0.4535650000000  0.5376730000000  0.4304920000000 1.0
C      1  0.5989900000000  0.4505540000000  0.4978630000000 1.0
C      1  0.4877810000000  0.4174510000000  0.4871910000000 1.0
C      1  0.4298000000000  0.4862810000000  0.5881410000000 1.0
C      1  0.4782040000000  0.3837030000000  0.5248470000000 1.0
C      1  0.4607870000000  0.5416940000000  0.4891820000000 1.0
C      1  0.4524320000000  0.4966090000000  0.5453240000000 1.0
C      1  0.4558060000000  0.4670100000000  0.5460890000000 1.0
C      1  0.5089180000000  0.4218190000000  0.4223630000000 1.0
C      1  0.5670410000000  0.5923820000000  0.5435090000000 1.0
C      1  0.4737620000000  0.6048580000000  0.4717680000000 1.0
C      1  0.5154090000000  0.5469290000000  0.5107360000000 1.0
C      1  0.4084750000000  0.4354540000000  0.4833570000000 1.0
C      1  0.4986160000000  0.4325330000000  0.5570020000000 1.0
C      1  0.4079070000000  0.5238910000000  0.4239950000000 1.0
C      1  0.5837890000000  0.4727520000000  0.4551510000000 1.0
C      1  0.4016440000000  0.5179950000000  0.4528870000000 1.0
C      1  0.4459550000000  0.5014160000000  0.5143100000000 1.0
C      1  0.5391090000000  0.5611440000000  0.5230350000000 1.0
C      1  0.5501450000000  0.3826040000000  0.5185760000000 1.0
C      1  0.3967110000000  0.4683330000000  0.5538890000000 1.0
C      1  0.4820270000000  0.3863210000000  0.4480530000000 1.0
C      1  0.4701650000000  0.4050830000000  0.4649990000000 1.0
C      1  0.5354230000000  0.5257040000000  0.4489420000000 1.0
C      1  0.4274170000000  0.5101970000000  0.4671210000000 1.0
C      1  0.5724200000000  0.5064000000000  0.5742070000000 1.0
C      1  0.5883980000000  0.5213220000000  0.4710770000000 1.0
C      1  0.5578360000000  0.5356960000000  0.5004210000000 1.0
C      1  0.5110610000000  0.4384700000000  0.5852320000000 1.0
C      1  0.4313900000000  0.5860800000000  0.4856900000000 1.0
C      1  0.4898110000000  0.5010420000000  0.4754100000000 1.0
C      1  0.4170610000000  0.5701130000000  0.4393850000000 1.0
C      1  0.3879480000000  0.5384440000000  0.4668360000000 1.0
C      1  0.4159310000000  0.5658120000000  0.5004750000000 1.0
C      1  0.5905200000000  0.4442920000000  0.5445460000000 1.0
C      1  0.4499540000000  0.4435460000000  0.5010650000000 1.0
C      1  0.4497120000000  0.5331150000000  0.5167870000000 1.0
C      1  0.5276920000000  0.3977100000000  0.4666960000000 1.0
C      1  0.5200740000000  0.6116770000000  0.4493710000000 1.0
C      1  0.5082460000000  0.5959220000000  0.4295970000000 1.0
C      1  0.5395150000000  0.4992100000000  0.4611000000000 1.0
C      1  0.4145260000000  0.4407920000000  0.4549830000000 1.0
C      1  0.4787210000000  0.5108960000000  0.5466960000000 1.0
C      1  0.5943700000000  0.4907710000000  0.5304630000000 1.0
C      1  0.4565520000000  0.4638490000000  0.4022280000000 1.0
C      1  0.5474550000000  0.4621720000000  0.5360140000000 1.0
C      1  0.4773880000000  0.4993200000000  0.6035030000000 1.0
C      1  0.4579200000000  0.5532360000000  0.5616310000000 1.0
C      1  0.5862560000000  0.5446430000000  0.5502880000000 1.0
C      1  0.4843760000000  0.5921240000000  0.5645170000000 1.0
C      1  0.4916830000000  0.5045090000000  0.4457590000000 1.0
C      1  0.6061100000000  0.4786930000000  0.5056720000000 1.0
C      1  0.5787640000000  0.5493440000000  0.5776360000000 1.0
C      1  0.6217640000000  0.4937470000000  0.4878620000000 1.0
C      1  0.5234240000000  0.4177680000000  0.5374070000000 1.0
C      1  0.3793170000000  0.5022980000000  0.5189790000000 1.0
C      1  0.5452060000000  0.5984800000000  0.4653180000000 1.0
C      1  0.4297490000000  0.4382890000000  0.5676890000000 1.0
C      1  0.5525350000000  0.5164720000000  0.5506680000000 1.0
C      1  0.4409710000000  0.4369010000000  0.4266610000000 1.0
C      1  0.5070250000000  0.5688410000000  0.4223650000000 1.0
C      1  0.4765110000000  0.5700620000000  0.4546140000000 1.0
C      1  0.5681580000000  0.4824090000000  0.4098760000000 1.0
C      1  0.4951090000000  0.4851810000000  0.4236510000000 1.0
C      1  0.4213610000000  0.5058200000000  0.4958330000000 1.0
C      1  0.4168930000000  0.4676510000000  0.4461240000000 1.0
C      1  0.4151630000000  0.4627560000000  0.5762090000000 1.0
C      1  0.4720120000000  0.4918990000000  0.4043440000000 1.0
C      1  0.5589480000000  0.4317460000000  0.5019820000000 1.0
C      1  0.5912820000000  0.5641080000000  0.5059810000000 1.0
C      1  0.5235280000000  0.5886960000000  0.4870850000000 1.0
C      1  0.5077330000000  0.3926200000000  0.4377080000000 1.0
C      1  0.4764680000000  0.4419260000000  0.4118830000000 1.0
C      1  0.4897050000000  0.5607130000000  0.5221660000000 1.0
C      1  0.3841270000000  0.5335120000000  0.5170200000000 1.0
C      1  0.4360350000000  0.4591770000000  0.5231360000000 1.0
C      1  0.5660820000000  0.5658970000000  0.4606480000000 1.0
C      1  0.3975200000000  0.4881600000000  0.4989940000000 1.0
C      1  0.4305080000000  0.5887010000000  0.4556940000000 1.0
C      1  0.4479840000000  0.5324750000000  0.5809660000000 1.0
C      1  0.4933010000000  0.5496680000000  0.5955310000000 1.0
C      1  0.5194700000000  0.5586220000000  0.4817340000000 1.0
C      1  0.5011540000000  0.4408780000000  0.4727850000000 1.0
C      1  0.5556100000000  0.6080880000000  0.5195990000000 1.0
C      1  0.5767830000000  0.4698540000000  0.5460600000000 1.0
END
