TITL C-950531-5884-699 -3.13625386698356e-06 125000 -849.929827892361 0 0 136 (C1) n - 1
REM
REM in /home/bkarasulu/work/CARBON/AIRSS/Generating-Clusters/EDIP-Nigel-Params/with-SteepDescent/Only-C1/SD-CG/HFTN-CG
REM
REM
REM
REM
REM
REM ./C.cell (11c1c37f851c82e70ff6c80c92926a4b)
REM
REM compiler GCC version 9.2.1 20190827 (Red Hat 9.2.1-1)
REM options -cpp -mtune=generic -march=x86-64 -g -O0 -fpre-include=/usr/include/finclude/math-vector-fortran.h
REM seed -1449445329 2138546413 -1923554043 301919476 -356176180 1595663136 1872278853 1369180648 -1604934197 1527265903 1735021634 -675473884 1424118794 19653432 1278558312 491705565 -1449777388 411973226 -1859786242 -1943900618 315628443 1388728593 -797260420 -180257152 498199983 -223050220 543700955 -1707446171 1902966105 -32089213 -854943283 294770636 509294578
REM
CELL 1.54180   50.00000   50.00000   50.00000   90.00000   90.00000   90.00000
LATT -1
SFAC C  
C      1  0.5627960000000  0.5355140000000  0.4433510000000 1.0
C      1  0.5602540000000  0.5614020000000  0.5509950000000 1.0
C      1  0.4699680000000  0.4832190000000  0.4374390000000 1.0
C      1  0.5032240000000  0.5916490000000  0.4779200000000 1.0
C      1  0.5021860000000  0.4559370000000  0.5737320000000 1.0
C      1  0.5594780000000  0.4728530000000  0.4315040000000 1.0
C      1  0.5462890000000  0.5476580000000  0.4862540000000 1.0
C      1  0.5750850000000  0.4452530000000  0.4717160000000 1.0
C      1  0.4891260000000  0.4662450000000  0.4738640000000 1.0
C      1  0.4551230000000  0.4219600000000  0.5372700000000 1.0
C      1  0.4851080000000  0.5955240000000  0.4568940000000 1.0
C      1  0.5196300000000  0.5597600000000  0.4519930000000 1.0
C      1  0.4625480000000  0.5149510000000  0.5893470000000 1.0
C      1  0.4614970000000  0.5365670000000  0.4719200000000 1.0
C      1  0.5895600000000  0.5452050000000  0.5068480000000 1.0
C      1  0.5289180000000  0.5214550000000  0.5852040000000 1.0
C      1  0.5303110000000  0.5001710000000  0.4940430000000 1.0
C      1  0.4394220000000  0.5745850000000  0.5229860000000 1.0
C      1  0.4478370000000  0.5653440000000  0.4497970000000 1.0
C      1  0.5321640000000  0.4222110000000  0.5527800000000 1.0
C      1  0.5943960000000  0.5284090000000  0.5295620000000 1.0
C      1  0.5143510000000  0.5473330000000  0.5817930000000 1.0
C      1  0.5666180000000  0.4225810000000  0.4872780000000 1.0
C      1  0.4964510000000  0.4498750000000  0.4160110000000 1.0
C      1  0.4783310000000  0.4159060000000  0.4430510000000 1.0
C      1  0.4672040000000  0.4493740000000  0.4087930000000 1.0
C      1  0.5964940000000  0.4779060000000  0.5086740000000 1.0
C      1  0.6015800000000  0.5034880000000  0.5188680000000 1.0
C      1  0.5832010000000  0.4723730000000  0.4815600000000 1.0
C      1  0.5035770000000  0.4260030000000  0.4317370000000 1.0
C      1  0.5838450000000  0.4710310000000  0.5581630000000 1.0
C      1  0.5338690000000  0.4867720000000  0.4216750000000 1.0
C      1  0.4971050000000  0.5141490000000  0.5525360000000 1.0
C      1  0.4737030000000  0.5771980000000  0.4391870000000 1.0
C      1  0.4459670000000  0.4113510000000  0.5095050000000 1.0
C      1  0.5444420000000  0.4479660000000  0.5627250000000 1.0
C      1  0.4353690000000  0.4494130000000  0.4582680000000 1.0
C      1  0.4575120000000  0.4667030000000  0.5127590000000 1.0
C      1  0.5683420000000  0.5289970000000  0.4911990000000 1.0
C      1  0.4878980000000  0.4958980000000  0.4795400000000 1.0
C      1  0.4777540000000  0.4714760000000  0.5729240000000 1.0
C      1  0.4320710000000  0.5440130000000  0.4336210000000 1.0
C      1  0.5118090000000  0.4735780000000  0.4037250000000 1.0
C      1  0.5106390000000  0.4991270000000  0.5957070000000 1.0
C      1  0.4142010000000  0.5630170000000  0.4841320000000 1.0
C      1  0.4134790000000  0.4826070000000  0.5347340000000 1.0
C      1  0.4411930000000  0.5425370000000  0.5590270000000 1.0
C      1  0.4598030000000  0.5059940000000  0.4795530000000 1.0
C      1  0.5719070000000  0.5181070000000  0.5753380000000 1.0
C      1  0.5531610000000  0.5069050000000  0.5097300000000 1.0
C      1  0.5181950000000  0.4083900000000  0.5050060000000 1.0
C      1  0.4156860000000  0.4521940000000  0.5334280000000 1.0
C      1  0.4642360000000  0.4808760000000  0.4088620000000 1.0
C      1  0.5399240000000  0.4131810000000  0.5249220000000 1.0
C      1  0.5317360000000  0.5482220000000  0.4078530000000 1.0
C      1  0.5317350000000  0.4570150000000  0.4713360000000 1.0
C      1  0.5734270000000  0.4470880000000  0.5715460000000 1.0
C      1  0.4947740000000  0.5988190000000  0.5051800000000 1.0
C      1  0.5038630000000  0.5458310000000  0.4077220000000 1.0
C      1  0.5221560000000  0.5457510000000  0.5266970000000 1.0
C      1  0.4924910000000  0.4039550000000  0.5173390000000 1.0
C      1  0.5217870000000  0.4721200000000  0.5911530000000 1.0
C      1  0.4541980000000  0.4682080000000  0.5563700000000 1.0
C      1  0.5655710000000  0.4904440000000  0.5699180000000 1.0
C      1  0.4148530000000  0.5263450000000  0.4501640000000 1.0
C      1  0.4164180000000  0.4931550000000  0.5051750000000 1.0
C      1  0.5746360000000  0.5193220000000  0.4631190000000 1.0
C      1  0.4853540000000  0.4995720000000  0.5786640000000 1.0
C      1  0.4052830000000  0.4773850000000  0.4834330000000 1.0
C      1  0.4413630000000  0.5164050000000  0.5691910000000 1.0
C      1  0.4843790000000  0.5692200000000  0.5478350000000 1.0
C      1  0.5756120000000  0.5363760000000  0.5520970000000 1.0
C      1  0.5153940000000  0.4490260000000  0.5214090000000 1.0
C      1  0.4217200000000  0.4975180000000  0.4405620000000 1.0
C      1  0.4937560000000  0.5551260000000  0.4348420000000 1.0
C      1  0.5419860000000  0.5517610000000  0.4335440000000 1.0
C      1  0.5305300000000  0.5915190000000  0.4705570000000 1.0
C      1  0.5194120000000  0.5391110000000  0.4747450000000 1.0
C      1  0.4550530000000  0.4310890000000  0.4304690000000 1.0
C      1  0.4550180000000  0.5801670000000  0.4983330000000 1.0
C      1  0.5214790000000  0.4960210000000  0.4467860000000 1.0
C      1  0.4736920000000  0.5515800000000  0.4954630000000 1.0
C      1  0.5040220000000  0.5477690000000  0.4989120000000 1.0
C      1  0.4395150000000  0.4432930000000  0.5514150000000 1.0
C      1  0.4075360000000  0.5212440000000  0.5015440000000 1.0
C      1  0.4132960000000  0.5635380000000  0.5140010000000 1.0
C      1  0.4662060000000  0.5357940000000  0.5187480000000 1.0
C      1  0.5028640000000  0.5456540000000  0.5544440000000 1.0
C      1  0.4386610000000  0.4987430000000  0.4100080000000 1.0
C      1  0.5386590000000  0.5726650000000  0.5325950000000 1.0
C      1  0.4947480000000  0.5208390000000  0.3988420000000 1.0
C      1  0.5018970000000  0.4982360000000  0.5056070000000 1.0
C      1  0.5395850000000  0.5211250000000  0.5318750000000 1.0
C      1  0.5339420000000  0.4704290000000  0.5425860000000 1.0
C      1  0.4678380000000  0.6056790000000  0.5034930000000 1.0
C      1  0.4158180000000  0.4724970000000  0.4577470000000 1.0
C      1  0.5547250000000  0.4481430000000  0.4498030000000 1.0
C      1  0.5528150000000  0.4730460000000  0.5912920000000 1.0
C      1  0.5850700000000  0.4344350000000  0.5279590000000 1.0
C      1  0.5536160000000  0.4716560000000  0.5187800000000 1.0
C      1  0.4506260000000  0.4987710000000  0.4516390000000 1.0
C      1  0.4896080000000  0.4931640000000  0.3959990000000 1.0
C      1  0.4719620000000  0.4586260000000  0.4516050000000 1.0
C      1  0.5681100000000  0.4900670000000  0.4611950000000 1.0
C      1  0.4941110000000  0.5513980000000  0.6003970000000 1.0
C      1  0.5039130000000  0.5858620000000  0.5305480000000 1.0
C      1  0.4716050000000  0.4019100000000  0.4968280000000 1.0
C      1  0.5249680000000  0.4237380000000  0.4522250000000 1.0
C      1  0.5040210000000  0.4299000000000  0.5588500000000 1.0
C      1  0.4508380000000  0.5249070000000  0.4210720000000 1.0
C      1  0.4845200000000  0.4220060000000  0.5383680000000 1.0
C      1  0.4369770000000  0.4914810000000  0.5524480000000 1.0
C      1  0.5813380000000  0.4629070000000  0.5291850000000 1.0
C      1  0.4953720000000  0.4728370000000  0.5209100000000 1.0
C      1  0.4848420000000  0.4090630000000  0.4713030000000 1.0
C      1  0.5552570000000  0.5263700000000  0.5963650000000 1.0
C      1  0.4176760000000  0.5347930000000  0.4780440000000 1.0
C      1  0.5377530000000  0.4867270000000  0.4690080000000 1.0
C      1  0.4836350000000  0.4532430000000  0.4994410000000 1.0
C      1  0.4458770000000  0.4918670000000  0.5016100000000 1.0
C      1  0.5135780000000  0.4085340000000  0.4754270000000 1.0
C      1  0.4307460000000  0.4332980000000  0.4823640000000 1.0
C      1  0.4797700000000  0.5308520000000  0.4455630000000 1.0
C      1  0.4059930000000  0.5378820000000  0.5241900000000 1.0
C      1  0.4339670000000  0.4477600000000  0.5085350000000 1.0
C      1  0.5516260000000  0.5764070000000  0.4838410000000 1.0
C      1  0.4570880000000  0.5559930000000  0.5388810000000 1.0
C      1  0.4362220000000  0.5796820000000  0.4740410000000 1.0
C      1  0.5021460000000  0.5144180000000  0.4596630000000 1.0
C      1  0.5407930000000  0.4489380000000  0.4996570000000 1.0
C      1  0.5272680000000  0.5029050000000  0.5517560000000 1.0
C      1  0.4702470000000  0.5390290000000  0.6011590000000 1.0
C      1  0.4870880000000  0.5161890000000  0.5249320000000 1.0
C      1  0.5576670000000  0.5845700000000  0.5112860000000 1.0
C      1  0.5673150000000  0.4175900000000  0.5149440000000 1.0
C      1  0.5821530000000  0.5711850000000  0.5161220000000 1.0
END
