TITL C-951344-124-357 -4.57458127264669e-06 125000 -1111.24469507302 0 0 178 (C1) n - 1
REM
REM in /home/bkarasulu/work/CARBON/AIRSS/Generating-Clusters/EDIP-Nigel-Params/with-SteepDescent/Only-C1/SD-CG/HFTN-CG
REM
REM
REM
REM
REM
REM ./C.cell (11c1c37f851c82e70ff6c80c92926a4b)
REM
REM compiler GCC version 9.2.1 20190827 (Red Hat 9.2.1-1)
REM options -cpp -mtune=generic -march=x86-64 -g -O0 -fpre-include=/usr/include/finclude/math-vector-fortran.h
REM seed 1363939779 1916156705 1607936433 1581892605 1921428283 -355470626 -483759779 156505426 137159741 -944584482 1494228421 -544859749 -650531735 925999710 -1488042537 -1992919384 -990652099 -2069107136 -188357288 -2098848436 94008370 -1960244755 -2145521523 777655654 919647220 1307834694 -1329478241 -287544451 -1932195352 1924963319 1955169008 1217312653 72478096
REM
CELL 1.54180   50.00000   50.00000   50.00000   90.00000   90.00000   90.00000
LATT -1
SFAC C  
C      1  0.4729770000000  0.5203330000000  0.6084060000000 1.0
C      1  0.4475860000000  0.5440430000000  0.3911610000000 1.0
C      1  0.5680380000000  0.5816860000000  0.5158500000000 1.0
C      1  0.5210980000000  0.4952760000000  0.5920680000000 1.0
C      1  0.5513550000000  0.5686340000000  0.5716380000000 1.0
C      1  0.5997050000000  0.4906680000000  0.4890420000000 1.0
C      1  0.4569510000000  0.5781200000000  0.4371140000000 1.0
C      1  0.4367380000000  0.4391180000000  0.5548020000000 1.0
C      1  0.5238640000000  0.3873530000000  0.4731520000000 1.0
C      1  0.5781140000000  0.4539550000000  0.5638400000000 1.0
C      1  0.5060450000000  0.4809650000000  0.3811710000000 1.0
C      1  0.5613670000000  0.5993490000000  0.5377760000000 1.0
C      1  0.4959310000000  0.4914350000000  0.5234780000000 1.0
C      1  0.5504090000000  0.5233600000000  0.5176960000000 1.0
C      1  0.5180290000000  0.5267900000000  0.5905920000000 1.0
C      1  0.4434980000000  0.5551440000000  0.4207780000000 1.0
C      1  0.4934420000000  0.5286270000000  0.5021080000000 1.0
C      1  0.4324170000000  0.5016260000000  0.5462140000000 1.0
C      1  0.5733020000000  0.5834300000000  0.5599820000000 1.0
C      1  0.4738540000000  0.4635520000000  0.4867430000000 1.0
C      1  0.5099640000000  0.5416120000000  0.4084270000000 1.0
C      1  0.5506160000000  0.4827940000000  0.4923690000000 1.0
C      1  0.4922870000000  0.4874960000000  0.4846050000000 1.0
C      1  0.4975890000000  0.5686650000000  0.4094410000000 1.0
C      1  0.4489170000000  0.4159720000000  0.5418720000000 1.0
C      1  0.3980660000000  0.4511360000000  0.4817650000000 1.0
C      1  0.5697330000000  0.5674960000000  0.4742280000000 1.0
C      1  0.4878430000000  0.5320580000000  0.4537500000000 1.0
C      1  0.5804900000000  0.5353130000000  0.4115860000000 1.0
C      1  0.3858270000000  0.4761780000000  0.4880160000000 1.0
C      1  0.4889870000000  0.6065990000000  0.5150710000000 1.0
C      1  0.5138190000000  0.4817850000000  0.6168640000000 1.0
C      1  0.4568330000000  0.4956420000000  0.3870510000000 1.0
C      1  0.4842680000000  0.4170150000000  0.4814940000000 1.0
C      1  0.4775650000000  0.4730170000000  0.3830030000000 1.0
C      1  0.5430620000000  0.5056340000000  0.4073200000000 1.0
C      1  0.5187590000000  0.4459360000000  0.4940650000000 1.0
C      1  0.4429730000000  0.4449500000000  0.4633370000000 1.0
C      1  0.5108750000000  0.5580130000000  0.5418870000000 1.0
C      1  0.5172900000000  0.5301320000000  0.5560510000000 1.0
C      1  0.5614720000000  0.5045510000000  0.5640480000000 1.0
C      1  0.5700800000000  0.5683250000000  0.4459540000000 1.0
C      1  0.4774540000000  0.4317190000000  0.5777620000000 1.0
C      1  0.5340190000000  0.4716860000000  0.5337850000000 1.0
C      1  0.4956240000000  0.5084520000000  0.5508550000000 1.0
C      1  0.4776440000000  0.6088110000000  0.4885050000000 1.0
C      1  0.5179480000000  0.4189970000000  0.4229540000000 1.0
C      1  0.4771970000000  0.3889310000000  0.5149090000000 1.0
C      1  0.4060320000000  0.4493630000000  0.4543120000000 1.0
C      1  0.5388980000000  0.4764060000000  0.4174700000000 1.0
C      1  0.4835330000000  0.5608520000000  0.5851940000000 1.0
C      1  0.5948230000000  0.5652910000000  0.5483430000000 1.0
C      1  0.5100840000000  0.4188950000000  0.5357720000000 1.0
C      1  0.4797490000000  0.4755720000000  0.5842780000000 1.0
C      1  0.5959120000000  0.4765640000000  0.5615140000000 1.0
C      1  0.3996260000000  0.5443520000000  0.4964090000000 1.0
C      1  0.4578650000000  0.5080050000000  0.5875360000000 1.0
C      1  0.5316740000000  0.6014460000000  0.5407720000000 1.0
C      1  0.5077910000000  0.3991820000000  0.4937290000000 1.0
C      1  0.4673730000000  0.4514930000000  0.4443330000000 1.0
C      1  0.4509460000000  0.5126020000000  0.4911030000000 1.0
C      1  0.4665970000000  0.3988070000000  0.4628550000000 1.0
C      1  0.5793460000000  0.4351980000000  0.4879880000000 1.0
C      1  0.4460880000000  0.5392650000000  0.5020160000000 1.0
C      1  0.4941000000000  0.4636630000000  0.6084540000000 1.0
C      1  0.4316530000000  0.5561950000000  0.4787990000000 1.0
C      1  0.4860800000000  0.5787260000000  0.4337480000000 1.0
C      1  0.4928930000000  0.5385760000000  0.6018790000000 1.0
C      1  0.5389270000000  0.4261650000000  0.4461840000000 1.0
C      1  0.4766580000000  0.4460370000000  0.3983070000000 1.0
C      1  0.5214440000000  0.5153470000000  0.5014720000000 1.0
C      1  0.4422420000000  0.4145040000000  0.4673270000000 1.0
C      1  0.5032010000000  0.4855870000000  0.5693710000000 1.0
C      1  0.4919650000000  0.4342510000000  0.4551780000000 1.0
C      1  0.5878700000000  0.4477190000000  0.5136000000000 1.0
C      1  0.5629340000000  0.4124860000000  0.4861090000000 1.0
C      1  0.5328950000000  0.5956070000000  0.4839280000000 1.0
C      1  0.5143500000000  0.4619840000000  0.5535110000000 1.0
C      1  0.4885750000000  0.4428210000000  0.5002810000000 1.0
C      1  0.4953160000000  0.5644430000000  0.4594690000000 1.0
C      1  0.6056290000000  0.4896320000000  0.5382850000000 1.0
C      1  0.5639410000000  0.4422420000000  0.4398780000000 1.0
C      1  0.5448480000000  0.4044610000000  0.4661480000000 1.0
C      1  0.4545140000000  0.4437270000000  0.4180750000000 1.0
C      1  0.4512230000000  0.5974160000000  0.4865140000000 1.0
C      1  0.4151090000000  0.4588320000000  0.5523060000000 1.0
C      1  0.5181450000000  0.5959550000000  0.5133190000000 1.0
C      1  0.5826390000000  0.5245530000000  0.4608140000000 1.0
C      1  0.5972230000000  0.5205740000000  0.4868490000000 1.0
C      1  0.5277620000000  0.5248000000000  0.3896760000000 1.0
C      1  0.4748630000000  0.5508530000000  0.5089260000000 1.0
C      1  0.4015750000000  0.5186800000000  0.5126880000000 1.0
C      1  0.5242970000000  0.5735980000000  0.4644930000000 1.0
C      1  0.5400210000000  0.5374990000000  0.6048570000000 1.0
C      1  0.4535520000000  0.4066540000000  0.5150430000000 1.0
C      1  0.5171990000000  0.5266590000000  0.4515730000000 1.0
C      1  0.4221370000000  0.5309770000000  0.3986260000000 1.0
C      1  0.5908660000000  0.5631080000000  0.5190860000000 1.0
C      1  0.5008080000000  0.4858790000000  0.4559970000000 1.0
C      1  0.5750140000000  0.4977210000000  0.4510730000000 1.0
C      1  0.5478340000000  0.4933820000000  0.4654180000000 1.0
C      1  0.5433920000000  0.5214870000000  0.5465800000000 1.0
C      1  0.5783150000000  0.4512560000000  0.4638500000000 1.0
C      1  0.4870600000000  0.5725270000000  0.4886290000000 1.0
C      1  0.4051380000000  0.4715400000000  0.5294990000000 1.0
C      1  0.4199980000000  0.5397430000000  0.4582940000000 1.0
C      1  0.5652440000000  0.5195080000000  0.3950680000000 1.0
C      1  0.5262030000000  0.4190260000000  0.5091780000000 1.0
C      1  0.4392600000000  0.5328550000000  0.4392800000000 1.0
C      1  0.5613980000000  0.5901850000000  0.4891680000000 1.0
C      1  0.5239040000000  0.5789090000000  0.5605220000000 1.0
C      1  0.4767220000000  0.4810740000000  0.4394580000000 1.0
C      1  0.5544570000000  0.4194670000000  0.5363110000000 1.0
C      1  0.5532400000000  0.4583780000000  0.5812790000000 1.0
C      1  0.5849760000000  0.5440280000000  0.4379210000000 1.0
C      1  0.4494180000000  0.5767160000000  0.4663390000000 1.0
C      1  0.4724290000000  0.4100610000000  0.5575410000000 1.0
C      1  0.4456910000000  0.4646230000000  0.4961510000000 1.0
C      1  0.4687930000000  0.5898630000000  0.5306470000000 1.0
C      1  0.4719640000000  0.4717140000000  0.5298830000000 1.0
C      1  0.4917030000000  0.3954920000000  0.5395210000000 1.0
C      1  0.4067980000000  0.5002640000000  0.4427220000000 1.0
C      1  0.5629520000000  0.4604900000000  0.4186020000000 1.0
C      1  0.4439860000000  0.4908450000000  0.5099760000000 1.0
C      1  0.3998520000000  0.4891660000000  0.5084660000000 1.0
C      1  0.5994180000000  0.5371260000000  0.5594720000000 1.0
C      1  0.5173180000000  0.5646340000000  0.5111090000000 1.0
C      1  0.5434540000000  0.5506380000000  0.4966490000000 1.0
C      1  0.5793480000000  0.5269320000000  0.5791360000000 1.0
C      1  0.5024340000000  0.4388510000000  0.5935150000000 1.0
C      1  0.4907910000000  0.4926180000000  0.4138560000000 1.0
C      1  0.5934610000000  0.5340110000000  0.5123150000000 1.0
C      1  0.4170530000000  0.5694240000000  0.5169770000000 1.0
C      1  0.5919810000000  0.4771620000000  0.4634390000000 1.0
C      1  0.4500360000000  0.4431830000000  0.5801470000000 1.0
C      1  0.5211740000000  0.4464500000000  0.4613630000000 1.0
C      1  0.4392230000000  0.4682650000000  0.5903510000000 1.0
C      1  0.4136090000000  0.5035460000000  0.5706320000000 1.0
C      1  0.5205100000000  0.4633680000000  0.3987160000000 1.0
C      1  0.4797490000000  0.5623160000000  0.5376450000000 1.0
C      1  0.4861260000000  0.5234000000000  0.4158950000000 1.0
C      1  0.5485450000000  0.4874340000000  0.5850650000000 1.0
C      1  0.4272810000000  0.5461540000000  0.5881430000000 1.0
C      1  0.5304790000000  0.5413920000000  0.4303950000000 1.0
C      1  0.5270910000000  0.4723710000000  0.5058150000000 1.0
C      1  0.4435520000000  0.5860490000000  0.5130500000000 1.0
C      1  0.4542010000000  0.4793070000000  0.5557410000000 1.0
C      1  0.6025680000000  0.5193130000000  0.5358510000000 1.0
C      1  0.4332810000000  0.4655170000000  0.4167440000000 1.0
C      1  0.5325090000000  0.4189380000000  0.5555170000000 1.0
C      1  0.4145950000000  0.4747950000000  0.5767300000000 1.0
C      1  0.4683580000000  0.5194040000000  0.5606170000000 1.0
C      1  0.4912380000000  0.4458610000000  0.5388030000000 1.0
C      1  0.4257150000000  0.5272730000000  0.5279880000000 1.0
C      1  0.5743090000000  0.4396370000000  0.5380590000000 1.0
C      1  0.5609840000000  0.5481800000000  0.5906240000000 1.0
C      1  0.5679280000000  0.4980920000000  0.5107610000000 1.0
C      1  0.5275020000000  0.4429680000000  0.5734200000000 1.0
C      1  0.4182250000000  0.5527480000000  0.5421550000000 1.0
C      1  0.4686690000000  0.5230660000000  0.3901920000000 1.0
C      1  0.5405440000000  0.5677490000000  0.4405020000000 1.0
C      1  0.4270110000000  0.5126780000000  0.4224750000000 1.0
C      1  0.4473780000000  0.4912740000000  0.4145980000000 1.0
C      1  0.4337550000000  0.4152190000000  0.4950590000000 1.0
C      1  0.4661040000000  0.5501240000000  0.5619890000000 1.0
C      1  0.4786970000000  0.5147980000000  0.4812220000000 1.0
C      1  0.5028750000000  0.5811870000000  0.5803580000000 1.0
C      1  0.4367690000000  0.5589470000000  0.5649530000000 1.0
C      1  0.4939630000000  0.4093030000000  0.4377320000000 1.0
C      1  0.4028840000000  0.5187120000000  0.4667670000000 1.0
C      1  0.4291240000000  0.5181640000000  0.5908410000000 1.0
C      1  0.5041180000000  0.4428580000000  0.4104250000000 1.0
C      1  0.5352200000000  0.5204860000000  0.4737060000000 1.0
C      1  0.6032060000000  0.4734230000000  0.5136260000000 1.0
C      1  0.4169710000000  0.4718290000000  0.4408400000000 1.0
C      1  0.5276470000000  0.4756090000000  0.4490630000000 1.0
C      1  0.5623740000000  0.4823250000000  0.5384090000000 1.0
C      1  0.4171910000000  0.4386880000000  0.5001870000000 1.0
END
