TITL C-950528-5794-220 2.1700812190289e-07 125000 -381.66871408323 0 0 64 (C1) n - 1
REM
REM in /home/bkarasulu/work/CARBON/AIRSS/Generating-Clusters/EDIP-Nigel-Params/with-SteepDescent/Only-C1/SD-CG/HFTN-CG
REM
REM
REM
REM
REM
REM ./C.cell (11c1c37f851c82e70ff6c80c92926a4b)
REM
REM compiler GCC version 9.2.1 20190827 (Red Hat 9.2.1-1)
REM options -cpp -mtune=generic -march=x86-64 -g -O0 -fpre-include=/usr/include/finclude/math-vector-fortran.h
REM seed 403976818 1082390549 1073639482 -592609663 1293932296 206672772 -1074420047 -574182376 239410306 579066485 -453649144 -421067359 -440614356 -2047713883 -1837065840 835032106 -1572094441 1788446097 -186956541 -1063753430 2039508550 873697987 -1710919133 -800622379 618664112 -120803592 2127925556 565797172 832350956 -1644098964 -1449788324 -140766121 -1339142362
REM
CELL 1.54180   50.00000   50.00000   50.00000   90.00000   90.00000   90.00000
LATT -1
SFAC C  
C      1  0.5558110000000  0.5020770000000  0.5256250000000 1.0
C      1  0.4576080000000  0.5494590000000  0.5011280000000 1.0
C      1  0.4313830000000  0.5166670000000  0.4747730000000 1.0
C      1  0.4349870000000  0.4744400000000  0.4483120000000 1.0
C      1  0.4724000000000  0.4823050000000  0.5226210000000 1.0
C      1  0.4861390000000  0.5537400000000  0.5482470000000 1.0
C      1  0.5639050000000  0.4725100000000  0.4708640000000 1.0
C      1  0.5405180000000  0.5612040000000  0.5069630000000 1.0
C      1  0.4838970000000  0.4698420000000  0.4318600000000 1.0
C      1  0.5082610000000  0.4211990000000  0.4791700000000 1.0
C      1  0.5404740000000  0.4783850000000  0.5354450000000 1.0
C      1  0.4453580000000  0.5279350000000  0.4528790000000 1.0
C      1  0.4777070000000  0.5285040000000  0.5594320000000 1.0
C      1  0.4519690000000  0.4498810000000  0.5255080000000 1.0
C      1  0.5014530000000  0.4494120000000  0.5172200000000 1.0
C      1  0.5054130000000  0.4892440000000  0.4345950000000 1.0
C      1  0.4550390000000  0.4876440000000  0.5668500000000 1.0
C      1  0.5093010000000  0.5258230000000  0.5215980000000 1.0
C      1  0.5227020000000  0.4856430000000  0.5592770000000 1.0
C      1  0.5678610000000  0.4978610000000  0.5003880000000 1.0
C      1  0.5371000000000  0.4266440000000  0.4804100000000 1.0
C      1  0.4946320000000  0.5154380000000  0.4409210000000 1.0
C      1  0.5590360000000  0.4569580000000  0.5413130000000 1.0
C      1  0.5004590000000  0.4686640000000  0.5618880000000 1.0
C      1  0.4330800000000  0.4671340000000  0.5108430000000 1.0
C      1  0.5248940000000  0.5765760000000  0.5281030000000 1.0
C      1  0.5645560000000  0.4415470000000  0.5196490000000 1.0
C      1  0.5378960000000  0.5761500000000  0.4822630000000 1.0
C      1  0.4864130000000  0.4426300000000  0.4383980000000 1.0
C      1  0.4794020000000  0.4849930000000  0.5518040000000 1.0
C      1  0.4658850000000  0.5119830000000  0.4421820000000 1.0
C      1  0.4665280000000  0.4440590000000  0.4838940000000 1.0
C      1  0.5116260000000  0.5127270000000  0.5636810000000 1.0
C      1  0.4432130000000  0.4959120000000  0.5204380000000 1.0
C      1  0.5477650000000  0.4491920000000  0.4977150000000 1.0
C      1  0.4359690000000  0.5019820000000  0.5494740000000 1.0
C      1  0.4662160000000  0.5573150000000  0.4750510000000 1.0
C      1  0.5325210000000  0.4825530000000  0.4339610000000 1.0
C      1  0.5612960000000  0.5151500000000  0.4781090000000 1.0
C      1  0.5285220000000  0.5361930000000  0.5661310000000 1.0
C      1  0.4443200000000  0.5214750000000  0.5006700000000 1.0
C      1  0.5311170000000  0.5157420000000  0.4791030000000 1.0
C      1  0.4939790000000  0.5576250000000  0.4675810000000 1.0
C      1  0.5323790000000  0.4395500000000  0.4549020000000 1.0
C      1  0.4594480000000  0.4845230000000  0.4374110000000 1.0
C      1  0.4226830000000  0.4898290000000  0.4688000000000 1.0
C      1  0.5666970000000  0.5215480000000  0.5423430000000 1.0
C      1  0.4750200000000  0.4400220000000  0.5110710000000 1.0
C      1  0.4801470000000  0.5590880000000  0.5196820000000 1.0
C      1  0.5251590000000  0.4659340000000  0.5102590000000 1.0
C      1  0.4399290000000  0.4580330000000  0.4829380000000 1.0
C      1  0.4999970000000  0.5798240000000  0.5105910000000 1.0
C      1  0.4492110000000  0.5254580000000  0.5607620000000 1.0
C      1  0.5204980000000  0.5385500000000  0.4973500000000 1.0
C      1  0.5089270000000  0.5784390000000  0.4818090000000 1.0
C      1  0.5473900000000  0.5409720000000  0.5456700000000 1.0
C      1  0.5151820000000  0.5615810000000  0.5542300000000 1.0
C      1  0.4883140000000  0.5183860000000  0.5046290000000 1.0
C      1  0.4889260000000  0.4915560000000  0.4964230000000 1.0
C      1  0.5718710000000  0.4982710000000  0.4572310000000 1.0
C      1  0.5091160000000  0.5356460000000  0.4554190000000 1.0
C      1  0.5174310000000  0.4866230000000  0.4878190000000 1.0
C      1  0.5360430000000  0.4682520000000  0.4587280000000 1.0
C      1  0.4870190000000  0.4354970000000  0.4655940000000 1.0
END
