TITL C-951338-5626-160 -1.19958571226028e-06 125000 -718.501675749281 0 0 116 (C1) n - 1
REM
REM in /home/bkarasulu/work/CARBON/AIRSS/Generating-Clusters/EDIP-Nigel-Params/with-SteepDescent/Only-C1/SD-CG/HFTN-CG
REM
REM
REM
REM
REM
REM ./C.cell (11c1c37f851c82e70ff6c80c92926a4b)
REM
REM compiler GCC version 9.2.1 20190827 (Red Hat 9.2.1-1)
REM options -cpp -mtune=generic -march=x86-64 -g -O0 -fpre-include=/usr/include/finclude/math-vector-fortran.h
REM seed -140731349 -1596700186 929062951 -1344712165 -262202879 -810714357 -35495907 -371065678 1176637510 -1904598135 -1658016516 518368814 402031222 -1861538223 -1918292799 -1586742508 179185704 1828448751 -1557876464 -856608443 -1725337081 134498149 1493933089 -336825560 1604851061 -1225896820 -311655689 1201150197 800161012 -1062996357 285138203 701839333 -533941492
REM
CELL 1.54180   50.00000   50.00000   50.00000   90.00000   90.00000   90.00000
LATT -1
SFAC C  
C      1  0.4919390000000  0.5250500000000  0.4018470000000 1.0
C      1  0.4356950000000  0.4473110000000  0.4562550000000 1.0
C      1  0.5401660000000  0.4397580000000  0.4773690000000 1.0
C      1  0.4374930000000  0.4374700000000  0.5559860000000 1.0
C      1  0.5256250000000  0.4150820000000  0.5169050000000 1.0
C      1  0.5303790000000  0.5830830000000  0.5260000000000 1.0
C      1  0.5048800000000  0.4752100000000  0.4438110000000 1.0
C      1  0.4657250000000  0.5252990000000  0.4425660000000 1.0
C      1  0.4254400000000  0.4690350000000  0.5253290000000 1.0
C      1  0.4197370000000  0.4580720000000  0.4806050000000 1.0
C      1  0.5881950000000  0.5254580000000  0.4954170000000 1.0
C      1  0.4990700000000  0.4711020000000  0.4748110000000 1.0
C      1  0.5582330000000  0.5127820000000  0.4209810000000 1.0
C      1  0.5704940000000  0.4430000000000  0.5387220000000 1.0
C      1  0.4439060000000  0.5134610000000  0.4252750000000 1.0
C      1  0.5501130000000  0.5725960000000  0.4835340000000 1.0
C      1  0.4721990000000  0.5208920000000  0.4778660000000 1.0
C      1  0.5649180000000  0.4565690000000  0.4712810000000 1.0
C      1  0.4727720000000  0.5928850000000  0.4998690000000 1.0
C      1  0.4823340000000  0.4392480000000  0.5442600000000 1.0
C      1  0.5198360000000  0.4567040000000  0.4933650000000 1.0
C      1  0.4943490000000  0.4272940000000  0.4607840000000 1.0
C      1  0.5997270000000  0.5076460000000  0.5156630000000 1.0
C      1  0.5533370000000  0.4982310000000  0.4922590000000 1.0
C      1  0.5158770000000  0.5410380000000  0.4039570000000 1.0
C      1  0.4346890000000  0.5333530000000  0.5728340000000 1.0
C      1  0.5781110000000  0.5471510000000  0.5143200000000 1.0
C      1  0.4499320000000  0.4318290000000  0.5103840000000 1.0
C      1  0.4705410000000  0.4563480000000  0.4800180000000 1.0
C      1  0.4470190000000  0.5542590000000  0.5080350000000 1.0
C      1  0.4883530000000  0.5128120000000  0.4279540000000 1.0
C      1  0.5827720000000  0.4827320000000  0.5632280000000 1.0
C      1  0.4529920000000  0.4895860000000  0.5940400000000 1.0
C      1  0.5315680000000  0.5388430000000  0.5105460000000 1.0
C      1  0.5610480000000  0.4997810000000  0.5693090000000 1.0
C      1  0.4173430000000  0.5180140000000  0.5564710000000 1.0
C      1  0.4537420000000  0.5658120000000  0.5341660000000 1.0
C      1  0.4625540000000  0.5092260000000  0.5495170000000 1.0
C      1  0.4540300000000  0.4997990000000  0.4025980000000 1.0
C      1  0.5528790000000  0.4386000000000  0.5596120000000 1.0
C      1  0.5572090000000  0.5232810000000  0.5520680000000 1.0
C      1  0.4929810000000  0.5117830000000  0.5557590000000 1.0
C      1  0.5711670000000  0.4730620000000  0.4955630000000 1.0
C      1  0.5171390000000  0.4719660000000  0.5739610000000 1.0
C      1  0.5285650000000  0.4443330000000  0.5716410000000 1.0
C      1  0.5046950000000  0.5493780000000  0.5041260000000 1.0
C      1  0.4978760000000  0.5396620000000  0.4768210000000 1.0
C      1  0.5724500000000  0.5021130000000  0.4461620000000 1.0
C      1  0.5373920000000  0.4913970000000  0.5854420000000 1.0
C      1  0.4903190000000  0.5721250000000  0.4394510000000 1.0
C      1  0.4735840000000  0.4793500000000  0.4029410000000 1.0
C      1  0.4553620000000  0.4245350000000  0.4611750000000 1.0
C      1  0.4563690000000  0.4264270000000  0.5381280000000 1.0
C      1  0.5158230000000  0.5176430000000  0.4704990000000 1.0
C      1  0.4331750000000  0.4951570000000  0.4442810000000 1.0
C      1  0.4835550000000  0.4678570000000  0.5339540000000 1.0
C      1  0.4640630000000  0.5561730000000  0.4370900000000 1.0
C      1  0.5081730000000  0.5485240000000  0.5575920000000 1.0
C      1  0.5229850000000  0.5129750000000  0.5956620000000 1.0
C      1  0.5471800000000  0.4200560000000  0.4995820000000 1.0
C      1  0.5303140000000  0.5237870000000  0.5377030000000 1.0
C      1  0.5154240000000  0.5770320000000  0.5507080000000 1.0
C      1  0.4093360000000  0.4909040000000  0.5153310000000 1.0
C      1  0.4714720000000  0.5885310000000  0.5287230000000 1.0
C      1  0.4930200000000  0.5627090000000  0.4111760000000 1.0
C      1  0.5688980000000  0.4282650000000  0.5150580000000 1.0
C      1  0.5848970000000  0.5173280000000  0.4675220000000 1.0
C      1  0.4453590000000  0.5602030000000  0.4613050000000 1.0
C      1  0.4562690000000  0.5717890000000  0.4866710000000 1.0
C      1  0.5937240000000  0.4792920000000  0.5150800000000 1.0
C      1  0.5613330000000  0.4750780000000  0.4494830000000 1.0
C      1  0.5812130000000  0.5322260000000  0.5388020000000 1.0
C      1  0.5054850000000  0.4326120000000  0.5080370000000 1.0
C      1  0.5542600000000  0.5477880000000  0.4673620000000 1.0
C      1  0.4325930000000  0.4650600000000  0.5536060000000 1.0
C      1  0.5219890000000  0.5826030000000  0.4781090000000 1.0
C      1  0.5868840000000  0.4666250000000  0.5406400000000 1.0
C      1  0.5458340000000  0.4883930000000  0.4078710000000 1.0
C      1  0.5507660000000  0.5624220000000  0.5118900000000 1.0
C      1  0.4836050000000  0.4398100000000  0.5740270000000 1.0
C      1  0.4251410000000  0.4460890000000  0.5071430000000 1.0
C      1  0.4957680000000  0.5095840000000  0.5864570000000 1.0
C      1  0.4208680000000  0.5138170000000  0.5287290000000 1.0
C      1  0.4574040000000  0.5467920000000  0.5577630000000 1.0
C      1  0.4819270000000  0.5507900000000  0.5740220000000 1.0
C      1  0.4274940000000  0.5379750000000  0.4657330000000 1.0
C      1  0.4841230000000  0.4806270000000  0.5911420000000 1.0
C      1  0.5325760000000  0.5290740000000  0.4267260000000 1.0
C      1  0.4556370000000  0.4827060000000  0.5645260000000 1.0
C      1  0.4923490000000  0.5927210000000  0.5470310000000 1.0
C      1  0.4230690000000  0.5094560000000  0.4670850000000 1.0
C      1  0.4603280000000  0.4147490000000  0.4894180000000 1.0
C      1  0.5258430000000  0.4465770000000  0.4296850000000 1.0
C      1  0.4659530000000  0.4786070000000  0.5107000000000 1.0
C      1  0.4582060000000  0.5278450000000  0.5037800000000 1.0
C      1  0.5242410000000  0.4949490000000  0.5296730000000 1.0
C      1  0.5238990000000  0.4900260000000  0.3905740000000 1.0
C      1  0.4150710000000  0.4877990000000  0.4861590000000 1.0
C      1  0.5225290000000  0.4311410000000  0.4537020000000 1.0
C      1  0.4523710000000  0.4718750000000  0.4495200000000 1.0
C      1  0.5378030000000  0.4773260000000  0.5099390000000 1.0
C      1  0.5045090000000  0.4847500000000  0.5475190000000 1.0
C      1  0.5076160000000  0.5792870000000  0.5045750000000 1.0
C      1  0.5362880000000  0.5522550000000  0.4447430000000 1.0
C      1  0.4771320000000  0.4701080000000  0.4307770000000 1.0
C      1  0.4841330000000  0.4943810000000  0.4901020000000 1.0
C      1  0.5074050000000  0.4261960000000  0.5702800000000 1.0
C      1  0.5452000000000  0.4673760000000  0.4277030000000 1.0
C      1  0.4781250000000  0.5312190000000  0.5962580000000 1.0
C      1  0.5146370000000  0.5079980000000  0.4421030000000 1.0
C      1  0.5109190000000  0.5623090000000  0.4584150000000 1.0
C      1  0.4497660000000  0.5200160000000  0.5962610000000 1.0
C      1  0.5406840000000  0.5244320000000  0.4846600000000 1.0
C      1  0.4504840000000  0.5060410000000  0.5218960000000 1.0
C      1  0.4977820000000  0.4832510000000  0.3889690000000 1.0
C      1  0.4899730000000  0.4171790000000  0.4874780000000 1.0
END
