TITL C-950523-3027-424 -2.64214766745219e-07 125000 -138.610577915533 0 0 24 (C1) n - 1
REM
REM in /home/bkarasulu/work/CARBON/AIRSS/Generating-Clusters/EDIP-Nigel-Params/with-SteepDescent/Only-C1/SD-CG/HFTN-CG
REM
REM
REM
REM
REM
REM ./C.cell (11c1c37f851c82e70ff6c80c92926a4b)
REM
REM compiler GCC version 9.2.1 20190827 (Red Hat 9.2.1-1)
REM options -cpp -mtune=generic -march=x86-64 -g -O0 -fpre-include=/usr/include/finclude/math-vector-fortran.h
REM seed 781014826 -1613620153 1854680456 724457103 -909482593 -309512508 -810447691 179795901 -973548045 -828267056 1451899549 1058180769 1195931747 1357003603 -828447206 1142092673 123803113 -51919671 -243867623 2081016670 -1827983304 -897615278 -816936385 173598967 69111212 -255330173 909503935 -1682624158 1240035477 -224945121 1093709936 1770408739 2134018762
REM
CELL 1.54180   50.00000   50.00000   50.00000   90.00000   90.00000   90.00000
LATT -1
SFAC C  
C      1  0.4546180000000  0.4904990000000  0.5156540000000 1.0
C      1  0.4879010000000  0.4625620000000  0.5334970000000 1.0
C      1  0.4682390000000  0.5136260000000  0.5065780000000 1.0
C      1  0.4657210000000  0.4646600000000  0.5165950000000 1.0
C      1  0.4944060000000  0.5021630000000  0.4621300000000 1.0
C      1  0.4799300000000  0.5298790000000  0.5288500000000 1.0
C      1  0.5185410000000  0.5119290000000  0.5044440000000 1.0
C      1  0.5359650000000  0.4957540000000  0.4842220000000 1.0
C      1  0.5340560000000  0.4662950000000  0.4896550000000 1.0
C      1  0.5234750000000  0.5408040000000  0.5047360000000 1.0
C      1  0.5346410000000  0.5216680000000  0.4438960000000 1.0
C      1  0.4958960000000  0.5799220000000  0.5232090000000 1.0
C      1  0.5326760000000  0.4610270000000  0.5170510000000 1.0
C      1  0.5239430000000  0.5009700000000  0.4569640000000 1.0
C      1  0.4849780000000  0.5707370000000  0.5001340000000 1.0
C      1  0.4938520000000  0.5134500000000  0.5471330000000 1.0
C      1  0.5143580000000  0.4720910000000  0.5349720000000 1.0
C      1  0.5154150000000  0.5014000000000  0.5334170000000 1.0
C      1  0.4862240000000  0.4564770000000  0.4690420000000 1.0
C      1  0.5136650000000  0.4539780000000  0.4744520000000 1.0
C      1  0.4699160000000  0.4531310000000  0.4915020000000 1.0
C      1  0.4801850000000  0.4792730000000  0.4534840000000 1.0
C      1  0.4925480000000  0.5067870000000  0.4911520000000 1.0
C      1  0.4988500000000  0.5509160000000  0.5172320000000 1.0
END
