TITL C-951333-8791-240 -9.75289666801204e-08 125000 -18.673607918935 0 0 4 (Cs) n - 1
REM
REM in /home/bkarasulu/work/CARBON/AIRSS/Generating-Clusters/EDIP-Nigel-Params/with-SteepDescent/Only-C1/SD-CG/HFTN-CG
REM
REM
REM
REM
REM
REM ./C.cell (11c1c37f851c82e70ff6c80c92926a4b)
REM
REM compiler GCC version 9.2.1 20190827 (Red Hat 9.2.1-1)
REM options -cpp -mtune=generic -march=x86-64 -g -O0 -fpre-include=/usr/include/finclude/math-vector-fortran.h
REM seed 71973826 1595029080 -1664992012 943168689 -1008307785 -1834661048 1380467529 -2099726520 -992660994 -342956663 -1043875824 1756160965 -58865347 -2145697099 -1292212627 433112280 1320460459 -702476788 1805989730 1701521339 -1421215949 -2145690643 -848493250 -626603102 -541125623 -803545731 816568241 -1007069279 -1193916726 589646152 -990845142 -1682430364 -1761626995
REM
CELL 1.54180   50.00000   50.00000   50.00000   90.00000   90.00000   90.00000
LATT -1
SFAC C  
C      1  0.5076520000000  0.5163060000000  0.5123160000000 1.0
C      1  0.5026470000000  0.5163620000000  0.4858090000000 1.0
C      1  0.4907060000000  0.4961910000000  0.5017470000000 1.0
C      1  0.4989940000000  0.4711400000000  0.5001290000000 1.0
END
