TITL C-951348-1603-51 4.40352178339993e-07 125000 -151.262572198783 0 0 27 (C1) n - 1
REM
REM in /home/bkarasulu/work/CARBON/AIRSS/Generating-Clusters/EDIP-Nigel-Params/with-SteepDescent/Only-C1/SD-CG/HFTN-CG
REM
REM
REM
REM
REM
REM ./C.cell (11c1c37f851c82e70ff6c80c92926a4b)
REM
REM compiler GCC version 9.2.1 20190827 (Red Hat 9.2.1-1)
REM options -cpp -mtune=generic -march=x86-64 -g -O0 -fpre-include=/usr/include/finclude/math-vector-fortran.h
REM seed -657505336 -862121013 -971405739 16435834 1319433524 1591979224 -374870314 1568713022 -304970122 -1046243703 1046775578 1637991876 -2090700835 -2141918366 1041711280 -2096311940 1588448367 362000777 -1281537463 274809411 2119448179 1343403591 1925051388 -488439579 -678776415 -84686992 1114616624 914625697 -64794842 474982955 -1137365798 1331992891 -1038616306
REM
CELL 1.54180   50.00000   50.00000   50.00000   90.00000   90.00000   90.00000
LATT -1
SFAC C  
C      1  0.5276460000000  0.5091370000000  0.5279040000000 1.0
C      1  0.4517910000000  0.4969440000000  0.5234630000000 1.0
C      1  0.5423840000000  0.5314050000000  0.5256720000000 1.0
C      1  0.5323380000000  0.4302560000000  0.5166980000000 1.0
C      1  0.4690000000000  0.5458920000000  0.5064950000000 1.0
C      1  0.5496500000000  0.5287700000000  0.4779400000000 1.0
C      1  0.4937060000000  0.4665600000000  0.5213900000000 1.0
C      1  0.4965780000000  0.5392340000000  0.5080390000000 1.0
C      1  0.5322720000000  0.5046130000000  0.5539010000000 1.0
C      1  0.5206990000000  0.4702110000000  0.4495240000000 1.0
C      1  0.4789420000000  0.5294920000000  0.4638530000000 1.0
C      1  0.5139370000000  0.4855310000000  0.5627150000000 1.0
C      1  0.4602710000000  0.5274040000000  0.4866900000000 1.0
C      1  0.4716990000000  0.4660290000000  0.4558260000000 1.0
C      1  0.4732340000000  0.5044950000000  0.4498200000000 1.0
C      1  0.4627260000000  0.4980830000000  0.4955630000000 1.0
C      1  0.5070880000000  0.5370070000000  0.4784160000000 1.0
C      1  0.4899060000000  0.4789940000000  0.5488000000000 1.0
C      1  0.4921210000000  0.4895280000000  0.5011950000000 1.0
C      1  0.5153910000000  0.4492410000000  0.5196940000000 1.0
C      1  0.5393770000000  0.5429290000000  0.4996960000000 1.0
C      1  0.5231800000000  0.4884170000000  0.4703440000000 1.0
C      1  0.4560290000000  0.4876770000000  0.4668300000000 1.0
C      1  0.5271860000000  0.5165760000000  0.4666620000000 1.0
C      1  0.4994480000000  0.5122350000000  0.5204350000000 1.0
C      1  0.4749400000000  0.5032530000000  0.5397950000000 1.0
C      1  0.4984600000000  0.4600880000000  0.4626410000000 1.0
END
