TITL C-950531-5884-59 0.000120558775921409 125000 -355.374353393529 0 0 60 (C1) n - 1
REM
REM in /home/bkarasulu/work/CARBON/AIRSS/Generating-Clusters/EDIP-Nigel-Params/with-SteepDescent/Only-C1/SD-CG/HFTN-CG
REM
REM
REM
REM
REM
REM ./C.cell (11c1c37f851c82e70ff6c80c92926a4b)
REM
REM compiler GCC version 9.2.1 20190827 (Red Hat 9.2.1-1)
REM options -cpp -mtune=generic -march=x86-64 -g -O0 -fpre-include=/usr/include/finclude/math-vector-fortran.h
REM seed -1509853936 160397203 2022987236 1708501896 -1365760127 -1959181349 -2062700811 774497110 -1121251256 -1163507540 1412122987 1067016701 -888748173 206992187 1977710242 -2020551240 1677990756 1929703755 1119985048 -420391148 -26904041 -131141701 -2011957584 -1922151784 1840384814 -1485106160 1293041097 2031293206 -482839180 496607171 796550388 -27463947 1406754344
REM
CELL 1.54180   50.00000   50.00000   50.00000   90.00000   90.00000   90.00000
LATT -1
SFAC C  
C      1  0.4580230000000  0.5339260000000  0.4958270000000 1.0
C      1  0.5657810000000  0.4801970000000  0.4692390000000 1.0
C      1  0.5248740000000  0.5402010000000  0.5395850000000 1.0
C      1  0.5938730000000  0.4841120000000  0.5079760000000 1.0
C      1  0.5326000000000  0.4621140000000  0.5428890000000 1.0
C      1  0.5078220000000  0.4511620000000  0.4750360000000 1.0
C      1  0.5129830000000  0.5109840000000  0.5087480000000 1.0
C      1  0.5065780000000  0.4867300000000  0.4241370000000 1.0
C      1  0.4466620000000  0.5242040000000  0.5519430000000 1.0
C      1  0.5302670000000  0.5035810000000  0.5693970000000 1.0
C      1  0.5384300000000  0.4990450000000  0.5032070000000 1.0
C      1  0.4837570000000  0.4975490000000  0.4780470000000 1.0
C      1  0.5116990000000  0.5407240000000  0.4660610000000 1.0
C      1  0.4812670000000  0.4745380000000  0.4353380000000 1.0
C      1  0.5203410000000  0.4782410000000  0.5633480000000 1.0
C      1  0.4196560000000  0.5161410000000  0.4827310000000 1.0
C      1  0.5367730000000  0.5656880000000  0.5057580000000 1.0
C      1  0.5190890000000  0.5286760000000  0.5655470000000 1.0
C      1  0.4694750000000  0.5061370000000  0.5017380000000 1.0
C      1  0.5478080000000  0.4480050000000  0.4991920000000 1.0
C      1  0.4881680000000  0.4499920000000  0.4529500000000 1.0
C      1  0.5354910000000  0.5575730000000  0.4767820000000 1.0
C      1  0.5024240000000  0.4333950000000  0.4975610000000 1.0
C      1  0.5758850000000  0.4666780000000  0.5191530000000 1.0
C      1  0.5274590000000  0.4303450000000  0.5124450000000 1.0
C      1  0.4709260000000  0.4865880000000  0.5634220000000 1.0
C      1  0.4288840000000  0.4881550000000  0.4849490000000 1.0
C      1  0.4322560000000  0.5393360000000  0.5109050000000 1.0
C      1  0.5368130000000  0.4558330000000  0.4726970000000 1.0
C      1  0.4570280000000  0.4220850000000  0.5198840000000 1.0
C      1  0.4459470000000  0.5486940000000  0.5354020000000 1.0
C      1  0.5313510000000  0.4768550000000  0.4328080000000 1.0
C      1  0.4796770000000  0.4385820000000  0.5150260000000 1.0
C      1  0.5554380000000  0.5358370000000  0.4725210000000 1.0
C      1  0.4311550000000  0.5340140000000  0.4642370000000 1.0
C      1  0.4924650000000  0.5307490000000  0.5738880000000 1.0
C      1  0.5244810000000  0.4353990000000  0.5401030000000 1.0
C      1  0.5473240000000  0.4723160000000  0.5186170000000 1.0
C      1  0.4537190000000  0.4437450000000  0.5037900000000 1.0
C      1  0.4724450000000  0.5596110000000  0.5287560000000 1.0
C      1  0.4795090000000  0.5716290000000  0.5040060000000 1.0
C      1  0.5502720000000  0.5424370000000  0.5214060000000 1.0
C      1  0.5058150000000  0.5145140000000  0.4236730000000 1.0
C      1  0.5603830000000  0.5200360000000  0.4982870000000 1.0
C      1  0.4482210000000  0.4862420000000  0.5093290000000 1.0
C      1  0.5470630000000  0.5210050000000  0.4481080000000 1.0
C      1  0.4435120000000  0.4780980000000  0.4592000000000 1.0
C      1  0.4939040000000  0.4723210000000  0.5698790000000 1.0
C      1  0.5090860000000  0.5124760000000  0.4798950000000 1.0
C      1  0.5110370000000  0.5633660000000  0.5242710000000 1.0
C      1  0.4330970000000  0.5007990000000  0.5399420000000 1.0
C      1  0.5799970000000  0.4977680000000  0.4880790000000 1.0
C      1  0.4676500000000  0.4951320000000  0.4535550000000 1.0
C      1  0.5211260000000  0.5332540000000  0.4379190000000 1.0
C      1  0.4721010000000  0.5151830000000  0.5626920000000 1.0
C      1  0.5484890000000  0.4917700000000  0.4493820000000 1.0
C      1  0.4569140000000  0.5466080000000  0.4646930000000 1.0
C      1  0.4664000000000  0.5698440000000  0.4790160000000 1.0
C      1  0.4590710000000  0.4520970000000  0.4584880000000 1.0
C      1  0.4492600000000  0.4776850000000  0.5465380000000 1.0
END
