TITL C-951345-2650-513 -1.14082919106129e-06 125000 -1012.56391421196 0 0 161 (C1) n - 1
REM
REM in /home/bkarasulu/work/CARBON/AIRSS/Generating-Clusters/EDIP-Nigel-Params/with-SteepDescent/Only-C1/SD-CG/HFTN-CG
REM
REM
REM
REM
REM
REM ./C.cell (11c1c37f851c82e70ff6c80c92926a4b)
REM
REM compiler GCC version 9.2.1 20190827 (Red Hat 9.2.1-1)
REM options -cpp -mtune=generic -march=x86-64 -g -O0 -fpre-include=/usr/include/finclude/math-vector-fortran.h
REM seed 1463786042 1751791286 1268493103 -576690449 183482268 1638487695 -1703140564 68992804 -93105633 -381351731 2081186053 430052688 -1463787608 170114566 -2140726860 -1107379576 -1730197815 -1715569451 -1392556763 -2005342278 -1751018431 1807274488 1004111086 2135229103 -107942011 -1110632621 -809187993 1017745766 1574670697 -111158366 -1610289993 1921984844 326869398
REM
CELL 1.54180   50.00000   50.00000   50.00000   90.00000   90.00000   90.00000
LATT -1
SFAC C  
C      1  0.4092290000000  0.4718750000000  0.4509020000000 1.0
C      1  0.5389050000000  0.5043950000000  0.6038430000000 1.0
C      1  0.4385430000000  0.5826250000000  0.5279650000000 1.0
C      1  0.4643420000000  0.5449990000000  0.4665850000000 1.0
C      1  0.5191730000000  0.4040930000000  0.5064960000000 1.0
C      1  0.5062310000000  0.4895720000000  0.5288310000000 1.0
C      1  0.5545560000000  0.4583800000000  0.4315530000000 1.0
C      1  0.4002120000000  0.4890500000000  0.4735330000000 1.0
C      1  0.5289900000000  0.5785430000000  0.5469410000000 1.0
C      1  0.4306980000000  0.5245390000000  0.4262290000000 1.0
C      1  0.4896150000000  0.5524510000000  0.5427090000000 1.0
C      1  0.4399960000000  0.5326910000000  0.5095390000000 1.0
C      1  0.4843290000000  0.5904150000000  0.4376990000000 1.0
C      1  0.4799000000000  0.5035460000000  0.5281270000000 1.0
C      1  0.4876430000000  0.6000910000000  0.5520640000000 1.0
C      1  0.4310610000000  0.4866560000000  0.4338220000000 1.0
C      1  0.5020450000000  0.5738830000000  0.5597070000000 1.0
C      1  0.4886290000000  0.5077480000000  0.4553370000000 1.0
C      1  0.4611830000000  0.4855490000000  0.5117330000000 1.0
C      1  0.5668050000000  0.4824180000000  0.5006970000000 1.0
C      1  0.4627870000000  0.5213200000000  0.4485150000000 1.0
C      1  0.4594500000000  0.5591320000000  0.4069330000000 1.0
C      1  0.5268950000000  0.4854820000000  0.4014080000000 1.0
C      1  0.5652380000000  0.4267830000000  0.5125590000000 1.0
C      1  0.4661980000000  0.5425810000000  0.4968630000000 1.0
C      1  0.4419000000000  0.5868660000000  0.4783100000000 1.0
C      1  0.4759870000000  0.4445920000000  0.5353100000000 1.0
C      1  0.5917160000000  0.5549240000000  0.4926900000000 1.0
C      1  0.5754580000000  0.5084690000000  0.4850760000000 1.0
C      1  0.5061400000000  0.5579840000000  0.4725230000000 1.0
C      1  0.5176610000000  0.4827540000000  0.5985490000000 1.0
C      1  0.4833450000000  0.4757420000000  0.4921900000000 1.0
C      1  0.4160920000000  0.4431560000000  0.4919200000000 1.0
C      1  0.5130520000000  0.4083860000000  0.5568880000000 1.0
C      1  0.5075240000000  0.5265460000000  0.5734540000000 1.0
C      1  0.5248430000000  0.5403920000000  0.4532180000000 1.0
C      1  0.5265250000000  0.4546110000000  0.5900630000000 1.0
C      1  0.5288420000000  0.5030950000000  0.4805160000000 1.0
C      1  0.5453970000000  0.4072200000000  0.5209720000000 1.0
C      1  0.5516420000000  0.4662030000000  0.4746830000000 1.0
C      1  0.4333760000000  0.4295440000000  0.4428050000000 1.0
C      1  0.3990880000000  0.4613710000000  0.5056570000000 1.0
C      1  0.4149790000000  0.4895660000000  0.5437940000000 1.0
C      1  0.5043060000000  0.4399560000000  0.4077680000000 1.0
C      1  0.5595900000000  0.4912430000000  0.5872480000000 1.0
C      1  0.4851880000000  0.4244950000000  0.4730050000000 1.0
C      1  0.5014720000000  0.5279780000000  0.4037160000000 1.0
C      1  0.4214930000000  0.5165360000000  0.5547650000000 1.0
C      1  0.5015000000000  0.5149660000000  0.4812600000000 1.0
C      1  0.5599900000000  0.5085900000000  0.4250400000000 1.0
C      1  0.5555940000000  0.5869420000000  0.4964360000000 1.0
C      1  0.5134310000000  0.5150410000000  0.4385560000000 1.0
C      1  0.5591620000000  0.4142620000000  0.4670270000000 1.0
C      1  0.3882980000000  0.5092430000000  0.5044580000000 1.0
C      1  0.4583790000000  0.4421970000000  0.4346080000000 1.0
C      1  0.5244720000000  0.5887730000000  0.5183640000000 1.0
C      1  0.5769550000000  0.5094190000000  0.5729550000000 1.0
C      1  0.3928940000000  0.5362480000000  0.5116630000000 1.0
C      1  0.5104320000000  0.4778290000000  0.5034300000000 1.0
C      1  0.4696410000000  0.4475340000000  0.4610580000000 1.0
C      1  0.4526200000000  0.4691780000000  0.4206860000000 1.0
C      1  0.4709900000000  0.5915010000000  0.4886570000000 1.0
C      1  0.5772470000000  0.5669920000000  0.5396210000000 1.0
C      1  0.5091360000000  0.4692050000000  0.4455560000000 1.0
C      1  0.5069120000000  0.5558490000000  0.4122290000000 1.0
C      1  0.4964600000000  0.4542960000000  0.5536930000000 1.0
C      1  0.5554750000000  0.5476850000000  0.5798360000000 1.0
C      1  0.4755710000000  0.5134870000000  0.4075420000000 1.0
C      1  0.5520520000000  0.4642470000000  0.5772130000000 1.0
C      1  0.5498250000000  0.5257350000000  0.4768030000000 1.0
C      1  0.5264560000000  0.5148650000000  0.3967350000000 1.0
C      1  0.5774880000000  0.4661100000000  0.4573340000000 1.0
C      1  0.5591610000000  0.5785460000000  0.4672230000000 1.0
C      1  0.4748190000000  0.6128830000000  0.5097030000000 1.0
C      1  0.4536760000000  0.4132280000000  0.5110400000000 1.0
C      1  0.4689980000000  0.5310360000000  0.5502650000000 1.0
C      1  0.4401450000000  0.4392630000000  0.5089740000000 1.0
C      1  0.5574390000000  0.5375930000000  0.5243940000000 1.0
C      1  0.5793100000000  0.4233650000000  0.4868210000000 1.0
C      1  0.5278090000000  0.4480550000000  0.5388290000000 1.0
C      1  0.5323550000000  0.4335760000000  0.4198500000000 1.0
C      1  0.4393420000000  0.5359080000000  0.5394510000000 1.0
C      1  0.5136590000000  0.3892000000000  0.4547650000000 1.0
C      1  0.4736750000000  0.5685670000000  0.5051400000000 1.0
C      1  0.5151190000000  0.4303000000000  0.4913980000000 1.0
C      1  0.4527160000000  0.5317370000000  0.4078250000000 1.0
C      1  0.4451500000000  0.4984480000000  0.4569250000000 1.0
C      1  0.4188330000000  0.4460520000000  0.4614340000000 1.0
C      1  0.5028180000000  0.4321110000000  0.5742810000000 1.0
C      1  0.5313820000000  0.5345830000000  0.5928640000000 1.0
C      1  0.5185370000000  0.6000880000000  0.4510610000000 1.0
C      1  0.4322880000000  0.4197830000000  0.5648120000000 1.0
C      1  0.5077960000000  0.5416670000000  0.5217120000000 1.0
C      1  0.4160800000000  0.5471550000000  0.4978910000000 1.0
C      1  0.4451340000000  0.5654330000000  0.4561950000000 1.0
C      1  0.5803680000000  0.5352080000000  0.5838270000000 1.0
C      1  0.4591970000000  0.5379080000000  0.5795560000000 1.0
C      1  0.4640690000000  0.4736370000000  0.5863450000000 1.0
C      1  0.5221110000000  0.3837750000000  0.4829270000000 1.0
C      1  0.5550550000000  0.4605370000000  0.5470810000000 1.0
C      1  0.4567420000000  0.6056560000000  0.5328750000000 1.0
C      1  0.5872160000000  0.5407340000000  0.4460580000000 1.0
C      1  0.5930870000000  0.5240980000000  0.5299170000000 1.0
C      1  0.4221820000000  0.5473620000000  0.4461120000000 1.0
C      1  0.5927700000000  0.4489590000000  0.4783440000000 1.0
C      1  0.4343550000000  0.5633790000000  0.5497500000000 1.0
C      1  0.4251410000000  0.5767720000000  0.5012100000000 1.0
C      1  0.4626610000000  0.4467890000000  0.5936420000000 1.0
C      1  0.4956380000000  0.5859240000000  0.4652450000000 1.0
C      1  0.5309680000000  0.5288540000000  0.5359960000000 1.0
C      1  0.4836840000000  0.4799420000000  0.5654660000000 1.0
C      1  0.4754320000000  0.4240730000000  0.5841530000000 1.0
C      1  0.4588990000000  0.4108740000000  0.5628360000000 1.0
C      1  0.5040860000000  0.5624810000000  0.5893580000000 1.0
C      1  0.5879950000000  0.4954310000000  0.4604860000000 1.0
C      1  0.5787810000000  0.5045290000000  0.5446870000000 1.0
C      1  0.5309670000000  0.4896650000000  0.4520320000000 1.0
C      1  0.5080110000000  0.4954850000000  0.5727030000000 1.0
C      1  0.5934080000000  0.4672190000000  0.5020830000000 1.0
C      1  0.4677300000000  0.4073140000000  0.4880150000000 1.0
C      1  0.5535770000000  0.5654850000000  0.5562300000000 1.0
C      1  0.5791240000000  0.5575800000000  0.4667090000000 1.0
C      1  0.4828270000000  0.5690590000000  0.4189600000000 1.0
C      1  0.4760730000000  0.4840730000000  0.4110610000000 1.0
C      1  0.4816590000000  0.4741850000000  0.4626310000000 1.0
C      1  0.4860050000000  0.5376630000000  0.5929050000000 1.0
C      1  0.5487410000000  0.3873600000000  0.4711920000000 1.0
C      1  0.5001700000000  0.6085620000000  0.5256870000000 1.0
C      1  0.4474580000000  0.5649080000000  0.5751580000000 1.0
C      1  0.5568930000000  0.4875780000000  0.5329990000000 1.0
C      1  0.4199250000000  0.4435930000000  0.5619620000000 1.0
C      1  0.5030820000000  0.4704460000000  0.4148010000000 1.0
C      1  0.5845220000000  0.5139560000000  0.4384750000000 1.0
C      1  0.4242940000000  0.5061700000000  0.4757480000000 1.0
C      1  0.5293730000000  0.5007390000000  0.5426320000000 1.0
C      1  0.4886820000000  0.5242850000000  0.5061630000000 1.0
C      1  0.5331810000000  0.5553310000000  0.4276160000000 1.0
C      1  0.5766340000000  0.4424210000000  0.5347560000000 1.0
C      1  0.5526180000000  0.4824290000000  0.4144690000000 1.0
C      1  0.4934150000000  0.4093550000000  0.4488710000000 1.0
C      1  0.4827760000000  0.4241010000000  0.4234130000000 1.0
C      1  0.5936510000000  0.5266400000000  0.5014870000000 1.0
C      1  0.5478010000000  0.5309260000000  0.4111680000000 1.0
C      1  0.4716840000000  0.4156710000000  0.5350860000000 1.0
C      1  0.5368000000000  0.4197060000000  0.5459280000000 1.0
C      1  0.4380260000000  0.5040860000000  0.5024320000000 1.0
C      1  0.4986830000000  0.4016820000000  0.5315200000000 1.0
C      1  0.4335010000000  0.4678110000000  0.5545940000000 1.0
C      1  0.5410300000000  0.5827120000000  0.4439940000000 1.0
C      1  0.4004560000000  0.4867370000000  0.5179830000000 1.0
C      1  0.5226120000000  0.4420290000000  0.4477380000000 1.0
C      1  0.4136250000000  0.5342890000000  0.4710290000000 1.0
C      1  0.5386930000000  0.4368250000000  0.4720210000000 1.0
C      1  0.5481860000000  0.5485350000000  0.4974420000000 1.0
C      1  0.6000860000000  0.4550790000000  0.5266000000000 1.0
C      1  0.4396600000000  0.4876930000000  0.5866000000000 1.0
C      1  0.4516890000000  0.4604980000000  0.5285590000000 1.0
C      1  0.5213580000000  0.4521950000000  0.5099820000000 1.0
C      1  0.5197330000000  0.5608790000000  0.5009390000000 1.0
C      1  0.5795440000000  0.5752500000000  0.5116690000000 1.0
C      1  0.4361050000000  0.5156540000000  0.5807660000000 1.0
END
