TITL C-950527-2551-671 -4.34194700443002e-06 125000 -957.930298874414 0 0 152 (C1) n - 1
REM
REM in /home/bkarasulu/work/CARBON/AIRSS/Generating-Clusters/EDIP-Nigel-Params/with-SteepDescent/Only-C1/SD-CG/HFTN-CG
REM
REM
REM
REM
REM
REM ./C.cell (11c1c37f851c82e70ff6c80c92926a4b)
REM
REM compiler GCC version 9.2.1 20190827 (Red Hat 9.2.1-1)
REM options -cpp -mtune=generic -march=x86-64 -g -O0 -fpre-include=/usr/include/finclude/math-vector-fortran.h
REM seed 351162305 -982779543 -825052738 1370613952 690701298 500029682 -1863842017 1351979209 -655801149 -2132943459 1846366006 1777309523 1909863514 1983869254 1597711554 -871870925 1051266405 97939035 1945858580 -871794242 -285195461 -1182851724 -376600551 -396468878 -659283578 981268287 -1258149532 -112704121 1517029385 679848755 -1441621792 715875438 1969653132
REM
CELL 1.54180   50.00000   50.00000   50.00000   90.00000   90.00000   90.00000
LATT -1
SFAC C  
C      1  0.5593720000000  0.4823560000000  0.3965110000000 1.0
C      1  0.5855070000000  0.5664660000000  0.4930520000000 1.0
C      1  0.5404540000000  0.5158180000000  0.4461090000000 1.0
C      1  0.5122740000000  0.4228140000000  0.4518340000000 1.0
C      1  0.4995280000000  0.5542460000000  0.4155690000000 1.0
C      1  0.3951180000000  0.5035800000000  0.4675870000000 1.0
C      1  0.4513220000000  0.5835590000000  0.4627900000000 1.0
C      1  0.5039800000000  0.4753080000000  0.4454260000000 1.0
C      1  0.5034010000000  0.5852410000000  0.5579400000000 1.0
C      1  0.4509410000000  0.4268820000000  0.5001390000000 1.0
C      1  0.5484230000000  0.5100690000000  0.3948630000000 1.0
C      1  0.4918510000000  0.5458850000000  0.5430290000000 1.0
C      1  0.4990440000000  0.5988670000000  0.4700350000000 1.0
C      1  0.4881130000000  0.4862060000000  0.3965950000000 1.0
C      1  0.5258860000000  0.5093150000000  0.5421860000000 1.0
C      1  0.4838890000000  0.4851440000000  0.5238400000000 1.0
C      1  0.5076300000000  0.5605120000000  0.4913650000000 1.0
C      1  0.4832080000000  0.4727320000000  0.4235980000000 1.0
C      1  0.5002960000000  0.6030310000000  0.4997500000000 1.0
C      1  0.4291860000000  0.4141720000000  0.4861060000000 1.0
C      1  0.5496690000000  0.6002570000000  0.5006120000000 1.0
C      1  0.4715860000000  0.4451100000000  0.4230250000000 1.0
C      1  0.5792770000000  0.4805880000000  0.4401140000000 1.0
C      1  0.5560220000000  0.4400420000000  0.5395220000000 1.0
C      1  0.5337700000000  0.4698810000000  0.4055060000000 1.0
C      1  0.5858830000000  0.5225450000000  0.5709990000000 1.0
C      1  0.5445470000000  0.4166620000000  0.5519990000000 1.0
C      1  0.4782420000000  0.5633910000000  0.4340290000000 1.0
C      1  0.5203340000000  0.5760600000000  0.4477690000000 1.0
C      1  0.5768650000000  0.5472420000000  0.5167120000000 1.0
C      1  0.5195140000000  0.4747400000000  0.6042480000000 1.0
C      1  0.4207210000000  0.5302220000000  0.4973910000000 1.0
C      1  0.4655780000000  0.4043210000000  0.4524140000000 1.0
C      1  0.4858740000000  0.5214610000000  0.5604940000000 1.0
C      1  0.6042840000000  0.4937380000000  0.4783990000000 1.0
C      1  0.4083850000000  0.4570760000000  0.4592290000000 1.0
C      1  0.4852680000000  0.5156130000000  0.4467340000000 1.0
C      1  0.5382630000000  0.5250980000000  0.4177750000000 1.0
C      1  0.5677200000000  0.5560210000000  0.5437600000000 1.0
C      1  0.4522290000000  0.4853280000000  0.5690590000000 1.0
C      1  0.5852080000000  0.5011140000000  0.5385500000000 1.0
C      1  0.4725380000000  0.5269800000000  0.5870860000000 1.0
C      1  0.4003830000000  0.4977400000000  0.5237250000000 1.0
C      1  0.4069420000000  0.5041500000000  0.5500140000000 1.0
C      1  0.4973440000000  0.4208050000000  0.5307990000000 1.0
C      1  0.5181030000000  0.4504930000000  0.5615430000000 1.0
C      1  0.5170580000000  0.4125610000000  0.5522070000000 1.0
C      1  0.4629100000000  0.4904790000000  0.4373340000000 1.0
C      1  0.5143470000000  0.5116890000000  0.4896940000000 1.0
C      1  0.5653990000000  0.5050130000000  0.5614570000000 1.0
C      1  0.4494730000000  0.5586890000000  0.4262130000000 1.0
C      1  0.5364770000000  0.4386380000000  0.4447270000000 1.0
C      1  0.5506450000000  0.4866040000000  0.4500300000000 1.0
C      1  0.4364330000000  0.5664230000000  0.5739110000000 1.0
C      1  0.4102080000000  0.4808850000000  0.4783500000000 1.0
C      1  0.5979220000000  0.5022400000000  0.4508810000000 1.0
C      1  0.4868990000000  0.3976020000000  0.4846150000000 1.0
C      1  0.4884190000000  0.4714290000000  0.4732820000000 1.0
C      1  0.5035480000000  0.5653560000000  0.5806500000000 1.0
C      1  0.4605400000000  0.5295380000000  0.4673820000000 1.0
C      1  0.4309550000000  0.5561970000000  0.4998490000000 1.0
C      1  0.5639030000000  0.4866550000000  0.6045950000000 1.0
C      1  0.5507190000000  0.5821530000000  0.4562490000000 1.0
C      1  0.4320290000000  0.5616170000000  0.5271870000000 1.0
C      1  0.4908540000000  0.5130150000000  0.6074290000000 1.0
C      1  0.5336940000000  0.4862510000000  0.5250510000000 1.0
C      1  0.5774930000000  0.5154450000000  0.5117210000000 1.0
C      1  0.4766800000000  0.5566350000000  0.5900250000000 1.0
C      1  0.4362390000000  0.4464040000000  0.4501170000000 1.0
C      1  0.4338770000000  0.5773410000000  0.4413270000000 1.0
C      1  0.5815180000000  0.4763460000000  0.4121570000000 1.0
C      1  0.4386130000000  0.4171750000000  0.4583660000000 1.0
C      1  0.4357010000000  0.5213260000000  0.4540400000000 1.0
C      1  0.5896290000000  0.4713400000000  0.5374150000000 1.0
C      1  0.4355240000000  0.5309100000000  0.4262180000000 1.0
C      1  0.4824020000000  0.3984010000000  0.5161530000000 1.0
C      1  0.4278620000000  0.4422130000000  0.5484010000000 1.0
C      1  0.5385060000000  0.5568320000000  0.5490390000000 1.0
C      1  0.4450800000000  0.5133630000000  0.5807620000000 1.0
C      1  0.5381340000000  0.4947570000000  0.6150550000000 1.0
C      1  0.4056580000000  0.4813830000000  0.5662350000000 1.0
C      1  0.5395780000000  0.4963470000000  0.4983340000000 1.0
C      1  0.4548470000000  0.5593590000000  0.4812080000000 1.0
C      1  0.4768650000000  0.5903440000000  0.5135530000000 1.0
C      1  0.4769650000000  0.4732600000000  0.5807520000000 1.0
C      1  0.4054840000000  0.4296460000000  0.4939320000000 1.0
C      1  0.4554980000000  0.5746870000000  0.5906770000000 1.0
C      1  0.5307600000000  0.4147570000000  0.4974480000000 1.0
C      1  0.5611160000000  0.4349850000000  0.4617240000000 1.0
C      1  0.4947470000000  0.4466870000000  0.4887410000000 1.0
C      1  0.4664580000000  0.4620220000000  0.5265490000000 1.0
C      1  0.4779380000000  0.5635790000000  0.5002960000000 1.0
C      1  0.4939730000000  0.5248680000000  0.4176670000000 1.0
C      1  0.5208280000000  0.5189360000000  0.6067230000000 1.0
C      1  0.5733120000000  0.4575500000000  0.5583610000000 1.0
C      1  0.4444320000000  0.4573720000000  0.5065020000000 1.0
C      1  0.4874940000000  0.4950250000000  0.4950310000000 1.0
C      1  0.4597620000000  0.5087010000000  0.4912440000000 1.0
C      1  0.3916020000000  0.4379380000000  0.4707450000000 1.0
C      1  0.4493430000000  0.5071630000000  0.4138380000000 1.0
C      1  0.4725090000000  0.5443280000000  0.5212610000000 1.0
C      1  0.6014770000000  0.5426850000000  0.4782020000000 1.0
C      1  0.5595300000000  0.5801260000000  0.4840820000000 1.0
C      1  0.4759820000000  0.4397010000000  0.5436640000000 1.0
C      1  0.4569240000000  0.4694820000000  0.4620890000000 1.0
C      1  0.5136420000000  0.4363870000000  0.5107090000000 1.0
C      1  0.4000760000000  0.4759440000000  0.5063490000000 1.0
C      1  0.5887120000000  0.4573550000000  0.5110310000000 1.0
C      1  0.4419090000000  0.4820780000000  0.4846130000000 1.0
C      1  0.5095170000000  0.5528430000000  0.4634680000000 1.0
C      1  0.5522100000000  0.5379340000000  0.4927610000000 1.0
C      1  0.5298610000000  0.4557230000000  0.5314120000000 1.0
C      1  0.4519360000000  0.5223200000000  0.5189130000000 1.0
C      1  0.5593990000000  0.5355130000000  0.4591660000000 1.0
C      1  0.4431650000000  0.4458150000000  0.4217950000000 1.0
C      1  0.4286720000000  0.4658580000000  0.5659630000000 1.0
C      1  0.5562270000000  0.4267260000000  0.4902020000000 1.0
C      1  0.4887690000000  0.4504250000000  0.5674990000000 1.0
C      1  0.5838720000000  0.4547020000000  0.4586800000000 1.0
C      1  0.5323470000000  0.5551700000000  0.4174800000000 1.0
C      1  0.5714080000000  0.4345450000000  0.5141220000000 1.0
C      1  0.4144600000000  0.4511700000000  0.5146160000000 1.0
C      1  0.6025280000000  0.5175220000000  0.4952960000000 1.0
C      1  0.4800300000000  0.5829850000000  0.5417860000000 1.0
C      1  0.5151520000000  0.4034080000000  0.4745610000000 1.0
C      1  0.4671660000000  0.5034940000000  0.5417780000000 1.0
C      1  0.4297170000000  0.5221430000000  0.5563530000000 1.0
C      1  0.5313400000000  0.4670220000000  0.4359930000000 1.0
C      1  0.5229290000000  0.5378420000000  0.5032990000000 1.0
C      1  0.4269860000000  0.5512870000000  0.5527970000000 1.0
C      1  0.5276450000000  0.5836490000000  0.5414330000000 1.0
C      1  0.5574720000000  0.5588250000000  0.4399050000000 1.0
C      1  0.5261170000000  0.5444520000000  0.5781420000000 1.0
C      1  0.5841060000000  0.5491020000000  0.5649530000000 1.0
C      1  0.5591650000000  0.4794310000000  0.5761490000000 1.0
C      1  0.5159860000000  0.4885880000000  0.3919400000000 1.0
C      1  0.4742670000000  0.5129340000000  0.3980220000000 1.0
C      1  0.5544850000000  0.4808120000000  0.4795890000000 1.0
C      1  0.4912680000000  0.4840200000000  0.6039500000000 1.0
C      1  0.4541830000000  0.4072350000000  0.5225360000000 1.0
C      1  0.5838610000000  0.4719330000000  0.4847830000000 1.0
C      1  0.5207470000000  0.5374410000000  0.5329170000000 1.0
C      1  0.5131820000000  0.5222840000000  0.4606530000000 1.0
C      1  0.4747030000000  0.4259890000000  0.4824790000000 1.0
C      1  0.4844230000000  0.4237230000000  0.4394780000000 1.0
C      1  0.5254880000000  0.5893560000000  0.5111410000000 1.0
C      1  0.4126540000000  0.5245460000000  0.4706360000000 1.0
C      1  0.4509370000000  0.4236040000000  0.5478380000000 1.0
C      1  0.5884230000000  0.5306070000000  0.4542960000000 1.0
C      1  0.5140990000000  0.5123320000000  0.5695600000000 1.0
C      1  0.5298620000000  0.4725440000000  0.5772840000000 1.0
C      1  0.4781540000000  0.5890470000000  0.4510900000000 1.0
END
