TITL C-950529-3362-282 2.25566684779877e-06 125000 -955.997313226901 0 0 152 (C1) n - 1
REM
REM in /home/bkarasulu/work/CARBON/AIRSS/Generating-Clusters/EDIP-Nigel-Params/with-SteepDescent/Only-C1/SD-CG/HFTN-CG
REM
REM
REM
REM
REM
REM ./C.cell (11c1c37f851c82e70ff6c80c92926a4b)
REM
REM compiler GCC version 9.2.1 20190827 (Red Hat 9.2.1-1)
REM options -cpp -mtune=generic -march=x86-64 -g -O0 -fpre-include=/usr/include/finclude/math-vector-fortran.h
REM seed 238123329 -937389512 2120096036 1756938921 81013948 1296576217 1230206260 -772247652 -1753973385 115980762 -1812273613 -582904371 -148993093 1551205633 1850907869 1319765789 188005640 -349383348 -33809249 1493454360 -860778166 715150416 -381194873 283165635 -1431825962 1138327755 -823392658 612790441 299776173 -815776739 679030853 2002476328 -2111070764
REM
CELL 1.54180   50.00000   50.00000   50.00000   90.00000   90.00000   90.00000
LATT -1
SFAC C  
C      1  0.5945680000000  0.4975550000000  0.4860860000000 1.0
C      1  0.4150550000000  0.4984210000000  0.4327150000000 1.0
C      1  0.4661470000000  0.5541750000000  0.5622680000000 1.0
C      1  0.5076270000000  0.5245680000000  0.4401620000000 1.0
C      1  0.5636400000000  0.5287550000000  0.5106980000000 1.0
C      1  0.4067290000000  0.5245930000000  0.4579950000000 1.0
C      1  0.4613570000000  0.4827020000000  0.4434170000000 1.0
C      1  0.5368200000000  0.5963500000000  0.5257820000000 1.0
C      1  0.5507870000000  0.5448140000000  0.4906890000000 1.0
C      1  0.5392330000000  0.4954220000000  0.5349570000000 1.0
C      1  0.5316440000000  0.5291490000000  0.5926570000000 1.0
C      1  0.5513340000000  0.5893110000000  0.4754460000000 1.0
C      1  0.5245920000000  0.3834500000000  0.5326540000000 1.0
C      1  0.4109150000000  0.5516510000000  0.5038370000000 1.0
C      1  0.4828990000000  0.4080790000000  0.4439880000000 1.0
C      1  0.4879790000000  0.5921150000000  0.4463120000000 1.0
C      1  0.5399440000000  0.4619640000000  0.4141020000000 1.0
C      1  0.4673690000000  0.5521180000000  0.4283120000000 1.0
C      1  0.5530460000000  0.5539330000000  0.4399130000000 1.0
C      1  0.4816820000000  0.5781930000000  0.4201470000000 1.0
C      1  0.4747610000000  0.4532060000000  0.5953370000000 1.0
C      1  0.5196190000000  0.4405390000000  0.4152520000000 1.0
C      1  0.5289850000000  0.4229690000000  0.4370490000000 1.0
C      1  0.4902880000000  0.4535240000000  0.5707130000000 1.0
C      1  0.4841490000000  0.5968810000000  0.5345300000000 1.0
C      1  0.4901180000000  0.5072370000000  0.4227740000000 1.0
C      1  0.3939270000000  0.4819150000000  0.4832810000000 1.0
C      1  0.5697090000000  0.4240700000000  0.4734740000000 1.0
C      1  0.5128030000000  0.4201670000000  0.5008740000000 1.0
C      1  0.5919550000000  0.5577880000000  0.4707080000000 1.0
C      1  0.4084840000000  0.4633140000000  0.4686670000000 1.0
C      1  0.4469650000000  0.3996390000000  0.4843280000000 1.0
C      1  0.5758380000000  0.4506470000000  0.4901350000000 1.0
C      1  0.6000140000000  0.4982080000000  0.5373020000000 1.0
C      1  0.5023410000000  0.4271280000000  0.5634370000000 1.0
C      1  0.4645700000000  0.4990100000000  0.5790190000000 1.0
C      1  0.4856080000000  0.4751390000000  0.4998740000000 1.0
C      1  0.4549240000000  0.4721010000000  0.5898300000000 1.0
C      1  0.4989790000000  0.5157560000000  0.5446580000000 1.0
C      1  0.4537580000000  0.5063180000000  0.4612640000000 1.0
C      1  0.5017970000000  0.4788930000000  0.4292940000000 1.0
C      1  0.5957830000000  0.5457960000000  0.5220850000000 1.0
C      1  0.4395750000000  0.5800630000000  0.4600890000000 1.0
C      1  0.5201050000000  0.5059710000000  0.4641460000000 1.0
C      1  0.5657870000000  0.5030450000000  0.4952810000000 1.0
C      1  0.4373480000000  0.5792210000000  0.5340990000000 1.0
C      1  0.4899220000000  0.4318860000000  0.4866430000000 1.0
C      1  0.5591730000000  0.4559730000000  0.4349310000000 1.0
C      1  0.4918320000000  0.5537010000000  0.5802650000000 1.0
C      1  0.5115460000000  0.4923750000000  0.5314020000000 1.0
C      1  0.6034580000000  0.5222680000000  0.4701280000000 1.0
C      1  0.5094150000000  0.4749620000000  0.5721990000000 1.0
C      1  0.5672890000000  0.5041600000000  0.4428740000000 1.0
C      1  0.4399490000000  0.5587180000000  0.4378600000000 1.0
C      1  0.4183930000000  0.4707380000000  0.4421500000000 1.0
C      1  0.5293040000000  0.5958130000000  0.4952120000000 1.0
C      1  0.5425590000000  0.5382680000000  0.4178630000000 1.0
C      1  0.6125220000000  0.4897360000000  0.5093450000000 1.0
C      1  0.4500640000000  0.4793180000000  0.5340340000000 1.0
C      1  0.4710770000000  0.4151880000000  0.4706570000000 1.0
C      1  0.4992170000000  0.4657820000000  0.5242090000000 1.0
C      1  0.4531700000000  0.5034550000000  0.5517190000000 1.0
C      1  0.5382030000000  0.5772040000000  0.4506050000000 1.0
C      1  0.5887230000000  0.4717060000000  0.4710310000000 1.0
C      1  0.4806960000000  0.5184470000000  0.4942000000000 1.0
C      1  0.4354980000000  0.5316540000000  0.4534790000000 1.0
C      1  0.5908570000000  0.5229610000000  0.4437250000000 1.0
C      1  0.5502800000000  0.5067090000000  0.4680490000000 1.0
C      1  0.4679930000000  0.4574130000000  0.4576720000000 1.0
C      1  0.5975780000000  0.4590680000000  0.5126800000000 1.0
C      1  0.4815640000000  0.3977330000000  0.5323040000000 1.0
C      1  0.4740280000000  0.5420730000000  0.4780030000000 1.0
C      1  0.4467860000000  0.5006740000000  0.4883120000000 1.0
C      1  0.5362860000000  0.4677870000000  0.5810270000000 1.0
C      1  0.4090240000000  0.5059560000000  0.5534650000000 1.0
C      1  0.5233330000000  0.5505740000000  0.5736240000000 1.0
C      1  0.5772890000000  0.4760820000000  0.4445560000000 1.0
C      1  0.4409720000000  0.5907240000000  0.5077520000000 1.0
C      1  0.5561960000000  0.5153440000000  0.5825980000000 1.0
C      1  0.4060940000000  0.5267000000000  0.4880670000000 1.0
C      1  0.5324840000000  0.4893070000000  0.4090570000000 1.0
C      1  0.5064010000000  0.5153470000000  0.5994940000000 1.0
C      1  0.4522000000000  0.4334960000000  0.5516080000000 1.0
C      1  0.5584060000000  0.4863710000000  0.5816000000000 1.0
C      1  0.5555500000000  0.5614060000000  0.5613690000000 1.0
C      1  0.5740650000000  0.4587540000000  0.5596600000000 1.0
C      1  0.5294200000000  0.4297340000000  0.5472350000000 1.0
C      1  0.4852070000000  0.5594390000000  0.5167150000000 1.0
C      1  0.4912940000000  0.4600670000000  0.4756670000000 1.0
C      1  0.4564000000000  0.5306960000000  0.5397040000000 1.0
C      1  0.5124220000000  0.5601170000000  0.5289710000000 1.0
C      1  0.4627280000000  0.5807390000000  0.5481140000000 1.0
C      1  0.4448980000000  0.5460910000000  0.4786350000000 1.0
C      1  0.4414010000000  0.5439010000000  0.5791770000000 1.0
C      1  0.4714880000000  0.4582680000000  0.5447730000000 1.0
C      1  0.5201370000000  0.5373950000000  0.5461050000000 1.0
C      1  0.4196450000000  0.4415710000000  0.4838340000000 1.0
C      1  0.4716450000000  0.4377480000000  0.4342530000000 1.0
C      1  0.5470680000000  0.4574500000000  0.5043200000000 1.0
C      1  0.5693480000000  0.5677530000000  0.4878100000000 1.0
C      1  0.5116550000000  0.4032500000000  0.4480840000000 1.0
C      1  0.4922370000000  0.4520690000000  0.4169600000000 1.0
C      1  0.5048880000000  0.5697310000000  0.4070670000000 1.0
C      1  0.4140020000000  0.4662670000000  0.5292830000000 1.0
C      1  0.4480910000000  0.4768270000000  0.4080440000000 1.0
C      1  0.5568120000000  0.4820000000000  0.5169850000000 1.0
C      1  0.4429030000000  0.4024340000000  0.5118560000000 1.0
C      1  0.4095840000000  0.4944610000000  0.5263250000000 1.0
C      1  0.5556020000000  0.4303120000000  0.4471000000000 1.0
C      1  0.5610680000000  0.4054940000000  0.5183930000000 1.0
C      1  0.4659820000000  0.5929380000000  0.4670770000000 1.0
C      1  0.5921680000000  0.5270160000000  0.5441230000000 1.0
C      1  0.5231480000000  0.4437610000000  0.5189790000000 1.0
C      1  0.5819520000000  0.5510430000000  0.4440830000000 1.0
C      1  0.4841600000000  0.5353060000000  0.6020890000000 1.0
C      1  0.4230800000000  0.5765290000000  0.4887340000000 1.0
C      1  0.5106480000000  0.4772440000000  0.4584920000000 1.0
C      1  0.4700770000000  0.5908470000000  0.4988330000000 1.0
C      1  0.4796480000000  0.5298900000000  0.5225690000000 1.0
C      1  0.4176120000000  0.4836880000000  0.5695450000000 1.0
C      1  0.5652860000000  0.5318820000000  0.5587410000000 1.0
C      1  0.4380220000000  0.4555410000000  0.4255410000000 1.0
C      1  0.5568920000000  0.5750960000000  0.5347940000000 1.0
C      1  0.4242600000000  0.5519860000000  0.5315640000000 1.0
C      1  0.4174510000000  0.5355760000000  0.5584430000000 1.0
C      1  0.5098310000000  0.5184980000000  0.4887670000000 1.0
C      1  0.4567800000000  0.5232470000000  0.5958820000000 1.0
C      1  0.5324240000000  0.4112150000000  0.4792050000000 1.0
C      1  0.4894370000000  0.5470740000000  0.4520290000000 1.0
C      1  0.5047340000000  0.3958550000000  0.5173540000000 1.0
C      1  0.4768080000000  0.4142420000000  0.5541180000000 1.0
C      1  0.3966200000000  0.5027990000000  0.5015180000000 1.0
C      1  0.4361890000000  0.4245090000000  0.5275080000000 1.0
C      1  0.5584410000000  0.4020820000000  0.4907530000000 1.0
C      1  0.5802160000000  0.4734000000000  0.5343910000000 1.0
C      1  0.5501730000000  0.5099330000000  0.4187830000000 1.0
C      1  0.5215880000000  0.5460590000000  0.4939590000000 1.0
C      1  0.5076600000000  0.5728620000000  0.4575250000000 1.0
C      1  0.4587680000000  0.4822960000000  0.5055590000000 1.0
C      1  0.4954200000000  0.5013110000000  0.5749840000000 1.0
C      1  0.4632580000000  0.5204850000000  0.4204670000000 1.0
C      1  0.5483040000000  0.4460470000000  0.5656690000000 1.0
C      1  0.5463450000000  0.5238290000000  0.5364960000000 1.0
C      1  0.5117510000000  0.5878980000000  0.5410640000000 1.0
C      1  0.4220290000000  0.4443380000000  0.5128140000000 1.0
C      1  0.5425710000000  0.4036670000000  0.5391430000000 1.0
C      1  0.4379920000000  0.5039420000000  0.4129500000000 1.0
C      1  0.5079150000000  0.5748870000000  0.4876690000000 1.0
C      1  0.4351360000000  0.4610140000000  0.5720800000000 1.0
C      1  0.4326630000000  0.4203320000000  0.4699100000000 1.0
C      1  0.5162830000000  0.5445690000000  0.4088000000000 1.0
C      1  0.5793810000000  0.5697630000000  0.5165190000000 1.0
END
