TITL C-951338-5626-450 7.29473723339812e-07 125000 -360.232174147423 0 0 60 (C1) n - 1
REM
REM in /home/bkarasulu/work/CARBON/AIRSS/Generating-Clusters/EDIP-Nigel-Params/with-SteepDescent/Only-C1/SD-CG/HFTN-CG
REM
REM
REM
REM
REM
REM ./C.cell (11c1c37f851c82e70ff6c80c92926a4b)
REM
REM compiler GCC version 9.2.1 20190827 (Red Hat 9.2.1-1)
REM options -cpp -mtune=generic -march=x86-64 -g -O0 -fpre-include=/usr/include/finclude/math-vector-fortran.h
REM seed 1631313676 949274098 -1505147354 -589711634 1032745885 1085770026 -1377552065 -1825469897 -2001181983 -2053954731 -350423675 1204899082 268882036 1071575103 -199587650 1208851937 -715736094 -832256140 -45152430 683450123 -1304507836 -244915189 -377093653 -1025127391 -1044705647 -587589288 -1528145104 1218411795 -124848684 -871368949 276203997 502724055 1644696628
REM
CELL 1.54180   50.00000   50.00000   50.00000   90.00000   90.00000   90.00000
LATT -1
SFAC C  
C      1  0.5183990000000  0.5617650000000  0.5589290000000 1.0
C      1  0.4674070000000  0.5463890000000  0.4559950000000 1.0
C      1  0.4875090000000  0.4281730000000  0.5204560000000 1.0
C      1  0.4809430000000  0.4577720000000  0.4519040000000 1.0
C      1  0.4949710000000  0.5271140000000  0.5032660000000 1.0
C      1  0.5513540000000  0.5281950000000  0.5191700000000 1.0
C      1  0.5535450000000  0.4578100000000  0.4643360000000 1.0
C      1  0.4563850000000  0.4756760000000  0.4466460000000 1.0
C      1  0.5491220000000  0.5304790000000  0.4542950000000 1.0
C      1  0.5583020000000  0.4805100000000  0.5231680000000 1.0
C      1  0.4543190000000  0.4870620000000  0.5038250000000 1.0
C      1  0.5068630000000  0.4995170000000  0.4518850000000 1.0
C      1  0.5077860000000  0.4695510000000  0.4515960000000 1.0
C      1  0.5311730000000  0.5167590000000  0.5390670000000 1.0
C      1  0.4673630000000  0.4599810000000  0.5444060000000 1.0
C      1  0.5539690000000  0.5481760000000  0.4743380000000 1.0
C      1  0.4393910000000  0.5216620000000  0.4749050000000 1.0
C      1  0.4946960000000  0.4870240000000  0.5711360000000 1.0
C      1  0.4389490000000  0.4745890000000  0.4712430000000 1.0
C      1  0.5416550000000  0.5492930000000  0.4999500000000 1.0
C      1  0.4903320000000  0.4286840000000  0.4920470000000 1.0
C      1  0.4637270000000  0.5192050000000  0.4609670000000 1.0
C      1  0.4947200000000  0.5332690000000  0.4128160000000 1.0
C      1  0.5276180000000  0.5340900000000  0.5632110000000 1.0
C      1  0.4670090000000  0.5360010000000  0.5095150000000 1.0
C      1  0.4466340000000  0.4497830000000  0.4828200000000 1.0
C      1  0.5556620000000  0.4547490000000  0.5084590000000 1.0
C      1  0.5289020000000  0.4719150000000  0.5651730000000 1.0
C      1  0.4353070000000  0.5260660000000  0.5390150000000 1.0
C      1  0.4860920000000  0.4596860000000  0.5659060000000 1.0
C      1  0.5091620000000  0.5526740000000  0.4319790000000 1.0
C      1  0.4761560000000  0.4526150000000  0.4808240000000 1.0
C      1  0.5359590000000  0.4990930000000  0.4892870000000 1.0
C      1  0.4904960000000  0.5062200000000  0.4246950000000 1.0
C      1  0.4917810000000  0.5601850000000  0.4542520000000 1.0
C      1  0.4884290000000  0.5076880000000  0.4763320000000 1.0
C      1  0.5705780000000  0.4515190000000  0.4845190000000 1.0
C      1  0.5123090000000  0.4488980000000  0.5572870000000 1.0
C      1  0.5607740000000  0.5040150000000  0.5045190000000 1.0
C      1  0.4846610000000  0.4814220000000  0.4947060000000 1.0
C      1  0.5026110000000  0.5326340000000  0.5788480000000 1.0
C      1  0.5051940000000  0.5067050000000  0.5250720000000 1.0
C      1  0.4916620000000  0.5589200000000  0.5709960000000 1.0
C      1  0.5409360000000  0.4893220000000  0.5451940000000 1.0
C      1  0.4844420000000  0.5001070000000  0.5472970000000 1.0
C      1  0.5345400000000  0.5075710000000  0.4611340000000 1.0
C      1  0.5031090000000  0.5687150000000  0.4780900000000 1.0
C      1  0.5121440000000  0.5518830000000  0.4985660000000 1.0
C      1  0.5192100000000  0.4309200000000  0.4855120000000 1.0
C      1  0.4494820000000  0.4781240000000  0.5321980000000 1.0
C      1  0.4476750000000  0.5020430000000  0.5487940000000 1.0
C      1  0.5097140000000  0.4440320000000  0.5286290000000 1.0
C      1  0.4546570000000  0.5470970000000  0.5336020000000 1.0
C      1  0.5258260000000  0.4587710000000  0.4736600000000 1.0
C      1  0.5323170000000  0.4369740000000  0.5119950000000 1.0
C      1  0.4626910000000  0.5028720000000  0.4358490000000 1.0
C      1  0.4454620000000  0.5164530000000  0.5025560000000 1.0
C      1  0.5178950000000  0.4776240000000  0.5033010000000 1.0
C      1  0.4700630000000  0.5585620000000  0.5539290000000 1.0
C      1  0.5199630000000  0.5453960000000  0.4059350000000 1.0
END
