TITL C-951347-9520-368 -2.35937890595856e-06 125000 -619.989031424115 0 0 99 (C1) n - 1
REM
REM in /home/bkarasulu/work/CARBON/AIRSS/Generating-Clusters/EDIP-Nigel-Params/with-SteepDescent/Only-C1/SD-CG/HFTN-CG
REM
REM
REM
REM
REM
REM ./C.cell (11c1c37f851c82e70ff6c80c92926a4b)
REM
REM compiler GCC version 9.2.1 20190827 (Red Hat 9.2.1-1)
REM options -cpp -mtune=generic -march=x86-64 -g -O0 -fpre-include=/usr/include/finclude/math-vector-fortran.h
REM seed -2002511759 -1038571367 -134337481 1110539511 -830083635 -2122139769 1538902939 1285884449 -336225105 591232772 -2101240492 -158312146 390432650 1776030737 2034738243 -1838896451 -275258918 -628411971 -444756506 -2000446046 -1416214237 -1400702565 -1659778672 1188146243 538085657 -1673632652 1147545123 -298216167 -768222369 -751749833 -209988535 2079863602 448294167
REM
CELL 1.54180   50.00000   50.00000   50.00000   90.00000   90.00000   90.00000
LATT -1
SFAC C  
C      1  0.4968190000000  0.5109500000000  0.5389090000000 1.0
C      1  0.5669720000000  0.5616050000000  0.5061920000000 1.0
C      1  0.4269520000000  0.4604950000000  0.5364850000000 1.0
C      1  0.5604800000000  0.4583960000000  0.4644830000000 1.0
C      1  0.5124360000000  0.4867770000000  0.5268880000000 1.0
C      1  0.4853460000000  0.4627070000000  0.5756540000000 1.0
C      1  0.5355820000000  0.5152700000000  0.4218570000000 1.0
C      1  0.5235110000000  0.4834030000000  0.5831040000000 1.0
C      1  0.5756990000000  0.4796110000000  0.4781850000000 1.0
C      1  0.4672620000000  0.4969930000000  0.5482080000000 1.0
C      1  0.4384320000000  0.5707560000000  0.4709050000000 1.0
C      1  0.4271260000000  0.4846480000000  0.5220440000000 1.0
C      1  0.5308580000000  0.5902600000000  0.5181120000000 1.0
C      1  0.5586730000000  0.5408560000000  0.5279970000000 1.0
C      1  0.4649340000000  0.5022480000000  0.5774340000000 1.0
C      1  0.5377330000000  0.4206580000000  0.5540780000000 1.0
C      1  0.4832930000000  0.4542720000000  0.4552930000000 1.0
C      1  0.5089970000000  0.5120270000000  0.4680670000000 1.0
C      1  0.5347250000000  0.4929460000000  0.4737120000000 1.0
C      1  0.4870450000000  0.4172520000000  0.5500010000000 1.0
C      1  0.4654280000000  0.4324690000000  0.4605380000000 1.0
C      1  0.5163390000000  0.4701200000000  0.4807370000000 1.0
C      1  0.5252780000000  0.5479700000000  0.4941700000000 1.0
C      1  0.4629180000000  0.4346560000000  0.5081280000000 1.0
C      1  0.4416130000000  0.4521440000000  0.4953430000000 1.0
C      1  0.5068630000000  0.5810270000000  0.4538080000000 1.0
C      1  0.4741520000000  0.4174900000000  0.4855070000000 1.0
C      1  0.5126690000000  0.4573190000000  0.5722190000000 1.0
C      1  0.4396360000000  0.5494910000000  0.5431760000000 1.0
C      1  0.5233190000000  0.4583840000000  0.4276750000000 1.0
C      1  0.5204240000000  0.5723520000000  0.5371110000000 1.0
C      1  0.4968630000000  0.5328380000000  0.5154840000000 1.0
C      1  0.4324930000000  0.4731520000000  0.4522580000000 1.0
C      1  0.4612470000000  0.5688610000000  0.4552550000000 1.0
C      1  0.5411530000000  0.5738370000000  0.4979910000000 1.0
C      1  0.4784730000000  0.4749560000000  0.4348610000000 1.0
C      1  0.4149030000000  0.5371510000000  0.4916880000000 1.0
C      1  0.5121490000000  0.4298530000000  0.5618400000000 1.0
C      1  0.4574640000000  0.5494200000000  0.5663020000000 1.0
C      1  0.4223520000000  0.5274350000000  0.5434110000000 1.0
C      1  0.5501930000000  0.5000660000000  0.4999890000000 1.0
C      1  0.5477320000000  0.4698910000000  0.4398990000000 1.0
C      1  0.5150530000000  0.5562940000000  0.4438750000000 1.0
C      1  0.5001890000000  0.5323020000000  0.5708040000000 1.0
C      1  0.4173040000000  0.5198570000000  0.4698360000000 1.0
C      1  0.4297490000000  0.5604610000000  0.4951990000000 1.0
C      1  0.4391180000000  0.4461150000000  0.4664310000000 1.0
C      1  0.5637570000000  0.4970780000000  0.5552980000000 1.0
C      1  0.4948420000000  0.5009600000000  0.4424780000000 1.0
C      1  0.5225970000000  0.4253520000000  0.4697440000000 1.0
C      1  0.5396600000000  0.5268600000000  0.5107060000000 1.0
C      1  0.4204580000000  0.5324070000000  0.4449660000000 1.0
C      1  0.4895950000000  0.4648740000000  0.4096860000000 1.0
C      1  0.4432060000000  0.5313710000000  0.4286450000000 1.0
C      1  0.4722250000000  0.5775080000000  0.5178650000000 1.0
C      1  0.5583420000000  0.5358380000000  0.4631750000000 1.0
C      1  0.5369570000000  0.4215530000000  0.5262110000000 1.0
C      1  0.5916590000000  0.5061030000000  0.5144980000000 1.0
C      1  0.4718640000000  0.4647680000000  0.5489340000000 1.0
C      1  0.5507050000000  0.4420710000000  0.5106310000000 1.0
C      1  0.5760140000000  0.5169990000000  0.5370550000000 1.0
C      1  0.4308210000000  0.4940180000000  0.4732140000000 1.0
C      1  0.4864720000000  0.5175310000000  0.4902360000000 1.0
C      1  0.5392460000000  0.5513660000000  0.5480180000000 1.0
C      1  0.4945010000000  0.5422840000000  0.4272210000000 1.0
C      1  0.5112210000000  0.4825110000000  0.4054410000000 1.0
C      1  0.4866440000000  0.4511800000000  0.5216280000000 1.0
C      1  0.5075210000000  0.5115590000000  0.4177580000000 1.0
C      1  0.4666820000000  0.5463930000000  0.4374830000000 1.0
C      1  0.5870050000000  0.4780000000000  0.5055660000000 1.0
C      1  0.4826110000000  0.5837190000000  0.4667670000000 1.0
C      1  0.4850020000000  0.5536370000000  0.5598840000000 1.0
C      1  0.4929050000000  0.5607850000000  0.5322100000000 1.0
C      1  0.5270730000000  0.5298080000000  0.5640000000000 1.0
C      1  0.4970800000000  0.4742680000000  0.5051030000000 1.0
C      1  0.4739290000000  0.4921050000000  0.4990670000000 1.0
C      1  0.5950490000000  0.5250480000000  0.4937190000000 1.0
C      1  0.4476820000000  0.5618510000000  0.5180140000000 1.0
C      1  0.4497400000000  0.4803560000000  0.4291820000000 1.0
C      1  0.4797580000000  0.5896710000000  0.4938410000000 1.0
C      1  0.5393470000000  0.5040750000000  0.5695940000000 1.0
C      1  0.5116550000000  0.4509960000000  0.4580390000000 1.0
C      1  0.4433350000000  0.4818900000000  0.4976240000000 1.0
C      1  0.5670230000000  0.4693350000000  0.5493840000000 1.0
C      1  0.4587950000000  0.4225750000000  0.5403150000000 1.0
C      1  0.5533590000000  0.4979160000000  0.4343960000000 1.0
C      1  0.4472120000000  0.4480680000000  0.5509260000000 1.0
C      1  0.5090370000000  0.4195350000000  0.5188880000000 1.0
C      1  0.5671600000000  0.5095410000000  0.4560130000000 1.0
C      1  0.5747790000000  0.4571860000000  0.5238780000000 1.0
C      1  0.5272400000000  0.5385470000000  0.4652760000000 1.0
C      1  0.4397020000000  0.5057870000000  0.5364030000000 1.0
C      1  0.5035710000000  0.4132820000000  0.4901510000000 1.0
C      1  0.5417180000000  0.4800490000000  0.5216360000000 1.0
C      1  0.5783660000000  0.5456960000000  0.4836370000000 1.0
C      1  0.5492900000000  0.4362550000000  0.4809600000000 1.0
C      1  0.4460450000000  0.5058740000000  0.4182550000000 1.0
C      1  0.4556960000000  0.5278890000000  0.5847000000000 1.0
C      1  0.4859000000000  0.4876300000000  0.5905340000000 1.0
END
