TITL C-951334-9093-59 -2.71056161416994e-06 125000 -703.369009642413 0 0 113 (C1) n - 1
REM
REM in /home/bkarasulu/work/CARBON/AIRSS/Generating-Clusters/EDIP-Nigel-Params/with-SteepDescent/Only-C1/SD-CG/HFTN-CG
REM
REM
REM
REM
REM
REM ./C.cell (11c1c37f851c82e70ff6c80c92926a4b)
REM
REM compiler GCC version 9.2.1 20190827 (Red Hat 9.2.1-1)
REM options -cpp -mtune=generic -march=x86-64 -g -O0 -fpre-include=/usr/include/finclude/math-vector-fortran.h
REM seed -808602025 -1039599161 650536569 1101005456 -1884104587 -988978690 171686116 1292315496 587621733 245404462 604114981 1100830456 -1553569099 -223461973 1058642175 996411312 -1813883776 1043197202 1744696196 826428846 1529996171 -1052381742 -1661981721 1405142620 -437308029 209657613 271590234 -536232093 -1708926431 -1776828917 -1069007342 -1615488644 1143182862
REM
CELL 1.54180   50.00000   50.00000   50.00000   90.00000   90.00000   90.00000
LATT -1
SFAC C  
C      1  0.4669490000000  0.5499960000000  0.5535270000000 1.0
C      1  0.4803130000000  0.5694620000000  0.4480240000000 1.0
C      1  0.4178600000000  0.5021360000000  0.4677210000000 1.0
C      1  0.4378700000000  0.5747990000000  0.4749190000000 1.0
C      1  0.5416900000000  0.5590610000000  0.5590270000000 1.0
C      1  0.4719530000000  0.5039220000000  0.4119230000000 1.0
C      1  0.5312320000000  0.5685750000000  0.4461660000000 1.0
C      1  0.5146290000000  0.5075890000000  0.4447720000000 1.0
C      1  0.4562930000000  0.5806860000000  0.5172300000000 1.0
C      1  0.5099010000000  0.3931870000000  0.4668180000000 1.0
C      1  0.5854080000000  0.5628770000000  0.4983050000000 1.0
C      1  0.5341430000000  0.4849390000000  0.5730560000000 1.0
C      1  0.5442290000000  0.5340670000000  0.5755200000000 1.0
C      1  0.5148040000000  0.5730970000000  0.5585920000000 1.0
C      1  0.4535040000000  0.4675960000000  0.5647740000000 1.0
C      1  0.4303150000000  0.5837040000000  0.5026020000000 1.0
C      1  0.5059180000000  0.5789520000000  0.4432880000000 1.0
C      1  0.4791450000000  0.5815360000000  0.4983060000000 1.0
C      1  0.4222250000000  0.5458720000000  0.5280550000000 1.0
C      1  0.4330180000000  0.4513200000000  0.4525980000000 1.0
C      1  0.4752590000000  0.4717280000000  0.5844540000000 1.0
C      1  0.5447380000000  0.4748140000000  0.4841210000000 1.0
C      1  0.4953180000000  0.5098160000000  0.5950240000000 1.0
C      1  0.5386970000000  0.4406040000000  0.5471650000000 1.0
C      1  0.4526560000000  0.4620920000000  0.4340980000000 1.0
C      1  0.4531370000000  0.4429360000000  0.5510330000000 1.0
C      1  0.5382460000000  0.5328700000000  0.5128210000000 1.0
C      1  0.4516510000000  0.5524780000000  0.5275270000000 1.0
C      1  0.5658330000000  0.4762350000000  0.4636300000000 1.0
C      1  0.4793730000000  0.4257940000000  0.4473450000000 1.0
C      1  0.5134250000000  0.5253670000000  0.5539280000000 1.0
C      1  0.4745020000000  0.5393360000000  0.4424020000000 1.0
C      1  0.5355550000000  0.5438680000000  0.4316800000000 1.0
C      1  0.4508100000000  0.4906460000000  0.4260360000000 1.0
C      1  0.5401650000000  0.4896010000000  0.5422000000000 1.0
C      1  0.5019460000000  0.5368700000000  0.4788080000000 1.0
C      1  0.5722840000000  0.5626470000000  0.4732920000000 1.0
C      1  0.5097360000000  0.4642710000000  0.4514490000000 1.0
C      1  0.4701300000000  0.4973870000000  0.4768850000000 1.0
C      1  0.5732930000000  0.5157380000000  0.4815370000000 1.0
C      1  0.4529410000000  0.5104440000000  0.5759940000000 1.0
C      1  0.5783020000000  0.4743640000000  0.5192680000000 1.0
C      1  0.4850990000000  0.5288000000000  0.4165650000000 1.0
C      1  0.4554150000000  0.5049590000000  0.5029660000000 1.0
C      1  0.5312240000000  0.5369490000000  0.4823060000000 1.0
C      1  0.4688130000000  0.4972370000000  0.5990780000000 1.0
C      1  0.5780190000000  0.5372240000000  0.4601350000000 1.0
C      1  0.4962590000000  0.5061040000000  0.5657180000000 1.0
C      1  0.4219270000000  0.4806190000000  0.4879740000000 1.0
C      1  0.4773440000000  0.4377910000000  0.5354320000000 1.0
C      1  0.5332560000000  0.5102520000000  0.5890550000000 1.0
C      1  0.4666530000000  0.5829840000000  0.4710940000000 1.0
C      1  0.5786030000000  0.5487830000000  0.5217750000000 1.0
C      1  0.5509500000000  0.4169570000000  0.4796670000000 1.0
C      1  0.5670870000000  0.5224940000000  0.5131110000000 1.0
C      1  0.5581420000000  0.5657230000000  0.5345490000000 1.0
C      1  0.5536830000000  0.4605140000000  0.5084650000000 1.0
C      1  0.5890010000000  0.4904000000000  0.4759020000000 1.0
C      1  0.5095380000000  0.4653010000000  0.5760470000000 1.0
C      1  0.4990860000000  0.3984620000000  0.5317790000000 1.0
C      1  0.4911280000000  0.5329230000000  0.5037680000000 1.0
C      1  0.5161950000000  0.4370670000000  0.5659320000000 1.0
C      1  0.4703220000000  0.4671720000000  0.4766790000000 1.0
C      1  0.4162760000000  0.4906200000000  0.5151160000000 1.0
C      1  0.4713870000000  0.5059460000000  0.5515020000000 1.0
C      1  0.4402620000000  0.4572550000000  0.4807950000000 1.0
C      1  0.4880150000000  0.4139520000000  0.4733640000000 1.0
C      1  0.4388980000000  0.5069960000000  0.4471970000000 1.0
C      1  0.4325840000000  0.4476070000000  0.5309840000000 1.0
C      1  0.4747010000000  0.3948670000000  0.5166080000000 1.0
C      1  0.4892780000000  0.5183810000000  0.4605030000000 1.0
C      1  0.5230150000000  0.5118390000000  0.5292210000000 1.0
C      1  0.5681250000000  0.4981180000000  0.5327700000000 1.0
C      1  0.4537950000000  0.5388690000000  0.5763560000000 1.0
C      1  0.5340720000000  0.5866290000000  0.4943690000000 1.0
C      1  0.5219800000000  0.4064440000000  0.5152480000000 1.0
C      1  0.4612680000000  0.5351770000000  0.5034470000000 1.0
C      1  0.5293020000000  0.4327610000000  0.4620210000000 1.0
C      1  0.4940330000000  0.4199580000000  0.5529130000000 1.0
C      1  0.4955920000000  0.4602860000000  0.4935140000000 1.0
C      1  0.4101390000000  0.5680250000000  0.5153600000000 1.0
C      1  0.5144800000000  0.5317150000000  0.4146660000000 1.0
C      1  0.5421210000000  0.5651590000000  0.4739030000000 1.0
C      1  0.5450480000000  0.4181370000000  0.5285250000000 1.0
C      1  0.5414650000000  0.4781820000000  0.4181130000000 1.0
C      1  0.5202490000000  0.4096760000000  0.4430610000000 1.0
C      1  0.4977590000000  0.5504370000000  0.5489100000000 1.0
C      1  0.4976340000000  0.4165290000000  0.4275050000000 1.0
C      1  0.5978880000000  0.4792670000000  0.4998930000000 1.0
C      1  0.4203430000000  0.5205750000000  0.5107060000000 1.0
C      1  0.4459480000000  0.5347520000000  0.4468870000000 1.0
C      1  0.4285450000000  0.4761520000000  0.5364040000000 1.0
C      1  0.4412220000000  0.4357760000000  0.5041500000000 1.0
C      1  0.5071900000000  0.4341340000000  0.4842800000000 1.0
C      1  0.5316360000000  0.4635290000000  0.5294550000000 1.0
C      1  0.5162530000000  0.4818500000000  0.4292740000000 1.0
C      1  0.5006070000000  0.5039010000000  0.5098450000000 1.0
C      1  0.5071880000000  0.5905190000000  0.5081210000000 1.0
C      1  0.4678200000000  0.4224700000000  0.5115420000000 1.0
C      1  0.4788360000000  0.4559770000000  0.4490190000000 1.0
C      1  0.5512520000000  0.5867230000000  0.5168390000000 1.0
C      1  0.5410740000000  0.5132360000000  0.4635410000000 1.0
C      1  0.5596390000000  0.4832220000000  0.4373820000000 1.0
C      1  0.4750880000000  0.4914840000000  0.5243250000000 1.0
C      1  0.4382270000000  0.5447530000000  0.4734980000000 1.0
C      1  0.5613490000000  0.5317110000000  0.4365420000000 1.0
C      1  0.4933000000000  0.4628020000000  0.5242100000000 1.0
C      1  0.5117040000000  0.5917810000000  0.5370940000000 1.0
C      1  0.5156290000000  0.4827210000000  0.4803510000000 1.0
C      1  0.5598500000000  0.4304730000000  0.5054000000000 1.0
C      1  0.5309980000000  0.3952420000000  0.4888060000000 1.0
C      1  0.4147500000000  0.5279960000000  0.4824130000000 1.0
C      1  0.5050480000000  0.5534000000000  0.5201320000000 1.0
END
