TITL C-950530-3293-627 1.11060961978652e-06 125000 -270.885357658243 0 0 45 (C1) n - 1
REM
REM in /home/bkarasulu/work/CARBON/AIRSS/Generating-Clusters/EDIP-Nigel-Params/with-SteepDescent/Only-C1/SD-CG/HFTN-CG
REM
REM
REM
REM
REM
REM ./C.cell (11c1c37f851c82e70ff6c80c92926a4b)
REM
REM compiler GCC version 9.2.1 20190827 (Red Hat 9.2.1-1)
REM options -cpp -mtune=generic -march=x86-64 -g -O0 -fpre-include=/usr/include/finclude/math-vector-fortran.h
REM seed -703574652 -1452839808 -2088854665 1777510250 -201549240 599353399 1988681404 1716152636 -281816979 292544219 1667461052 -1356773376 79669550 1401391329 1958440701 -1898926351 334868712 -1525358959 -113829262 587829812 355111166 -51346905 1629706697 -333320166 932843071 31002263 799366173 293932527 -860510642 -1679928632 -12360456 1855345254 937197579
REM
CELL 1.54180   50.00000   50.00000   50.00000   90.00000   90.00000   90.00000
LATT -1
SFAC C  
C      1  0.4536730000000  0.4809210000000  0.4637180000000 1.0
C      1  0.4704520000000  0.5315910000000  0.4496500000000 1.0
C      1  0.4407240000000  0.5087670000000  0.5027830000000 1.0
C      1  0.5139100000000  0.4521860000000  0.4777170000000 1.0
C      1  0.5003240000000  0.4528770000000  0.5343920000000 1.0
C      1  0.5317480000000  0.5281130000000  0.5223430000000 1.0
C      1  0.4510110000000  0.4825820000000  0.5123480000000 1.0
C      1  0.4512230000000  0.5336330000000  0.5430490000000 1.0
C      1  0.5310260000000  0.4731940000000  0.4363100000000 1.0
C      1  0.4853720000000  0.5085930000000  0.4371170000000 1.0
C      1  0.4831350000000  0.5305150000000  0.5047230000000 1.0
C      1  0.5417550000000  0.4553990000000  0.5195030000000 1.0
C      1  0.4507260000000  0.5088760000000  0.4743330000000 1.0
C      1  0.5282240000000  0.4547830000000  0.5457710000000 1.0
C      1  0.5282290000000  0.4812400000000  0.5594260000000 1.0
C      1  0.4824230000000  0.4717760000000  0.5489130000000 1.0
C      1  0.4959020000000  0.5181100000000  0.5550250000000 1.0
C      1  0.5142940000000  0.5080090000000  0.4425760000000 1.0
C      1  0.5211980000000  0.4419340000000  0.5034260000000 1.0
C      1  0.5414170000000  0.4932900000000  0.4192910000000 1.0
C      1  0.5208040000000  0.5601760000000  0.4868100000000 1.0
C      1  0.5368410000000  0.5382440000000  0.4957110000000 1.0
C      1  0.5289060000000  0.4727850000000  0.4648000000000 1.0
C      1  0.5116630000000  0.5604940000000  0.4590630000000 1.0
C      1  0.5065870000000  0.4862100000000  0.5154270000000 1.0
C      1  0.4826000000000  0.5568700000000  0.4600630000000 1.0
C      1  0.4903400000000  0.5580990000000  0.4916040000000 1.0
C      1  0.4721410000000  0.4841230000000  0.4424760000000 1.0
C      1  0.5377140000000  0.4841720000000  0.5113430000000 1.0
C      1  0.5498220000000  0.5056760000000  0.5293070000000 1.0
C      1  0.4350330000000  0.4659630000000  0.5295970000000 1.0
C      1  0.5621520000000  0.5084960000000  0.4751310000000 1.0
C      1  0.5501960000000  0.4990350000000  0.5565630000000 1.0
C      1  0.5458830000000  0.4872630000000  0.4827330000000 1.0
C      1  0.4650760000000  0.4696860000000  0.4893950000000 1.0
C      1  0.4545620000000  0.5315190000000  0.5154860000000 1.0
C      1  0.4707210000000  0.5285590000000  0.5605840000000 1.0
C      1  0.4579440000000  0.4617060000000  0.5604340000000 1.0
C      1  0.4928420000000  0.4824560000000  0.4879800000000 1.0
C      1  0.5313210000000  0.5190160000000  0.4220000000000 1.0
C      1  0.4319200000000  0.4702770000000  0.5566860000000 1.0
C      1  0.4999080000000  0.4903490000000  0.5640020000000 1.0
C      1  0.5622450000000  0.5341480000000  0.4841020000000 1.0
C      1  0.5038240000000  0.5167000000000  0.5254420000000 1.0
C      1  0.4821890000000  0.5115890000000  0.4808480000000 1.0
END
