TITL C-950523-3027-718 -3.58853032378804e-06 125000 -1191.68431640582 0 0 191 (C1) n - 1
REM
REM in /home/bkarasulu/work/CARBON/AIRSS/Generating-Clusters/EDIP-Nigel-Params/with-SteepDescent/Only-C1/SD-CG/HFTN-CG
REM
REM
REM
REM
REM
REM ./C.cell (11c1c37f851c82e70ff6c80c92926a4b)
REM
REM compiler GCC version 9.2.1 20190827 (Red Hat 9.2.1-1)
REM options -cpp -mtune=generic -march=x86-64 -g -O0 -fpre-include=/usr/include/finclude/math-vector-fortran.h
REM seed -1063217476 316543438 1236795064 -1899030185 -1527137133 545332901 720782273 -2100597011 -603103813 -1433899907 -1218052334 -266963468 1671620285 -1984581273 -430992751 1482790921 178268431 -252484259 1953671430 1844963930 -1209468095 -1157117027 -1547121466 207680303 1777455820 -785737733 -1186171343 -1114371879 938646956 -491504011 -1922552119 1153957300 146924660
REM
CELL 1.54180   50.00000   50.00000   50.00000   90.00000   90.00000   90.00000
LATT -1
SFAC C  
C      1  0.5635950000000  0.4788840000000  0.3978860000000 1.0
C      1  0.4967890000000  0.4343450000000  0.5082000000000 1.0
C      1  0.4430310000000  0.5933440000000  0.5450920000000 1.0
C      1  0.4451160000000  0.5131080000000  0.3895300000000 1.0
C      1  0.4672100000000  0.4718830000000  0.5005840000000 1.0
C      1  0.4616690000000  0.5560510000000  0.4074990000000 1.0
C      1  0.5593170000000  0.5178950000000  0.5669820000000 1.0
C      1  0.4747230000000  0.4713690000000  0.4137620000000 1.0
C      1  0.4793260000000  0.4432810000000  0.4177630000000 1.0
C      1  0.4208440000000  0.5550070000000  0.5246320000000 1.0
C      1  0.4489930000000  0.5527090000000  0.5117910000000 1.0
C      1  0.5163060000000  0.6015530000000  0.5305690000000 1.0
C      1  0.5556470000000  0.5683040000000  0.5221670000000 1.0
C      1  0.5150970000000  0.5056410000000  0.5725220000000 1.0
C      1  0.5385490000000  0.5387000000000  0.6019460000000 1.0
C      1  0.4703440000000  0.4640930000000  0.6016270000000 1.0
C      1  0.5422280000000  0.4810140000000  0.4422540000000 1.0
C      1  0.5063740000000  0.5646460000000  0.4120140000000 1.0
C      1  0.5601960000000  0.5439600000000  0.5070550000000 1.0
C      1  0.4420030000000  0.5901730000000  0.4892760000000 1.0
C      1  0.5548920000000  0.5188240000000  0.4656500000000 1.0
C      1  0.4723180000000  0.5845020000000  0.5490750000000 1.0
C      1  0.5386820000000  0.5053710000000  0.4858050000000 1.0
C      1  0.6108250000000  0.5218630000000  0.4740670000000 1.0
C      1  0.5157750000000  0.4681960000000  0.3883290000000 1.0
C      1  0.5104540000000  0.3841550000000  0.5134680000000 1.0
C      1  0.5162180000000  0.3843170000000  0.4852190000000 1.0
C      1  0.5430200000000  0.4922300000000  0.5348090000000 1.0
C      1  0.4807840000000  0.5089390000000  0.6073980000000 1.0
C      1  0.3961270000000  0.4506790000000  0.5429480000000 1.0
C      1  0.5633880000000  0.4221690000000  0.4472490000000 1.0
C      1  0.5645420000000  0.4740620000000  0.5798660000000 1.0
C      1  0.4351480000000  0.5574190000000  0.4206790000000 1.0
C      1  0.5978360000000  0.4521570000000  0.5250270000000 1.0
C      1  0.5010330000000  0.5639600000000  0.5876200000000 1.0
C      1  0.4268530000000  0.4741800000000  0.5759270000000 1.0
C      1  0.4281020000000  0.4512920000000  0.4184480000000 1.0
C      1  0.5389250000000  0.4460270000000  0.5246280000000 1.0
C      1  0.6045230000000  0.4517340000000  0.4971460000000 1.0
C      1  0.6064900000000  0.5437010000000  0.5317160000000 1.0
C      1  0.5255510000000  0.4242020000000  0.5021820000000 1.0
C      1  0.4684420000000  0.5278590000000  0.3973570000000 1.0
C      1  0.4518010000000  0.5318320000000  0.4901640000000 1.0
C      1  0.5544340000000  0.4326750000000  0.5480340000000 1.0
C      1  0.5793040000000  0.5385020000000  0.5663770000000 1.0
C      1  0.5696590000000  0.5650340000000  0.5568290000000 1.0
C      1  0.5043160000000  0.4707350000000  0.5613430000000 1.0
C      1  0.4485260000000  0.4778620000000  0.4559120000000 1.0
C      1  0.4357220000000  0.5114560000000  0.5419150000000 1.0
C      1  0.4810680000000  0.4403090000000  0.5917490000000 1.0
C      1  0.4119610000000  0.4977790000000  0.5690400000000 1.0
C      1  0.5095410000000  0.5509570000000  0.5530050000000 1.0
C      1  0.5932670000000  0.4969810000000  0.4336260000000 1.0
C      1  0.4002100000000  0.4814140000000  0.4655280000000 1.0
C      1  0.4900190000000  0.4854520000000  0.4350660000000 1.0
C      1  0.5181660000000  0.5194340000000  0.4051500000000 1.0
C      1  0.5191070000000  0.5424720000000  0.4250870000000 1.0
C      1  0.4976240000000  0.3930520000000  0.4668420000000 1.0
C      1  0.6076480000000  0.5454960000000  0.4931010000000 1.0
C      1  0.4485450000000  0.4206420000000  0.4509070000000 1.0
C      1  0.5762620000000  0.4455770000000  0.4336810000000 1.0
C      1  0.4344850000000  0.5254250000000  0.4247540000000 1.0
C      1  0.5145080000000  0.6116860000000  0.5014570000000 1.0
C      1  0.4184640000000  0.4502560000000  0.5605310000000 1.0
C      1  0.4436510000000  0.4671560000000  0.5169270000000 1.0
C      1  0.4512670000000  0.5399750000000  0.5837520000000 1.0
C      1  0.4956500000000  0.4659320000000  0.5103760000000 1.0
C      1  0.5289480000000  0.4457740000000  0.5924850000000 1.0
C      1  0.4513520000000  0.4159940000000  0.5674490000000 1.0
C      1  0.3740260000000  0.4775340000000  0.5077810000000 1.0
C      1  0.5866080000000  0.5023020000000  0.5119460000000 1.0
C      1  0.5357540000000  0.3909890000000  0.5283730000000 1.0
C      1  0.6024000000000  0.5248530000000  0.5527750000000 1.0
C      1  0.4783660000000  0.5004130000000  0.5326840000000 1.0
C      1  0.5416590000000  0.5117140000000  0.3900690000000 1.0
C      1  0.3864200000000  0.4756170000000  0.5327010000000 1.0
C      1  0.5256570000000  0.4702030000000  0.6086600000000 1.0
C      1  0.5048820000000  0.5104940000000  0.5244130000000 1.0
C      1  0.4579930000000  0.4576860000000  0.5416040000000 1.0
C      1  0.5474070000000  0.5104280000000  0.4370790000000 1.0
C      1  0.4060440000000  0.4212580000000  0.4997940000000 1.0
C      1  0.5534590000000  0.5464040000000  0.4776600000000 1.0
C      1  0.5308930000000  0.6013600000000  0.5589190000000 1.0
C      1  0.4465070000000  0.6056590000000  0.5148270000000 1.0
C      1  0.5819160000000  0.4285910000000  0.5337140000000 1.0
C      1  0.4829270000000  0.5534600000000  0.4616910000000 1.0
C      1  0.5075400000000  0.4515890000000  0.4669280000000 1.0
C      1  0.5138040000000  0.5903320000000  0.4550480000000 1.0
C      1  0.4288810000000  0.5104430000000  0.4918070000000 1.0
C      1  0.5432560000000  0.5748360000000  0.5664980000000 1.0
C      1  0.4551880000000  0.5917300000000  0.4609250000000 1.0
C      1  0.4573580000000  0.5218840000000  0.4436700000000 1.0
C      1  0.4000400000000  0.5193900000000  0.4974940000000 1.0
C      1  0.5222530000000  0.5711720000000  0.5275630000000 1.0
C      1  0.4102310000000  0.4524860000000  0.4661970000000 1.0
C      1  0.5049840000000  0.4428440000000  0.5756640000000 1.0
C      1  0.4262490000000  0.4939870000000  0.4669130000000 1.0
C      1  0.4217890000000  0.4460360000000  0.4929920000000 1.0
C      1  0.5244720000000  0.4477190000000  0.4181720000000 1.0
C      1  0.5353300000000  0.4097210000000  0.5510840000000 1.0
C      1  0.4615790000000  0.4283530000000  0.5427120000000 1.0
C      1  0.4567900000000  0.4544230000000  0.4781710000000 1.0
C      1  0.5200470000000  0.5216310000000  0.5475560000000 1.0
C      1  0.4136780000000  0.5848380000000  0.4852590000000 1.0
C      1  0.5486820000000  0.4876470000000  0.6019870000000 1.0
C      1  0.4896200000000  0.4823300000000  0.3885230000000 1.0
C      1  0.5086350000000  0.6062250000000  0.5759600000000 1.0
C      1  0.6073490000000  0.4707710000000  0.4761150000000 1.0
C      1  0.5945530000000  0.5707890000000  0.4831200000000 1.0
C      1  0.5618800000000  0.5897610000000  0.4538430000000 1.0
C      1  0.5241200000000  0.5542180000000  0.4772010000000 1.0
C      1  0.4741750000000  0.5591610000000  0.5283900000000 1.0
C      1  0.5316050000000  0.4358400000000  0.4743930000000 1.0
C      1  0.4153640000000  0.4205520000000  0.5282050000000 1.0
C      1  0.4560690000000  0.4823390000000  0.5821060000000 1.0
C      1  0.5265590000000  0.5926810000000  0.4826510000000 1.0
C      1  0.4713020000000  0.4977950000000  0.4550000000000 1.0
C      1  0.5699930000000  0.5048770000000  0.4155410000000 1.0
C      1  0.5297790000000  0.5626400000000  0.5898070000000 1.0
C      1  0.5757910000000  0.4290180000000  0.4746450000000 1.0
C      1  0.4331890000000  0.4947990000000  0.5173800000000 1.0
C      1  0.5884310000000  0.4715340000000  0.4510100000000 1.0
C      1  0.5729110000000  0.5861380000000  0.5014270000000 1.0
C      1  0.5382400000000  0.5818250000000  0.4380750000000 1.0
C      1  0.5285920000000  0.4223770000000  0.4379060000000 1.0
C      1  0.5782710000000  0.4134810000000  0.5089190000000 1.0
C      1  0.4613120000000  0.4074680000000  0.4973650000000 1.0
C      1  0.4302560000000  0.4983190000000  0.4091420000000 1.0
C      1  0.5055200000000  0.5304020000000  0.5013190000000 1.0
C      1  0.4273430000000  0.4403580000000  0.4443340000000 1.0
C      1  0.5582420000000  0.4607880000000  0.5072890000000 1.0
C      1  0.4756360000000  0.4242850000000  0.4379340000000 1.0
C      1  0.5934730000000  0.4966540000000  0.5416070000000 1.0
C      1  0.5956530000000  0.5221340000000  0.4487120000000 1.0
C      1  0.5869100000000  0.5326480000000  0.5118080000000 1.0
C      1  0.5527910000000  0.4480520000000  0.5749300000000 1.0
C      1  0.3928500000000  0.5459210000000  0.4850990000000 1.0
C      1  0.5080410000000  0.4195210000000  0.5566280000000 1.0
C      1  0.6084390000000  0.4717300000000  0.5426420000000 1.0
C      1  0.4884360000000  0.4182900000000  0.5338290000000 1.0
C      1  0.5002350000000  0.4124870000000  0.4474860000000 1.0
C      1  0.4730600000000  0.6182910000000  0.5154010000000 1.0
C      1  0.4910210000000  0.4813820000000  0.6122900000000 1.0
C      1  0.5087300000000  0.4732250000000  0.4852900000000 1.0
C      1  0.4428250000000  0.4020040000000  0.4740370000000 1.0
C      1  0.4994710000000  0.5581790000000  0.5120420000000 1.0
C      1  0.5663260000000  0.4923770000000  0.5556220000000 1.0
C      1  0.5614870000000  0.4749520000000  0.4634290000000 1.0
C      1  0.5465350000000  0.5538680000000  0.4287630000000 1.0
C      1  0.4787790000000  0.4297660000000  0.4816080000000 1.0
C      1  0.4837710000000  0.3911870000000  0.5220250000000 1.0
C      1  0.4555910000000  0.5438120000000  0.4620330000000 1.0
C      1  0.4875170000000  0.5871730000000  0.5768620000000 1.0
C      1  0.4441520000000  0.4749470000000  0.4222770000000 1.0
C      1  0.4895960000000  0.6220320000000  0.4929610000000 1.0
C      1  0.4834440000000  0.5802340000000  0.4494600000000 1.0
C      1  0.4448740000000  0.4202000000000  0.5206530000000 1.0
C      1  0.5568000000000  0.4515330000000  0.4800490000000 1.0
C      1  0.4009870000000  0.5672330000000  0.5051310000000 1.0
C      1  0.4811340000000  0.5172330000000  0.4870500000000 1.0
C      1  0.5816500000000  0.5466460000000  0.4387970000000 1.0
C      1  0.5551620000000  0.5998180000000  0.4809360000000 1.0
C      1  0.4101160000000  0.5670600000000  0.4619760000000 1.0
C      1  0.4933880000000  0.5205660000000  0.5840150000000 1.0
C      1  0.3838950000000  0.4946420000000  0.4879150000000 1.0
C      1  0.3935800000000  0.5006590000000  0.5465380000000 1.0
C      1  0.5539370000000  0.4615940000000  0.4204160000000 1.0
C      1  0.4239150000000  0.5705200000000  0.5500380000000 1.0
C      1  0.4521670000000  0.5139340000000  0.5988310000000 1.0
C      1  0.5402160000000  0.5132080000000  0.5884110000000 1.0
C      1  0.4749750000000  0.4786740000000  0.5546520000000 1.0
C      1  0.4818200000000  0.5745030000000  0.4194250000000 1.0
C      1  0.4025880000000  0.5250780000000  0.5281110000000 1.0
C      1  0.4160660000000  0.4011310000000  0.4829940000000 1.0
C      1  0.5112920000000  0.5003720000000  0.4709760000000 1.0
C      1  0.4376860000000  0.5666640000000  0.4499120000000 1.0
C      1  0.4244170000000  0.4229170000000  0.5663300000000 1.0
C      1  0.4752210000000  0.5371570000000  0.5663020000000 1.0
C      1  0.5200960000000  0.4697030000000  0.5347180000000 1.0
C      1  0.4633310000000  0.5237580000000  0.5409420000000 1.0
C      1  0.5423860000000  0.3944590000000  0.4833960000000 1.0
C      1  0.4877420000000  0.6062820000000  0.5368110000000 1.0
C      1  0.5072910000000  0.5360550000000  0.4567150000000 1.0
C      1  0.5567350000000  0.4908520000000  0.5079820000000 1.0
C      1  0.6083650000000  0.4967830000000  0.4903330000000 1.0
C      1  0.5742360000000  0.5639410000000  0.4622610000000 1.0
C      1  0.5394350000000  0.4834940000000  0.3796750000000 1.0
C      1  0.5570270000000  0.3940110000000  0.5077350000000 1.0
C      1  0.4299340000000  0.5544050000000  0.5724580000000 1.0
C      1  0.4931300000000  0.5125010000000  0.3914730000000 1.0
C      1  0.5126710000000  0.4670980000000  0.4414190000000 1.0
END
