TITL C-950530-3293-343 -1.76572707459778e-06 125000 -294.631187320174 0 0 49 (C1) n - 1
REM
REM in /home/bkarasulu/work/CARBON/AIRSS/Generating-Clusters/EDIP-Nigel-Params/with-SteepDescent/Only-C1/SD-CG/HFTN-CG
REM
REM
REM
REM
REM
REM ./C.cell (11c1c37f851c82e70ff6c80c92926a4b)
REM
REM compiler GCC version 9.2.1 20190827 (Red Hat 9.2.1-1)
REM options -cpp -mtune=generic -march=x86-64 -g -O0 -fpre-include=/usr/include/finclude/math-vector-fortran.h
REM seed -742759543 1457535297 -1603298866 -1754896982 835416488 -412431952 -83148916 -1035765302 974967416 -574569619 660112331 -1663604824 -280503941 -1691860525 -1290658172 1826757038 1871647658 403159733 -88347549 554724573 1699542104 895527233 -965350721 -1424106892 -1406166393 773724436 -438330564 -419727112 -1778160538 -1643898464 548898953 923100452 -1719384051
REM
CELL 1.54180   50.00000   50.00000   50.00000   90.00000   90.00000   90.00000
LATT -1
SFAC C  
C      1  0.4854170000000  0.5124920000000  0.5041970000000 1.0
C      1  0.5424440000000  0.5388810000000  0.5229910000000 1.0
C      1  0.5171710000000  0.5084300000000  0.4383850000000 1.0
C      1  0.4359280000000  0.5018790000000  0.5210660000000 1.0
C      1  0.4435690000000  0.4855580000000  0.4671730000000 1.0
C      1  0.4861820000000  0.4466280000000  0.5188600000000 1.0
C      1  0.5086910000000  0.5109560000000  0.4887510000000 1.0
C      1  0.5210720000000  0.5484950000000  0.5410100000000 1.0
C      1  0.4893660000000  0.5681780000000  0.4782300000000 1.0
C      1  0.4595160000000  0.4730600000000  0.5498460000000 1.0
C      1  0.5465780000000  0.4763270000000  0.4963180000000 1.0
C      1  0.4624580000000  0.5258980000000  0.4893500000000 1.0
C      1  0.5263510000000  0.4325640000000  0.4952320000000 1.0
C      1  0.5068040000000  0.4440040000000  0.5401070000000 1.0
C      1  0.5546120000000  0.5164420000000  0.4670920000000 1.0
C      1  0.5625380000000  0.4994320000000  0.4892030000000 1.0
C      1  0.5225470000000  0.5227010000000  0.4663900000000 1.0
C      1  0.5008000000000  0.5119820000000  0.5560980000000 1.0
C      1  0.5050690000000  0.5723200000000  0.5014080000000 1.0
C      1  0.5158610000000  0.5336230000000  0.5641300000000 1.0
C      1  0.5343460000000  0.4253770000000  0.5223540000000 1.0
C      1  0.5224850000000  0.4700670000000  0.5439480000000 1.0
C      1  0.5251610000000  0.4481370000000  0.4442700000000 1.0
C      1  0.5388450000000  0.4838100000000  0.5233270000000 1.0
C      1  0.5458020000000  0.5031100000000  0.4421620000000 1.0
C      1  0.5003820000000  0.4864070000000  0.4354110000000 1.0
C      1  0.5327650000000  0.5745510000000  0.4983340000000 1.0
C      1  0.4983710000000  0.4434840000000  0.4930690000000 1.0
C      1  0.4666150000000  0.5533200000000  0.4778190000000 1.0
C      1  0.4715600000000  0.5456170000000  0.5352490000000 1.0
C      1  0.5531070000000  0.5579570000000  0.5051260000000 1.0
C      1  0.5003260000000  0.4605180000000  0.4455200000000 1.0
C      1  0.5515910000000  0.5108390000000  0.5238430000000 1.0
C      1  0.4649690000000  0.5519790000000  0.4505100000000 1.0
C      1  0.4399030000000  0.5287390000000  0.5086240000000 1.0
C      1  0.4546950000000  0.5004770000000  0.5438170000000 1.0
C      1  0.4555090000000  0.5111590000000  0.4646430000000 1.0
C      1  0.4972740000000  0.5605290000000  0.5276660000000 1.0
C      1  0.4791760000000  0.5164530000000  0.5353300000000 1.0
C      1  0.5497850000000  0.4470660000000  0.4550820000000 1.0
C      1  0.5468660000000  0.4500240000000  0.4829270000000 1.0
C      1  0.5109960000000  0.4870470000000  0.5622840000000 1.0
C      1  0.5180960000000  0.4170780000000  0.5429990000000 1.0
C      1  0.4445440000000  0.4770840000000  0.5047940000000 1.0
C      1  0.4615860000000  0.4615120000000  0.5242170000000 1.0
C      1  0.4860870000000  0.4572170000000  0.4705380000000 1.0
C      1  0.4531460000000  0.5281550000000  0.4422670000000 1.0
C      1  0.4451790000000  0.5506090000000  0.5261000000000 1.0
C      1  0.4578630000000  0.4618280000000  0.4719360000000 1.0
END
