TITL C-951343-2256-27 -1.1153082034454e-06 125000 -541.431025353552 0 0 90 (C1) n - 1
REM
REM in /home/bkarasulu/work/CARBON/AIRSS/Generating-Clusters/EDIP-Nigel-Params/with-SteepDescent/Only-C1/SD-CG/HFTN-CG
REM
REM
REM
REM
REM
REM ./C.cell (11c1c37f851c82e70ff6c80c92926a4b)
REM
REM compiler GCC version 9.2.1 20190827 (Red Hat 9.2.1-1)
REM options -cpp -mtune=generic -march=x86-64 -g -O0 -fpre-include=/usr/include/finclude/math-vector-fortran.h
REM seed -1955052729 -1363277865 -620444869 -1671851601 -1982112494 -1548611878 193629798 -848044758 448157796 -1727668413 -1118170503 -87127667 -671083785 -268962248 -1404962758 -2092580766 220024097 411559532 344225252 -1997796381 1227651425 596071242 -951495109 1260363701 -186370387 996901411 1979777073 -941926893 -2116762479 -105648171 -608097525 2020662775 -1015969135
REM
CELL 1.54180   50.00000   50.00000   50.00000   90.00000   90.00000   90.00000
LATT -1
SFAC C  
C      1  0.4688340000000  0.4991470000000  0.5836100000000 1.0
C      1  0.5172890000000  0.5904130000000  0.4911580000000 1.0
C      1  0.5012630000000  0.5685450000000  0.5009850000000 1.0
C      1  0.4245390000000  0.4764250000000  0.5135350000000 1.0
C      1  0.4595660000000  0.4367400000000  0.4576740000000 1.0
C      1  0.5659090000000  0.4624750000000  0.4626640000000 1.0
C      1  0.5294680000000  0.5598350000000  0.4386060000000 1.0
C      1  0.4695530000000  0.5255880000000  0.5758350000000 1.0
C      1  0.4605120000000  0.5633310000000  0.5521860000000 1.0
C      1  0.5333490000000  0.5466810000000  0.4654210000000 1.0
C      1  0.4612620000000  0.5464570000000  0.4460010000000 1.0
C      1  0.5440120000000  0.4772640000000  0.4490170000000 1.0
C      1  0.4966930000000  0.4946080000000  0.4466530000000 1.0
C      1  0.5547830000000  0.5202100000000  0.5692210000000 1.0
C      1  0.5269140000000  0.4237480000000  0.4623200000000 1.0
C      1  0.5412820000000  0.5100480000000  0.5097000000000 1.0
C      1  0.5054140000000  0.5453870000000  0.4786930000000 1.0
C      1  0.4655750000000  0.4352200000000  0.4861790000000 1.0
C      1  0.4835550000000  0.4387750000000  0.4424920000000 1.0
C      1  0.4343200000000  0.4782830000000  0.4762000000000 1.0
C      1  0.5070960000000  0.5373760000000  0.5310930000000 1.0
C      1  0.4789390000000  0.4614150000000  0.4924440000000 1.0
C      1  0.4092790000000  0.5197950000000  0.5069290000000 1.0
C      1  0.4953600000000  0.5392410000000  0.5780870000000 1.0
C      1  0.4421980000000  0.4332690000000  0.5020310000000 1.0
C      1  0.5077980000000  0.4588190000000  0.4853440000000 1.0
C      1  0.5086200000000  0.4192400000000  0.5115780000000 1.0
C      1  0.5461290000000  0.5197750000000  0.4603990000000 1.0
C      1  0.5190840000000  0.4918360000000  0.5728410000000 1.0
C      1  0.5535870000000  0.5516530000000  0.5306900000000 1.0
C      1  0.4583980000000  0.5330440000000  0.5490510000000 1.0
C      1  0.4632290000000  0.4560760000000  0.5682000000000 1.0
C      1  0.4468930000000  0.5047120000000  0.4421500000000 1.0
C      1  0.5725130000000  0.4820970000000  0.4829900000000 1.0
C      1  0.5119880000000  0.4357950000000  0.4394560000000 1.0
C      1  0.4250560000000  0.4990590000000  0.4580370000000 1.0
C      1  0.5171720000000  0.4929610000000  0.5166250000000 1.0
C      1  0.5053570000000  0.5465000000000  0.4281150000000 1.0
C      1  0.4889420000000  0.5649510000000  0.5627090000000 1.0
C      1  0.5574440000000  0.4311160000000  0.5231610000000 1.0
C      1  0.4627990000000  0.4877030000000  0.4835000000000 1.0
C      1  0.5149450000000  0.4751210000000  0.4598100000000 1.0
C      1  0.5509100000000  0.5625890000000  0.4820960000000 1.0
C      1  0.5349390000000  0.4393230000000  0.5537890000000 1.0
C      1  0.5029570000000  0.4988740000000  0.4179850000000 1.0
C      1  0.5637090000000  0.5054690000000  0.5281070000000 1.0
C      1  0.5073630000000  0.5254980000000  0.4098300000000 1.0
C      1  0.5322940000000  0.5383680000000  0.5121850000000 1.0
C      1  0.4596760000000  0.5781230000000  0.5286170000000 1.0
C      1  0.4165670000000  0.5021620000000  0.5279550000000 1.0
C      1  0.4314150000000  0.5207050000000  0.5452980000000 1.0
C      1  0.4593630000000  0.5117040000000  0.5050570000000 1.0
C      1  0.5055180000000  0.5655930000000  0.5385300000000 1.0
C      1  0.5253770000000  0.4809500000000  0.4091530000000 1.0
C      1  0.5251060000000  0.5986500000000  0.4666470000000 1.0
C      1  0.4700940000000  0.4987960000000  0.4571670000000 1.0
C      1  0.5435460000000  0.4558290000000  0.5316910000000 1.0
C      1  0.4979720000000  0.4713670000000  0.5627870000000 1.0
C      1  0.4891600000000  0.5377990000000  0.4520080000000 1.0
C      1  0.4684790000000  0.4175490000000  0.5412600000000 1.0
C      1  0.4687530000000  0.5700940000000  0.4575970000000 1.0
C      1  0.5096010000000  0.4291860000000  0.4846580000000 1.0
C      1  0.4347310000000  0.5289840000000  0.4980450000000 1.0
C      1  0.5673980000000  0.5294900000000  0.5449580000000 1.0
C      1  0.5173900000000  0.5220540000000  0.5650980000000 1.0
C      1  0.4372620000000  0.4509420000000  0.5234550000000 1.0
C      1  0.4780440000000  0.5255210000000  0.5263500000000 1.0
C      1  0.4550990000000  0.5745170000000  0.4818910000000 1.0
C      1  0.4511400000000  0.4394370000000  0.5477720000000 1.0
C      1  0.5787640000000  0.4690350000000  0.5080990000000 1.0
C      1  0.5269410000000  0.4544600000000  0.4224990000000 1.0
C      1  0.4923180000000  0.4328590000000  0.5325970000000 1.0
C      1  0.5284700000000  0.5875450000000  0.4423260000000 1.0
C      1  0.5529860000000  0.5040670000000  0.4833440000000 1.0
C      1  0.5490600000000  0.4966050000000  0.4128250000000 1.0
C      1  0.5490650000000  0.4911860000000  0.5682960000000 1.0
C      1  0.4365450000000  0.5548460000000  0.4881120000000 1.0
C      1  0.5571780000000  0.5114300000000  0.4351970000000 1.0
C      1  0.5628250000000  0.4786530000000  0.5424100000000 1.0
C      1  0.5726440000000  0.4412870000000  0.5013540000000 1.0
C      1  0.4576710000000  0.4880340000000  0.5359230000000 1.0
C      1  0.5238840000000  0.4662920000000  0.5098130000000 1.0
C      1  0.4727160000000  0.5793970000000  0.5039480000000 1.0
C      1  0.4928420000000  0.4848080000000  0.5354370000000 1.0
C      1  0.4557620000000  0.4827610000000  0.5657710000000 1.0
C      1  0.4801350000000  0.4596750000000  0.5216210000000 1.0
C      1  0.5602630000000  0.4372840000000  0.4750130000000 1.0
C      1  0.4376380000000  0.4550940000000  0.4587930000000 1.0
C      1  0.5641130000000  0.5618140000000  0.5062770000000 1.0
C      1  0.5073950000000  0.4425600000000  0.5569720000000 1.0
END
