TITL C-951336-9012-711 -1.96045130760097e-06 125000 -749.328658311489 0 0 121 (C1) n - 1
REM
REM in /home/bkarasulu/work/CARBON/AIRSS/Generating-Clusters/EDIP-Nigel-Params/with-SteepDescent/Only-C1/SD-CG/HFTN-CG
REM
REM
REM
REM
REM
REM ./C.cell (11c1c37f851c82e70ff6c80c92926a4b)
REM
REM compiler GCC version 9.2.1 20190827 (Red Hat 9.2.1-1)
REM options -cpp -mtune=generic -march=x86-64 -g -O0 -fpre-include=/usr/include/finclude/math-vector-fortran.h
REM seed 538729537 -211137575 -316175324 -2139451272 237834792 40071509 983770057 -1797403751 -840642361 2049486683 1375407431 681236795 1121226087 -360310299 1527970950 -404721002 604162820 -1960183835 2086715026 -532814463 -21412421 511405076 2096932855 678642079 -993302102 1950311506 628264948 -418686264 1418688817 638080630 1153806361 -1074287830 1539385000
REM
CELL 1.54180   50.00000   50.00000   50.00000   90.00000   90.00000   90.00000
LATT -1
SFAC C  
C      1  0.4734920000000  0.5634170000000  0.4423830000000 1.0
C      1  0.4751570000000  0.5846920000000  0.4907880000000 1.0
C      1  0.5717010000000  0.4863860000000  0.5556970000000 1.0
C      1  0.5644820000000  0.4608160000000  0.5424230000000 1.0
C      1  0.5155670000000  0.5072370000000  0.5274770000000 1.0
C      1  0.4809240000000  0.4291030000000  0.5383220000000 1.0
C      1  0.4395410000000  0.4960350000000  0.4775000000000 1.0
C      1  0.4416480000000  0.4948110000000  0.5071060000000 1.0
C      1  0.4794770000000  0.6024230000000  0.4680420000000 1.0
C      1  0.4785020000000  0.4635680000000  0.4778070000000 1.0
C      1  0.5039190000000  0.5096790000000  0.4061110000000 1.0
C      1  0.5077550000000  0.4143100000000  0.5282990000000 1.0
C      1  0.5248240000000  0.5396920000000  0.4393100000000 1.0
C      1  0.5781060000000  0.4439350000000  0.4626590000000 1.0
C      1  0.4835230000000  0.5608720000000  0.5636760000000 1.0
C      1  0.4931070000000  0.5846810000000  0.4502380000000 1.0
C      1  0.5594990000000  0.4979870000000  0.5198900000000 1.0
C      1  0.5244030000000  0.4108420000000  0.4539610000000 1.0
C      1  0.4984480000000  0.4632350000000  0.4297820000000 1.0
C      1  0.4747430000000  0.5192340000000  0.4133640000000 1.0
C      1  0.5358580000000  0.4522520000000  0.5395640000000 1.0
C      1  0.4670150000000  0.4597190000000  0.5579380000000 1.0
C      1  0.4856530000000  0.5922270000000  0.5213330000000 1.0
C      1  0.5871400000000  0.5460920000000  0.4879720000000 1.0
C      1  0.5419850000000  0.5421300000000  0.4851490000000 1.0
C      1  0.5238530000000  0.4598760000000  0.5136460000000 1.0
C      1  0.5817310000000  0.4713690000000  0.4591130000000 1.0
C      1  0.4852240000000  0.5154660000000  0.5875430000000 1.0
C      1  0.4682590000000  0.5366440000000  0.4828360000000 1.0
C      1  0.4525180000000  0.5194460000000  0.4626450000000 1.0
C      1  0.5713260000000  0.5747360000000  0.4850380000000 1.0
C      1  0.4672390000000  0.5063830000000  0.4389560000000 1.0
C      1  0.5020960000000  0.5692530000000  0.4937450000000 1.0
C      1  0.4939580000000  0.4504080000000  0.6020240000000 1.0
C      1  0.5161250000000  0.4864240000000  0.5033700000000 1.0
C      1  0.5275010000000  0.5763120000000  0.5437580000000 1.0
C      1  0.5125880000000  0.5079910000000  0.5780640000000 1.0
C      1  0.5188860000000  0.4453560000000  0.4170730000000 1.0
C      1  0.5844980000000  0.5345820000000  0.5159850000000 1.0
C      1  0.5688330000000  0.4224970000000  0.4777860000000 1.0
C      1  0.5169900000000  0.5277100000000  0.4807630000000 1.0
C      1  0.4951310000000  0.5397720000000  0.4954370000000 1.0
C      1  0.5309090000000  0.4576070000000  0.4651820000000 1.0
C      1  0.5351080000000  0.6046800000000  0.5066260000000 1.0
C      1  0.4008170000000  0.5162760000000  0.5171020000000 1.0
C      1  0.4961000000000  0.5298620000000  0.5232730000000 1.0
C      1  0.4160010000000  0.4896570000000  0.5214480000000 1.0
C      1  0.5621520000000  0.4976990000000  0.4882820000000 1.0
C      1  0.5536230000000  0.5429350000000  0.5166500000000 1.0
C      1  0.5114380000000  0.5553170000000  0.5560820000000 1.0
C      1  0.5970620000000  0.4838020000000  0.4795540000000 1.0
C      1  0.4400400000000  0.4257350000000  0.4538850000000 1.0
C      1  0.4994520000000  0.4232840000000  0.4570320000000 1.0
C      1  0.5009210000000  0.4531640000000  0.4581170000000 1.0
C      1  0.4381600000000  0.5291060000000  0.5721860000000 1.0
C      1  0.4282600000000  0.4505860000000  0.4647050000000 1.0
C      1  0.4107010000000  0.5409140000000  0.5296490000000 1.0
C      1  0.5694790000000  0.5191310000000  0.4465960000000 1.0
C      1  0.4517320000000  0.5543800000000  0.5328270000000 1.0
C      1  0.5174690000000  0.4634830000000  0.5594380000000 1.0
C      1  0.5441620000000  0.4811380000000  0.4254160000000 1.0
C      1  0.5310750000000  0.4392820000000  0.4939490000000 1.0
C      1  0.5505660000000  0.4985310000000  0.5730370000000 1.0
C      1  0.4558450000000  0.4798380000000  0.4368830000000 1.0
C      1  0.4734590000000  0.4975870000000  0.6049500000000 1.0
C      1  0.4527620000000  0.4212720000000  0.5285060000000 1.0
C      1  0.4838070000000  0.4396680000000  0.5753220000000 1.0
C      1  0.5063080000000  0.4908800000000  0.5527780000000 1.0
C      1  0.4315820000000  0.4318330000000  0.5439160000000 1.0
C      1  0.4220460000000  0.4818640000000  0.5508270000000 1.0
C      1  0.5181010000000  0.4546940000000  0.5866450000000 1.0
C      1  0.4541640000000  0.5625490000000  0.4849850000000 1.0
C      1  0.4354670000000  0.5595270000000  0.5077780000000 1.0
C      1  0.4582340000000  0.4337860000000  0.4333320000000 1.0
C      1  0.4373750000000  0.4564730000000  0.5562650000000 1.0
C      1  0.5764030000000  0.4556450000000  0.5162640000000 1.0
C      1  0.5149200000000  0.4917820000000  0.4278360000000 1.0
C      1  0.4699290000000  0.5281940000000  0.5365710000000 1.0
C      1  0.5156510000000  0.5725010000000  0.4663770000000 1.0
C      1  0.5663840000000  0.5259970000000  0.4757530000000 1.0
C      1  0.4123810000000  0.4498490000000  0.4881050000000 1.0
C      1  0.4872300000000  0.4154330000000  0.4824900000000 1.0
C      1  0.4772120000000  0.4858180000000  0.5465810000000 1.0
C      1  0.5252340000000  0.5353410000000  0.5720490000000 1.0
C      1  0.4878800000000  0.4858480000000  0.4951970000000 1.0
C      1  0.5083920000000  0.5398460000000  0.4130340000000 1.0
C      1  0.3962740000000  0.5224700000000  0.4900190000000 1.0
C      1  0.4790720000000  0.5499820000000  0.4171510000000 1.0
C      1  0.5899260000000  0.5034750000000  0.5265600000000 1.0
C      1  0.4496550000000  0.4295330000000  0.5006960000000 1.0
C      1  0.5493580000000  0.4081730000000  0.4639650000000 1.0
C      1  0.5470080000000  0.5734160000000  0.4627320000000 1.0
C      1  0.4225520000000  0.5473640000000  0.5558720000000 1.0
C      1  0.5355430000000  0.4229670000000  0.5355800000000 1.0
C      1  0.4762720000000  0.4402850000000  0.4960780000000 1.0
C      1  0.4685000000000  0.4882320000000  0.5172540000000 1.0
C      1  0.5587010000000  0.5885430000000  0.5096010000000 1.0
C      1  0.5414040000000  0.4533230000000  0.4339080000000 1.0
C      1  0.5429370000000  0.5195390000000  0.5318870000000 1.0
C      1  0.5341360000000  0.4874130000000  0.4767280000000 1.0
C      1  0.5962930000000  0.4775650000000  0.5076970000000 1.0
C      1  0.4501120000000  0.4713160000000  0.4645070000000 1.0
C      1  0.5170260000000  0.5109650000000  0.4546700000000 1.0
C      1  0.4693920000000  0.5771670000000  0.5426270000000 1.0
C      1  0.4289320000000  0.5030320000000  0.5678390000000 1.0
C      1  0.4493060000000  0.4109730000000  0.4775090000000 1.0
C      1  0.4803870000000  0.4726860000000  0.6114180000000 1.0
C      1  0.4041250000000  0.4673030000000  0.5072580000000 1.0
C      1  0.5122220000000  0.4146540000000  0.4988640000000 1.0
C      1  0.5489020000000  0.5238880000000  0.5605650000000 1.0
C      1  0.5593620000000  0.4308230000000  0.5057170000000 1.0
C      1  0.4693050000000  0.4580460000000  0.4231600000000 1.0
C      1  0.5554150000000  0.5640520000000  0.4365810000000 1.0
C      1  0.4688410000000  0.5327860000000  0.5684530000000 1.0
C      1  0.5528930000000  0.5692260000000  0.5309090000000 1.0
C      1  0.4455200000000  0.5636370000000  0.4554640000000 1.0
C      1  0.4072720000000  0.5347070000000  0.4684960000000 1.0
C      1  0.5535630000000  0.5364190000000  0.4294050000000 1.0
C      1  0.4303990000000  0.5378750000000  0.4528400000000 1.0
C      1  0.5158260000000  0.5955700000000  0.5257050000000 1.0
C      1  0.5643530000000  0.4901950000000  0.4442280000000 1.0
END
