TITL C-951342-2639-513 5.43152484789841e-07 125000 -794.893253874053 0 0 127 (C1) n - 1
REM
REM in /home/bkarasulu/work/CARBON/AIRSS/Generating-Clusters/EDIP-Nigel-Params/with-SteepDescent/Only-C1/SD-CG/HFTN-CG
REM
REM
REM
REM
REM
REM ./C.cell (11c1c37f851c82e70ff6c80c92926a4b)
REM
REM compiler GCC version 9.2.1 20190827 (Red Hat 9.2.1-1)
REM options -cpp -mtune=generic -march=x86-64 -g -O0 -fpre-include=/usr/include/finclude/math-vector-fortran.h
REM seed 884491628 -1607204847 -1587750213 133976796 1837347097 -166206362 -1986534442 1463128523 -187893729 -653305169 741129537 -578929639 -403395035 -600088058 1247912840 982183291 1366449114 -2051094088 1876268364 -1809784548 465998755 1344793037 1516050649 1330099934 1158326171 -1898480396 -239967954 921375200 -1992039198 -1792527655 -1870471338 -1090700407 1571046588
REM
CELL 1.54180   50.00000   50.00000   50.00000   90.00000   90.00000   90.00000
LATT -1
SFAC C  
C      1  0.5064180000000  0.4331370000000  0.4678270000000 1.0
C      1  0.5468010000000  0.5068660000000  0.5027210000000 1.0
C      1  0.5047430000000  0.4054250000000  0.5010210000000 1.0
C      1  0.4512380000000  0.5507500000000  0.4550700000000 1.0
C      1  0.5038990000000  0.5914190000000  0.5210360000000 1.0
C      1  0.5094360000000  0.5052930000000  0.4698590000000 1.0
C      1  0.6057920000000  0.4922660000000  0.4755290000000 1.0
C      1  0.5534010000000  0.4301320000000  0.4432700000000 1.0
C      1  0.4219500000000  0.5082780000000  0.5693820000000 1.0
C      1  0.4870550000000  0.4457540000000  0.4249010000000 1.0
C      1  0.3983670000000  0.4956760000000  0.5053220000000 1.0
C      1  0.5596460000000  0.4458110000000  0.5506860000000 1.0
C      1  0.4954060000000  0.4220090000000  0.5813970000000 1.0
C      1  0.5021890000000  0.4653140000000  0.5310250000000 1.0
C      1  0.4164090000000  0.5295730000000  0.5484360000000 1.0
C      1  0.5948050000000  0.4935260000000  0.5018240000000 1.0
C      1  0.4581990000000  0.4387090000000  0.5259330000000 1.0
C      1  0.5498800000000  0.4306110000000  0.5038170000000 1.0
C      1  0.4613910000000  0.4573060000000  0.4298120000000 1.0
C      1  0.4315740000000  0.4275990000000  0.4871920000000 1.0
C      1  0.4773550000000  0.4596790000000  0.5140590000000 1.0
C      1  0.5801510000000  0.4704610000000  0.5128970000000 1.0
C      1  0.5489580000000  0.4268110000000  0.5322450000000 1.0
C      1  0.4693740000000  0.4100920000000  0.4604300000000 1.0
C      1  0.5131540000000  0.5848520000000  0.5479570000000 1.0
C      1  0.5466260000000  0.5491230000000  0.5613490000000 1.0
C      1  0.4643920000000  0.4980630000000  0.5815770000000 1.0
C      1  0.5358460000000  0.5133530000000  0.4546510000000 1.0
C      1  0.5649790000000  0.4555080000000  0.4445860000000 1.0
C      1  0.5051320000000  0.4026830000000  0.5300020000000 1.0
C      1  0.4905850000000  0.5046460000000  0.5944050000000 1.0
C      1  0.4390650000000  0.4472350000000  0.4436310000000 1.0
C      1  0.5593210000000  0.4981000000000  0.4711080000000 1.0
C      1  0.5448210000000  0.5916340000000  0.4566330000000 1.0
C      1  0.4146160000000  0.5174930000000  0.4392720000000 1.0
C      1  0.5437260000000  0.4461630000000  0.5747380000000 1.0
C      1  0.5585060000000  0.5520990000000  0.4210650000000 1.0
C      1  0.4148380000000  0.4593970000000  0.5500960000000 1.0
C      1  0.4441620000000  0.5332650000000  0.5017300000000 1.0
C      1  0.5359640000000  0.4927440000000  0.5881990000000 1.0
C      1  0.4150410000000  0.4720890000000  0.5145050000000 1.0
C      1  0.4916310000000  0.4218980000000  0.4430730000000 1.0
C      1  0.4261000000000  0.4681700000000  0.4588910000000 1.0
C      1  0.5738240000000  0.5203110000000  0.5376220000000 1.0
C      1  0.4359550000000  0.5160370000000  0.4773880000000 1.0
C      1  0.4817630000000  0.3982420000000  0.5446980000000 1.0
C      1  0.4620460000000  0.4852950000000  0.5116200000000 1.0
C      1  0.3929130000000  0.5122940000000  0.4571590000000 1.0
C      1  0.5694970000000  0.5802230000000  0.4694130000000 1.0
C      1  0.4696030000000  0.4701560000000  0.4655260000000 1.0
C      1  0.4418560000000  0.4222880000000  0.4593980000000 1.0
C      1  0.5866700000000  0.5082220000000  0.4607900000000 1.0
C      1  0.5425370000000  0.5781100000000  0.5475020000000 1.0
C      1  0.4548340000000  0.4902060000000  0.4836390000000 1.0
C      1  0.5295670000000  0.5242830000000  0.5721650000000 1.0
C      1  0.5380390000000  0.5359790000000  0.5102950000000 1.0
C      1  0.4388890000000  0.5633930000000  0.5047650000000 1.0
C      1  0.5701120000000  0.5705470000000  0.4982090000000 1.0
C      1  0.4063390000000  0.5115210000000  0.4822300000000 1.0
C      1  0.4997760000000  0.5257130000000  0.4094620000000 1.0
C      1  0.4260280000000  0.4360150000000  0.5610190000000 1.0
C      1  0.4737740000000  0.5261400000000  0.5008900000000 1.0
C      1  0.4370280000000  0.4902590000000  0.5270980000000 1.0
C      1  0.5058140000000  0.4677130000000  0.4319840000000 1.0
C      1  0.5236380000000  0.5093260000000  0.5456870000000 1.0
C      1  0.5591600000000  0.4675660000000  0.4698020000000 1.0
C      1  0.5672020000000  0.4525010000000  0.4937270000000 1.0
C      1  0.4777340000000  0.5077050000000  0.4082820000000 1.0
C      1  0.5903170000000  0.5365800000000  0.4684060000000 1.0
C      1  0.4725740000000  0.4137670000000  0.5664090000000 1.0
C      1  0.5025740000000  0.5575140000000  0.4826910000000 1.0
C      1  0.4908400000000  0.5457750000000  0.4283650000000 1.0
C      1  0.5210360000000  0.4942840000000  0.4960730000000 1.0
C      1  0.4522380000000  0.4159610000000  0.5067370000000 1.0
C      1  0.4447350000000  0.5198550000000  0.5851960000000 1.0
C      1  0.4311990000000  0.5549650000000  0.5546440000000 1.0
C      1  0.4540610000000  0.4350510000000  0.5557860000000 1.0
C      1  0.5218530000000  0.4256960000000  0.5716650000000 1.0
C      1  0.4855240000000  0.4525730000000  0.4842580000000 1.0
C      1  0.5084780000000  0.4844080000000  0.5819070000000 1.0
C      1  0.5252060000000  0.5149560000000  0.4176660000000 1.0
C      1  0.4612340000000  0.5794560000000  0.4946890000000 1.0
C      1  0.4954230000000  0.5787430000000  0.4616700000000 1.0
C      1  0.4739630000000  0.5332370000000  0.4490640000000 1.0
C      1  0.5515640000000  0.5857710000000  0.5174200000000 1.0
C      1  0.5140820000000  0.5298630000000  0.5264410000000 1.0
C      1  0.4875140000000  0.5693910000000  0.5077040000000 1.0
C      1  0.5528240000000  0.5233220000000  0.4152690000000 1.0
C      1  0.5581800000000  0.4750940000000  0.4237310000000 1.0
C      1  0.4696870000000  0.5277530000000  0.5451910000000 1.0
C      1  0.5331490000000  0.4170230000000  0.4574780000000 1.0
C      1  0.5275710000000  0.5989260000000  0.5046250000000 1.0
C      1  0.4249890000000  0.5173500000000  0.5218400000000 1.0
C      1  0.4255090000000  0.4573490000000  0.4882210000000 1.0
C      1  0.4904300000000  0.4869530000000  0.4504040000000 1.0
C      1  0.5483080000000  0.4678860000000  0.5920000000000 1.0
C      1  0.4264950000000  0.5424890000000  0.4444730000000 1.0
C      1  0.5853760000000  0.5433240000000  0.4964170000000 1.0
C      1  0.5422600000000  0.5433520000000  0.4600910000000 1.0
C      1  0.4635220000000  0.5768870000000  0.4649220000000 1.0
C      1  0.4563910000000  0.5420460000000  0.5675610000000 1.0
C      1  0.4863620000000  0.5397540000000  0.5232120000000 1.0
C      1  0.5323970000000  0.4120420000000  0.4877920000000 1.0
C      1  0.5532270000000  0.4987610000000  0.5333640000000 1.0
C      1  0.5201640000000  0.4708830000000  0.5107050000000 1.0
C      1  0.5726320000000  0.5547040000000  0.4536870000000 1.0
C      1  0.5058350000000  0.5691370000000  0.4356550000000 1.0
C      1  0.5693550000000  0.5024180000000  0.4279780000000 1.0
C      1  0.5356670000000  0.5717190000000  0.4341750000000 1.0
C      1  0.5226800000000  0.5988340000000  0.4750870000000 1.0
C      1  0.4948850000000  0.5749840000000  0.5664800000000 1.0
C      1  0.4729640000000  0.4992090000000  0.5521310000000 1.0
C      1  0.4691370000000  0.5053530000000  0.4362310000000 1.0
C      1  0.5587070000000  0.5455970000000  0.5327610000000 1.0
C      1  0.5265440000000  0.4144290000000  0.5451980000000 1.0
C      1  0.5014700000000  0.4879240000000  0.5516920000000 1.0
C      1  0.5911020000000  0.5202360000000  0.5143100000000 1.0
C      1  0.4900380000000  0.5301480000000  0.4755100000000 1.0
C      1  0.5023720000000  0.5313970000000  0.5860030000000 1.0
C      1  0.4767720000000  0.4094360000000  0.4895750000000 1.0
C      1  0.4363000000000  0.4961590000000  0.4441930000000 1.0
C      1  0.4828650000000  0.5533460000000  0.5791040000000 1.0
C      1  0.5745470000000  0.4678410000000  0.5409300000000 1.0
C      1  0.4333740000000  0.5698950000000  0.5312730000000 1.0
C      1  0.4320240000000  0.4829260000000  0.5554730000000 1.0
C      1  0.5314360000000  0.5525910000000  0.4861940000000 1.0
C      1  0.5304980000000  0.4716180000000  0.4187380000000 1.0
END
