TITL C-950521-2237-114 -9.68329374570372e-07 125000 -1230.6770893861 0 0 198 (C1) n - 1
REM
REM in /home/bkarasulu/work/CARBON/AIRSS/Generating-Clusters/EDIP-Nigel-Params/with-SteepDescent/Only-C1/SD-CG/HFTN-CG
REM
REM
REM
REM
REM
REM ./C.cell (11c1c37f851c82e70ff6c80c92926a4b)
REM
REM compiler GCC version 9.2.1 20190827 (Red Hat 9.2.1-1)
REM options -cpp -mtune=generic -march=x86-64 -g -O0 -fpre-include=/usr/include/finclude/math-vector-fortran.h
REM seed 603034239 -1049366797 -328882812 -1190994593 530587026 -1050937808 1938030585 -176800785 489386902 418207924 -452153855 -598343491 2043778330 -1261338698 904599149 -4208576 -2055507979 -866617851 -735661050 920143119 1152583584 1792662235 329828595 -189532868 1368296884 2114213540 328074350 592983829 1686801413 -441482972 -547250961 -2007533593 1274616963
REM
CELL 1.54180   50.00000   50.00000   50.00000   90.00000   90.00000   90.00000
LATT -1
SFAC C  
C      1  0.5730770000000  0.4682460000000  0.5880990000000 1.0
C      1  0.4450410000000  0.4734280000000  0.5145400000000 1.0
C      1  0.4359870000000  0.5544650000000  0.4852110000000 1.0
C      1  0.5073560000000  0.5999500000000  0.4521490000000 1.0
C      1  0.4535370000000  0.4715540000000  0.6091660000000 1.0
C      1  0.5428080000000  0.5329080000000  0.5159030000000 1.0
C      1  0.4996710000000  0.4819000000000  0.5689650000000 1.0
C      1  0.4158100000000  0.5042110000000  0.5705920000000 1.0
C      1  0.4762970000000  0.5005660000000  0.5054000000000 1.0
C      1  0.5670790000000  0.4749570000000  0.4744830000000 1.0
C      1  0.4771920000000  0.4249950000000  0.5871140000000 1.0
C      1  0.3963370000000  0.4554030000000  0.4613420000000 1.0
C      1  0.5996230000000  0.5738320000000  0.5288570000000 1.0
C      1  0.5015630000000  0.4122810000000  0.5000120000000 1.0
C      1  0.4820350000000  0.5129680000000  0.4093600000000 1.0
C      1  0.4135150000000  0.4715830000000  0.4806210000000 1.0
C      1  0.5210510000000  0.6102500000000  0.5195580000000 1.0
C      1  0.4114400000000  0.4857390000000  0.4250550000000 1.0
C      1  0.4368630000000  0.4943360000000  0.4406230000000 1.0
C      1  0.6014260000000  0.4572360000000  0.5039470000000 1.0
C      1  0.4613180000000  0.4506440000000  0.5633290000000 1.0
C      1  0.5978490000000  0.5201740000000  0.4271790000000 1.0
C      1  0.4869670000000  0.5417020000000  0.4024640000000 1.0
C      1  0.5657730000000  0.5944460000000  0.5088060000000 1.0
C      1  0.4861690000000  0.4622620000000  0.3873410000000 1.0
C      1  0.5532340000000  0.5221670000000  0.4747240000000 1.0
C      1  0.5569750000000  0.5367710000000  0.4470480000000 1.0
C      1  0.4557310000000  0.4493560000000  0.4202290000000 1.0
C      1  0.4190960000000  0.4748240000000  0.5730410000000 1.0
C      1  0.4720470000000  0.4472780000000  0.4747200000000 1.0
C      1  0.5807160000000  0.4506440000000  0.4249980000000 1.0
C      1  0.5314840000000  0.5042060000000  0.6074740000000 1.0
C      1  0.5290090000000  0.5293540000000  0.3974100000000 1.0
C      1  0.5889300000000  0.5625560000000  0.4833910000000 1.0
C      1  0.4471460000000  0.4324190000000  0.4778460000000 1.0
C      1  0.5841410000000  0.4494560000000  0.5665150000000 1.0
C      1  0.4287790000000  0.4392810000000  0.4301310000000 1.0
C      1  0.4445300000000  0.4661080000000  0.5833670000000 1.0
C      1  0.4744520000000  0.5105260000000  0.5376400000000 1.0
C      1  0.5448810000000  0.4591370000000  0.5891110000000 1.0
C      1  0.4012540000000  0.5436360000000  0.4608170000000 1.0
C      1  0.5754540000000  0.4494130000000  0.5174740000000 1.0
C      1  0.5383960000000  0.5925670000000  0.5046600000000 1.0
C      1  0.4810180000000  0.4306140000000  0.4249150000000 1.0
C      1  0.4151920000000  0.5681230000000  0.4720380000000 1.0
C      1  0.5772540000000  0.5903860000000  0.4828070000000 1.0
C      1  0.5747490000000  0.4649680000000  0.5430740000000 1.0
C      1  0.3931470000000  0.4868720000000  0.5160080000000 1.0
C      1  0.4181260000000  0.4614300000000  0.5471530000000 1.0
C      1  0.4839920000000  0.4833820000000  0.4456040000000 1.0
C      1  0.5095160000000  0.3840380000000  0.4930640000000 1.0
C      1  0.5953670000000  0.4619190000000  0.4750070000000 1.0
C      1  0.4328350000000  0.4223250000000  0.5243840000000 1.0
C      1  0.5713610000000  0.4727930000000  0.4101450000000 1.0
C      1  0.5763740000000  0.5003570000000  0.4215080000000 1.0
C      1  0.5236360000000  0.4070940000000  0.4431350000000 1.0
C      1  0.5219030000000  0.4498390000000  0.5347440000000 1.0
C      1  0.5660500000000  0.4301200000000  0.4373840000000 1.0
C      1  0.5839680000000  0.5449390000000  0.4368960000000 1.0
C      1  0.4728720000000  0.4925010000000  0.5627790000000 1.0
C      1  0.6046730000000  0.4849230000000  0.5186230000000 1.0
C      1  0.6019660000000  0.5526570000000  0.4584200000000 1.0
C      1  0.5456770000000  0.4143710000000  0.5713020000000 1.0
C      1  0.5008440000000  0.4687450000000  0.5948710000000 1.0
C      1  0.4678310000000  0.5161080000000  0.5831010000000 1.0
C      1  0.5333860000000  0.5597940000000  0.4613540000000 1.0
C      1  0.4128770000000  0.5595460000000  0.5226730000000 1.0
C      1  0.5273640000000  0.4762130000000  0.6056650000000 1.0
C      1  0.5666660000000  0.5324590000000  0.5830920000000 1.0
C      1  0.4972150000000  0.5212490000000  0.5015230000000 1.0
C      1  0.5581910000000  0.5978420000000  0.4628030000000 1.0
C      1  0.4675420000000  0.5806070000000  0.5913960000000 1.0
C      1  0.5039340000000  0.4384390000000  0.5866530000000 1.0
C      1  0.5049700000000  0.5501330000000  0.4595330000000 1.0
C      1  0.4844930000000  0.5119400000000  0.4403480000000 1.0
C      1  0.4652780000000  0.5856400000000  0.5618760000000 1.0
C      1  0.3955340000000  0.4953660000000  0.4877550000000 1.0
C      1  0.5284080000000  0.4873660000000  0.3840730000000 1.0
C      1  0.4789810000000  0.4093390000000  0.5201160000000 1.0
C      1  0.6188680000000  0.5068110000000  0.5030210000000 1.0
C      1  0.4536230000000  0.5092690000000  0.4019530000000 1.0
C      1  0.5232820000000  0.4852820000000  0.5070600000000 1.0
C      1  0.4275080000000  0.5865240000000  0.4513330000000 1.0
C      1  0.4698150000000  0.5863040000000  0.4801930000000 1.0
C      1  0.4040010000000  0.4179700000000  0.5285790000000 1.0
C      1  0.5710470000000  0.4225870000000  0.5586760000000 1.0
C      1  0.4399620000000  0.5900650000000  0.5503950000000 1.0
C      1  0.5387950000000  0.5126520000000  0.3771660000000 1.0
C      1  0.4376060000000  0.5234560000000  0.5830020000000 1.0
C      1  0.5809890000000  0.5682720000000  0.5486080000000 1.0
C      1  0.5405250000000  0.5521200000000  0.5818150000000 1.0
C      1  0.3826530000000  0.4607900000000  0.5193420000000 1.0
C      1  0.6075630000000  0.5047470000000  0.4756490000000 1.0
C      1  0.4018840000000  0.5345120000000  0.5104360000000 1.0
C      1  0.5757160000000  0.5027220000000  0.4834770000000 1.0
C      1  0.6148460000000  0.4791090000000  0.4638780000000 1.0
C      1  0.5394510000000  0.4262040000000  0.4276700000000 1.0
C      1  0.5278320000000  0.5436730000000  0.5563150000000 1.0
C      1  0.5655070000000  0.4204350000000  0.4645770000000 1.0
C      1  0.4795130000000  0.4807870000000  0.6134590000000 1.0
C      1  0.5108050000000  0.5493720000000  0.3906400000000 1.0
C      1  0.4322370000000  0.5416860000000  0.6048150000000 1.0
C      1  0.3959440000000  0.4439610000000  0.5374430000000 1.0
C      1  0.4328810000000  0.4468440000000  0.5025330000000 1.0
C      1  0.5766760000000  0.4977630000000  0.5135790000000 1.0
C      1  0.4375360000000  0.5413250000000  0.5598730000000 1.0
C      1  0.4560930000000  0.4595190000000  0.3907010000000 1.0
C      1  0.4399210000000  0.4858500000000  0.4702610000000 1.0
C      1  0.5064000000000  0.5244600000000  0.5552120000000 1.0
C      1  0.4008460000000  0.4276020000000  0.4657720000000 1.0
C      1  0.4596710000000  0.4767490000000  0.4312660000000 1.0
C      1  0.4402460000000  0.5354540000000  0.4033980000000 1.0
C      1  0.4728970000000  0.4760380000000  0.4735370000000 1.0
C      1  0.4553190000000  0.5774010000000  0.4158150000000 1.0
C      1  0.5487460000000  0.5582910000000  0.4904600000000 1.0
C      1  0.4559000000000  0.4043280000000  0.4823980000000 1.0
C      1  0.4984900000000  0.6173820000000  0.5018350000000 1.0
C      1  0.5078000000000  0.5682640000000  0.5248320000000 1.0
C      1  0.5026490000000  0.5958910000000  0.5402380000000 1.0
C      1  0.5196850000000  0.5027210000000  0.5707350000000 1.0
C      1  0.5007610000000  0.4872890000000  0.3963920000000 1.0
C      1  0.4043870000000  0.5235470000000  0.4840060000000 1.0
C      1  0.4993780000000  0.4439850000000  0.4062840000000 1.0
C      1  0.5952570000000  0.4967590000000  0.5539780000000 1.0
C      1  0.4799740000000  0.5561070000000  0.4775500000000 1.0
C      1  0.5163170000000  0.5500410000000  0.6009480000000 1.0
C      1  0.5478000000000  0.4057430000000  0.5193370000000 1.0
C      1  0.5127760000000  0.4793820000000  0.4298140000000 1.0
C      1  0.5255700000000  0.5126150000000  0.4230880000000 1.0
C      1  0.6173430000000  0.5270700000000  0.4587260000000 1.0
C      1  0.5202970000000  0.5137560000000  0.5151060000000 1.0
C      1  0.4507590000000  0.5086740000000  0.4891600000000 1.0
C      1  0.5345260000000  0.5570980000000  0.5327060000000 1.0
C      1  0.4784990000000  0.5616370000000  0.5500590000000 1.0
C      1  0.4750450000000  0.5924480000000  0.4336560000000 1.0
C      1  0.4180320000000  0.5430880000000  0.4339450000000 1.0
C      1  0.4752060000000  0.6123640000000  0.5188740000000 1.0
C      1  0.4649540000000  0.4074920000000  0.5662530000000 1.0
C      1  0.4530000000000  0.5345510000000  0.4722690000000 1.0
C      1  0.4101420000000  0.5479440000000  0.5506190000000 1.0
C      1  0.5457280000000  0.4668640000000  0.5509030000000 1.0
C      1  0.5139100000000  0.5911100000000  0.5700730000000 1.0
C      1  0.4616920000000  0.5550360000000  0.3986970000000 1.0
C      1  0.4934850000000  0.3717570000000  0.4733750000000 1.0
C      1  0.4942070000000  0.4145150000000  0.4485510000000 1.0
C      1  0.5407750000000  0.4394480000000  0.4872930000000 1.0
C      1  0.5435640000000  0.4680720000000  0.4002730000000 1.0
C      1  0.5424900000000  0.5825790000000  0.5712700000000 1.0
C      1  0.5710410000000  0.4987100000000  0.5749830000000 1.0
C      1  0.5282840000000  0.4444350000000  0.4087490000000 1.0
C      1  0.4027020000000  0.5178290000000  0.5458010000000 1.0
C      1  0.4514780000000  0.5292320000000  0.5363910000000 1.0
C      1  0.4277880000000  0.5717170000000  0.4264970000000 1.0
C      1  0.5318140000000  0.4765850000000  0.4576080000000 1.0
C      1  0.6024540000000  0.5244320000000  0.5463800000000 1.0
C      1  0.5715790000000  0.4201210000000  0.5284530000000 1.0
C      1  0.5348100000000  0.5875590000000  0.4501440000000 1.0
C      1  0.4632470000000  0.5533030000000  0.5255600000000 1.0
C      1  0.4483130000000  0.5635880000000  0.6030090000000 1.0
C      1  0.5096460000000  0.5221090000000  0.4505220000000 1.0
C      1  0.4964390000000  0.5983390000000  0.4794110000000 1.0
C      1  0.4200540000000  0.4867640000000  0.5305850000000 1.0
C      1  0.5533700000000  0.4629540000000  0.4990410000000 1.0
C      1  0.5615430000000  0.5156930000000  0.5325440000000 1.0
C      1  0.4140770000000  0.4855010000000  0.3967390000000 1.0
C      1  0.5084420000000  0.4344220000000  0.5567430000000 1.0
C      1  0.4977020000000  0.5721500000000  0.5890160000000 1.0
C      1  0.5348870000000  0.4307250000000  0.5922200000000 1.0
C      1  0.4856150000000  0.3979910000000  0.5460520000000 1.0
C      1  0.4878370000000  0.5491680000000  0.5059210000000 1.0
C      1  0.4418170000000  0.5761190000000  0.5243400000000 1.0
C      1  0.5435800000000  0.4016370000000  0.4648130000000 1.0
C      1  0.5091820000000  0.5221390000000  0.6088860000000 1.0
C      1  0.6057120000000  0.5571220000000  0.5074550000000 1.0
C      1  0.5799300000000  0.5401190000000  0.5568180000000 1.0
C      1  0.4430550000000  0.5257890000000  0.4414310000000 1.0
C      1  0.5012750000000  0.4680790000000  0.5217410000000 1.0
C      1  0.4559280000000  0.5954470000000  0.5055970000000 1.0
C      1  0.4702210000000  0.4672830000000  0.5334210000000 1.0
C      1  0.4777990000000  0.3930000000000  0.4635830000000 1.0
C      1  0.4447570000000  0.4266650000000  0.5528740000000 1.0
C      1  0.6072840000000  0.5296290000000  0.5177130000000 1.0
C      1  0.4562000000000  0.5957750000000  0.4560900000000 1.0
C      1  0.4410800000000  0.4862490000000  0.3885180000000 1.0
C      1  0.5124810000000  0.4060670000000  0.5535140000000 1.0
C      1  0.4809470000000  0.5104460000000  0.6099080000000 1.0
C      1  0.4050750000000  0.4581160000000  0.4329280000000 1.0
C      1  0.5199400000000  0.4519570000000  0.4716050000000 1.0
C      1  0.5546720000000  0.5796420000000  0.5428740000000 1.0
C      1  0.5379890000000  0.3863190000000  0.4888870000000 1.0
C      1  0.5525290000000  0.5131660000000  0.4314370000000 1.0
C      1  0.5278110000000  0.4262130000000  0.5114570000000 1.0
C      1  0.5262280000000  0.5041750000000  0.4730230000000 1.0
C      1  0.4860780000000  0.5394840000000  0.5711920000000 1.0
C      1  0.4274650000000  0.4249810000000  0.4556310000000 1.0
C      1  0.5460070000000  0.4967680000000  0.5556200000000 1.0
C      1  0.4523960000000  0.4015670000000  0.5113350000000 1.0
C      1  0.4966040000000  0.4323860000000  0.4732550000000 1.0
END
