TITL C-950524-1808-398 9.45841165375985e-07 125000 -377.479469484877 0 0 61 (C1) n - 1
REM
REM in /home/bkarasulu/work/CARBON/AIRSS/Generating-Clusters/EDIP-Nigel-Params/with-SteepDescent/Only-C1/SD-CG/HFTN-CG
REM
REM
REM
REM
REM
REM ./C.cell (11c1c37f851c82e70ff6c80c92926a4b)
REM
REM compiler GCC version 9.2.1 20190827 (Red Hat 9.2.1-1)
REM options -cpp -mtune=generic -march=x86-64 -g -O0 -fpre-include=/usr/include/finclude/math-vector-fortran.h
REM seed -1556416208 837370776 -480125374 -2035510049 -1170875105 -643206565 -1902978113 632376429 -391472169 670731155 -17796162 1318849858 -1906739297 41192745 -2000968948 -278419532 1704535085 1484226163 -1630072169 -1912898146 -968146459 1032961790 1845217780 1829223808 1017106548 1525844642 -247327081 -1251779662 868019447 -1115044866 -370527110 -1916367941 -496887317
REM
CELL 1.54180   50.00000   50.00000   50.00000   90.00000   90.00000   90.00000
LATT -1
SFAC C  
C      1  0.4955300000000  0.5063590000000  0.5203100000000 1.0
C      1  0.4492820000000  0.5259970000000  0.4714840000000 1.0
C      1  0.4192370000000  0.4907050000000  0.4715240000000 1.0
C      1  0.4548620000000  0.4633740000000  0.5445390000000 1.0
C      1  0.5169440000000  0.5463890000000  0.5386850000000 1.0
C      1  0.4721900000000  0.5622070000000  0.4862030000000 1.0
C      1  0.4665310000000  0.4676650000000  0.4721840000000 1.0
C      1  0.5083920000000  0.4906010000000  0.5896540000000 1.0
C      1  0.5000560000000  0.4802970000000  0.4391260000000 1.0
C      1  0.5216020000000  0.4261480000000  0.4965990000000 1.0
C      1  0.4698890000000  0.4763230000000  0.4431240000000 1.0
C      1  0.5687990000000  0.5215400000000  0.4671600000000 1.0
C      1  0.5703000000000  0.4777110000000  0.4746780000000 1.0
C      1  0.5686120000000  0.4796440000000  0.5300110000000 1.0
C      1  0.5382230000000  0.4504660000000  0.4957370000000 1.0
C      1  0.5329950000000  0.5013880000000  0.5926800000000 1.0
C      1  0.5364290000000  0.5536300000000  0.5174040000000 1.0
C      1  0.5030980000000  0.5089990000000  0.4303370000000 1.0
C      1  0.4995460000000  0.4286240000000  0.4787100000000 1.0
C      1  0.4490690000000  0.5204680000000  0.5422720000000 1.0
C      1  0.4617740000000  0.4561180000000  0.5185620000000 1.0
C      1  0.5301700000000  0.5269250000000  0.5541740000000 1.0
C      1  0.4936000000000  0.4571720000000  0.4819550000000 1.0
C      1  0.5178140000000  0.5001800000000  0.4798960000000 1.0
C      1  0.5487740000000  0.4801640000000  0.5525240000000 1.0
C      1  0.5433660000000  0.5057380000000  0.5669810000000 1.0
C      1  0.5466310000000  0.5382950000000  0.4559110000000 1.0
C      1  0.4547100000000  0.5011990000000  0.4349950000000 1.0
C      1  0.5219980000000  0.4997110000000  0.5084780000000 1.0
C      1  0.5024540000000  0.4444600000000  0.5323090000000 1.0
C      1  0.4379260000000  0.5311340000000  0.4981990000000 1.0
C      1  0.4971840000000  0.5460340000000  0.4927910000000 1.0
C      1  0.5390240000000  0.5607000000000  0.4707080000000 1.0
C      1  0.4768580000000  0.5216490000000  0.4337020000000 1.0
C      1  0.4936370000000  0.5357410000000  0.5223270000000 1.0
C      1  0.5705700000000  0.5192880000000  0.4974630000000 1.0
C      1  0.5470500000000  0.5262500000000  0.5134040000000 1.0
C      1  0.4455330000000  0.4621650000000  0.4946270000000 1.0
C      1  0.4435890000000  0.5066110000000  0.5144650000000 1.0
C      1  0.4684070000000  0.4796410000000  0.5628710000000 1.0
C      1  0.4717900000000  0.4965980000000  0.5048010000000 1.0
C      1  0.4311980000000  0.5094790000000  0.4539670000000 1.0
C      1  0.5223970000000  0.5627510000000  0.4930100000000 1.0
C      1  0.5745690000000  0.4967380000000  0.4542880000000 1.0
C      1  0.4742260000000  0.5496770000000  0.4369140000000 1.0
C      1  0.5488140000000  0.4587940000000  0.4701100000000 1.0
C      1  0.4527590000000  0.5547690000000  0.5085520000000 1.0
C      1  0.5146750000000  0.4209110000000  0.5231350000000 1.0
C      1  0.5249020000000  0.5238100000000  0.4430040000000 1.0
C      1  0.4968690000000  0.4754670000000  0.5694050000000 1.0
C      1  0.4897690000000  0.4635590000000  0.5121480000000 1.0
C      1  0.4660420000000  0.5437850000000  0.5331020000000 1.0
C      1  0.5147130000000  0.4740940000000  0.4663310000000 1.0
C      1  0.5702260000000  0.4901440000000  0.5020560000000 1.0
C      1  0.4989790000000  0.5216020000000  0.4719550000000 1.0
C      1  0.4594050000000  0.5522400000000  0.4606800000000 1.0
C      1  0.5327670000000  0.4722480000000  0.5174790000000 1.0
C      1  0.4264860000000  0.4841770000000  0.4982130000000 1.0
C      1  0.4727740000000  0.5059300000000  0.4749940000000 1.0
C      1  0.4583900000000  0.5055350000000  0.5641310000000 1.0
C      1  0.5155950000000  0.4599810000000  0.5529570000000 1.0
END
