TITL C-950525-1983-360 3.98469589577438e-07 125000 -1069.18951655914 0 0 171 (C1) n - 1
REM
REM in /home/bkarasulu/work/CARBON/AIRSS/Generating-Clusters/EDIP-Nigel-Params/with-SteepDescent/Only-C1/SD-CG/HFTN-CG
REM
REM
REM
REM
REM
REM ./C.cell (11c1c37f851c82e70ff6c80c92926a4b)
REM
REM compiler GCC version 9.2.1 20190827 (Red Hat 9.2.1-1)
REM options -cpp -mtune=generic -march=x86-64 -g -O0 -fpre-include=/usr/include/finclude/math-vector-fortran.h
REM seed -1363553861 2092111549 1941977501 494653453 -293472871 1592816123 -459206986 568430879 617088653 1467626623 420259850 134527679 -1932098961 -1957465711 -600947909 104248963 -947652194 -1738591362 -1442558009 -1300642845 1966965479 -506233958 992854099 1523468229 -624511006 -606320129 -1221530778 -538261109 -1222785715 -1454866123 307211763 671529173 1085284452
REM
CELL 1.54180   50.00000   50.00000   50.00000   90.00000   90.00000   90.00000
LATT -1
SFAC C  
C      1  0.4122770000000  0.4404580000000  0.4657080000000 1.0
C      1  0.5588220000000  0.5442940000000  0.4587170000000 1.0
C      1  0.5204110000000  0.5986550000000  0.5369040000000 1.0
C      1  0.4992050000000  0.5042920000000  0.4425720000000 1.0
C      1  0.4808500000000  0.6088960000000  0.5007530000000 1.0
C      1  0.4836270000000  0.5689980000000  0.5689550000000 1.0
C      1  0.5135510000000  0.5383780000000  0.4735870000000 1.0
C      1  0.5451180000000  0.4970340000000  0.5430860000000 1.0
C      1  0.5347570000000  0.4049360000000  0.4959330000000 1.0
C      1  0.5915420000000  0.5086510000000  0.5534170000000 1.0
C      1  0.6000840000000  0.4756440000000  0.4461960000000 1.0
C      1  0.5982960000000  0.4896990000000  0.5316400000000 1.0
C      1  0.5315310000000  0.4387770000000  0.4689270000000 1.0
C      1  0.5152840000000  0.4946410000000  0.5512420000000 1.0
C      1  0.4547260000000  0.4722490000000  0.5805270000000 1.0
C      1  0.5248140000000  0.5730250000000  0.4183630000000 1.0
C      1  0.4574140000000  0.4247250000000  0.4481610000000 1.0
C      1  0.5748620000000  0.4179210000000  0.5252440000000 1.0
C      1  0.5564040000000  0.5322880000000  0.5756830000000 1.0
C      1  0.5003140000000  0.4069010000000  0.4296090000000 1.0
C      1  0.4725740000000  0.4908020000000  0.4370790000000 1.0
C      1  0.4381780000000  0.5677020000000  0.5561300000000 1.0
C      1  0.5955350000000  0.5380510000000  0.5498570000000 1.0
C      1  0.4419430000000  0.4869810000000  0.4735490000000 1.0
C      1  0.5139340000000  0.4462510000000  0.6001450000000 1.0
C      1  0.5087530000000  0.6134480000000  0.4965260000000 1.0
C      1  0.3964030000000  0.4764590000000  0.4930340000000 1.0
C      1  0.5509290000000  0.5091950000000  0.4931180000000 1.0
C      1  0.4563140000000  0.4071570000000  0.4710820000000 1.0
C      1  0.5470890000000  0.5868690000000  0.4304090000000 1.0
C      1  0.5315840000000  0.4057070000000  0.4320440000000 1.0
C      1  0.3917320000000  0.5199350000000  0.4485850000000 1.0
C      1  0.5294650000000  0.5979300000000  0.5092970000000 1.0
C      1  0.5636770000000  0.4113750000000  0.4993650000000 1.0
C      1  0.4389050000000  0.5883730000000  0.4843820000000 1.0
C      1  0.4352340000000  0.5558770000000  0.4384260000000 1.0
C      1  0.4879480000000  0.4837550000000  0.5641350000000 1.0
C      1  0.5401820000000  0.5926430000000  0.4584330000000 1.0
C      1  0.4914300000000  0.4913250000000  0.5095950000000 1.0
C      1  0.4141560000000  0.5088910000000  0.4362340000000 1.0
C      1  0.5749890000000  0.5701110000000  0.4911940000000 1.0
C      1  0.5589370000000  0.4735270000000  0.4237080000000 1.0
C      1  0.4836510000000  0.5534160000000  0.4328360000000 1.0
C      1  0.6007460000000  0.4436310000000  0.4935350000000 1.0
C      1  0.4580810000000  0.5354350000000  0.5892110000000 1.0
C      1  0.4895120000000  0.4001390000000  0.5082120000000 1.0
C      1  0.5464000000000  0.4276500000000  0.4452460000000 1.0
C      1  0.4392000000000  0.5202790000000  0.5724400000000 1.0
C      1  0.5281030000000  0.3953030000000  0.4692240000000 1.0
C      1  0.5011890000000  0.4673680000000  0.3978910000000 1.0
C      1  0.5639010000000  0.5045690000000  0.5676990000000 1.0
C      1  0.5591140000000  0.4149680000000  0.5483090000000 1.0
C      1  0.6100470000000  0.4957290000000  0.5049470000000 1.0
C      1  0.4864770000000  0.5599740000000  0.5060990000000 1.0
C      1  0.4714330000000  0.4638650000000  0.5461470000000 1.0
C      1  0.5247560000000  0.5625670000000  0.5970760000000 1.0
C      1  0.4650700000000  0.5363500000000  0.4628030000000 1.0
C      1  0.3922620000000  0.5057120000000  0.4962820000000 1.0
C      1  0.5359470000000  0.5827080000000  0.5814430000000 1.0
C      1  0.4917260000000  0.5465850000000  0.4046610000000 1.0
C      1  0.4646310000000  0.4782500000000  0.5195980000000 1.0
C      1  0.5389810000000  0.5449590000000  0.5248570000000 1.0
C      1  0.5617360000000  0.4458160000000  0.4307160000000 1.0
C      1  0.4365210000000  0.4376070000000  0.5506470000000 1.0
C      1  0.5575380000000  0.4580760000000  0.5811280000000 1.0
C      1  0.5445590000000  0.4761310000000  0.3970120000000 1.0
C      1  0.5663300000000  0.5735110000000  0.4612490000000 1.0
C      1  0.5565010000000  0.4604360000000  0.4760700000000 1.0
C      1  0.4538830000000  0.5161050000000  0.4059080000000 1.0
C      1  0.5516090000000  0.4701120000000  0.5285050000000 1.0
C      1  0.4781530000000  0.4519510000000  0.4085140000000 1.0
C      1  0.5950040000000  0.4393550000000  0.5214960000000 1.0
C      1  0.4612210000000  0.5721850000000  0.4377980000000 1.0
C      1  0.3997520000000  0.4675790000000  0.4650800000000 1.0
C      1  0.4318290000000  0.4379560000000  0.4432260000000 1.0
C      1  0.3890650000000  0.5265950000000  0.4755130000000 1.0
C      1  0.4488490000000  0.4117490000000  0.5428540000000 1.0
C      1  0.5826140000000  0.4796080000000  0.4693220000000 1.0
C      1  0.5031920000000  0.3931350000000  0.4553880000000 1.0
C      1  0.5800030000000  0.5174470000000  0.4377110000000 1.0
C      1  0.4920340000000  0.5234540000000  0.4633730000000 1.0
C      1  0.5125630000000  0.5387450000000  0.5352580000000 1.0
C      1  0.4894760000000  0.4338420000000  0.5995650000000 1.0
C      1  0.5934580000000  0.4620810000000  0.5390880000000 1.0
C      1  0.4243960000000  0.4369760000000  0.4930940000000 1.0
C      1  0.5113410000000  0.4079380000000  0.5456860000000 1.0
C      1  0.5299480000000  0.5020430000000  0.3980190000000 1.0
C      1  0.4880600000000  0.5977700000000  0.5724570000000 1.0
C      1  0.4326550000000  0.4635330000000  0.4298650000000 1.0
C      1  0.4213390000000  0.4826150000000  0.4499780000000 1.0
C      1  0.5123550000000  0.5632950000000  0.4898580000000 1.0
C      1  0.4620060000000  0.5577340000000  0.4888640000000 1.0
C      1  0.4750820000000  0.4123080000000  0.5575620000000 1.0
C      1  0.3958230000000  0.5128100000000  0.5240600000000 1.0
C      1  0.5332770000000  0.4422060000000  0.5790730000000 1.0
C      1  0.5434830000000  0.4788830000000  0.4980830000000 1.0
C      1  0.4149010000000  0.5624420000000  0.4573170000000 1.0
C      1  0.5182690000000  0.4681460000000  0.6167330000000 1.0
C      1  0.4433960000000  0.5372880000000  0.5021650000000 1.0
C      1  0.4067660000000  0.4540930000000  0.5116200000000 1.0
C      1  0.4636850000000  0.6007060000000  0.4789900000000 1.0
C      1  0.4888280000000  0.4302840000000  0.5099600000000 1.0
C      1  0.5160620000000  0.4818360000000  0.4563890000000 1.0
C      1  0.5010040000000  0.4971320000000  0.3933900000000 1.0
C      1  0.6061760000000  0.5501790000000  0.5269490000000 1.0
C      1  0.4376870000000  0.4089640000000  0.4934070000000 1.0
C      1  0.4861820000000  0.5291490000000  0.5983600000000 1.0
C      1  0.4106830000000  0.4816380000000  0.5593950000000 1.0
C      1  0.4016260000000  0.5522930000000  0.4803350000000 1.0
C      1  0.5422520000000  0.4876590000000  0.4441480000000 1.0
C      1  0.5013650000000  0.5106950000000  0.5316400000000 1.0
C      1  0.5157260000000  0.4437770000000  0.5041930000000 1.0
C      1  0.5207680000000  0.5170510000000  0.6074140000000 1.0
C      1  0.4754910000000  0.5930590000000  0.4545670000000 1.0
C      1  0.4154660000000  0.4906390000000  0.5307970000000 1.0
C      1  0.5107270000000  0.5834850000000  0.4652200000000 1.0
C      1  0.4246890000000  0.5410130000000  0.5536760000000 1.0
C      1  0.4857390000000  0.5528580000000  0.5370690000000 1.0
C      1  0.4482440000000  0.4605130000000  0.4975320000000 1.0
C      1  0.4578570000000  0.4730840000000  0.4168200000000 1.0
C      1  0.5521080000000  0.5185550000000  0.5215120000000 1.0
C      1  0.5162560000000  0.3956310000000  0.5179810000000 1.0
C      1  0.6073380000000  0.4718290000000  0.4844200000000 1.0
C      1  0.5124060000000  0.4744910000000  0.4936920000000 1.0
C      1  0.5942520000000  0.5480440000000  0.5018360000000 1.0
C      1  0.5562530000000  0.5677620000000  0.5385720000000 1.0
C      1  0.5555520000000  0.4854310000000  0.5902710000000 1.0
C      1  0.4523200000000  0.4008420000000  0.5166660000000 1.0
C      1  0.4325110000000  0.4916420000000  0.5769610000000 1.0
C      1  0.4833230000000  0.4318360000000  0.4316700000000 1.0
C      1  0.4473260000000  0.4440230000000  0.5770060000000 1.0
C      1  0.5392680000000  0.5862100000000  0.5541940000000 1.0
C      1  0.4765600000000  0.5174150000000  0.5487530000000 1.0
C      1  0.4567440000000  0.5632530000000  0.5780280000000 1.0
C      1  0.4119360000000  0.4529000000000  0.5426100000000 1.0
C      1  0.5078030000000  0.4524600000000  0.4541350000000 1.0
C      1  0.4293730000000  0.5799730000000  0.5098210000000 1.0
C      1  0.4172580000000  0.5528240000000  0.5058860000000 1.0
C      1  0.5183880000000  0.5548200000000  0.3975870000000 1.0
C      1  0.4685530000000  0.4804230000000  0.4635650000000 1.0
C      1  0.5258960000000  0.4552730000000  0.3916140000000 1.0
C      1  0.4854080000000  0.4367360000000  0.5401490000000 1.0
C      1  0.4831470000000  0.5189980000000  0.4045210000000 1.0
C      1  0.5082680000000  0.5672710000000  0.4403160000000 1.0
C      1  0.4445940000000  0.5171880000000  0.4789750000000 1.0
C      1  0.4686680000000  0.4248400000000  0.5837810000000 1.0
C      1  0.4524930000000  0.5261030000000  0.5308730000000 1.0
C      1  0.5995400000000  0.5205680000000  0.4904090000000 1.0
C      1  0.4818800000000  0.4554770000000  0.4684500000000 1.0
C      1  0.4485240000000  0.4902780000000  0.3953880000000 1.0
C      1  0.4986560000000  0.5536810000000  0.5891630000000 1.0
C      1  0.5571740000000  0.5829460000000  0.5112220000000 1.0
C      1  0.5325790000000  0.5112930000000  0.4269540000000 1.0
C      1  0.4936170000000  0.6056200000000  0.5463530000000 1.0
C      1  0.5408530000000  0.5371970000000  0.4828550000000 1.0
C      1  0.5545370000000  0.5316140000000  0.4305270000000 1.0
C      1  0.4687690000000  0.4392540000000  0.4884170000000 1.0
C      1  0.4711140000000  0.6028240000000  0.5277630000000 1.0
C      1  0.4476460000000  0.5834060000000  0.5322260000000 1.0
C      1  0.5391780000000  0.5377210000000  0.5988860000000 1.0
C      1  0.4440010000000  0.4984960000000  0.5257780000000 1.0
C      1  0.5777220000000  0.4299170000000  0.4815200000000 1.0
C      1  0.5733320000000  0.4559530000000  0.5577530000000 1.0
C      1  0.4048860000000  0.5401030000000  0.5302850000000 1.0
C      1  0.5316020000000  0.4904390000000  0.6063990000000 1.0
C      1  0.5726880000000  0.5523840000000  0.5611850000000 1.0
C      1  0.5335370000000  0.4278690000000  0.5518650000000 1.0
C      1  0.5846880000000  0.4896220000000  0.4261740000000 1.0
C      1  0.5772320000000  0.5090170000000  0.4750780000000 1.0
C      1  0.5306520000000  0.4488410000000  0.5303490000000 1.0
C      1  0.4373420000000  0.5268540000000  0.4294350000000 1.0
END
