TITL C-950534-5965-229 -3.08139334306036e-06 125000 -561.208363675854 0 0 90 (C1) n - 1
REM
REM in /home/bkarasulu/work/CARBON/AIRSS/Generating-Clusters/EDIP-Nigel-Params/with-SteepDescent/Only-C1/SD-CG/HFTN-CG
REM
REM
REM
REM
REM
REM ./C.cell (11c1c37f851c82e70ff6c80c92926a4b)
REM
REM compiler GCC version 9.2.1 20190827 (Red Hat 9.2.1-1)
REM options -cpp -mtune=generic -march=x86-64 -g -O0 -fpre-include=/usr/include/finclude/math-vector-fortran.h
REM seed -526136513 -1196454538 1422866995 1291555180 -1330792535 -887084633 2088931566 1095940595 -362784682 1673770716 -929137328 159617015 1697396018 -539159178 -1856302180 -711149811 496211572 -358299882 1768472435 -1312258740 531460706 -1481748201 1171502466 1073767786 438277336 823689047 -1075432966 706111181 -1936647817 737921206 -140208393 1653080581 679271912
REM
CELL 1.54180   50.00000   50.00000   50.00000   90.00000   90.00000   90.00000
LATT -1
SFAC C  
C      1  0.5167780000000  0.5455060000000  0.5590250000000 1.0
C      1  0.4224880000000  0.4694320000000  0.5360890000000 1.0
C      1  0.5554010000000  0.4545570000000  0.5191830000000 1.0
C      1  0.4900130000000  0.4381690000000  0.5123180000000 1.0
C      1  0.5101870000000  0.5328330000000  0.5310470000000 1.0
C      1  0.5147140000000  0.5092390000000  0.4216090000000 1.0
C      1  0.5230170000000  0.4400100000000  0.5533160000000 1.0
C      1  0.5725060000000  0.4596230000000  0.4576280000000 1.0
C      1  0.4843170000000  0.4814110000000  0.5760380000000 1.0
C      1  0.4543130000000  0.5635770000000  0.4492060000000 1.0
C      1  0.4707530000000  0.5488500000000  0.4318650000000 1.0
C      1  0.4679610000000  0.5578180000000  0.5784500000000 1.0
C      1  0.4959200000000  0.4642710000000  0.4952060000000 1.0
C      1  0.4667770000000  0.4232870000000  0.4465120000000 1.0
C      1  0.5067340000000  0.5669110000000  0.4640280000000 1.0
C      1  0.5555420000000  0.5647520000000  0.5423660000000 1.0
C      1  0.4495620000000  0.4886860000000  0.4666650000000 1.0
C      1  0.5365420000000  0.4320300000000  0.4738600000000 1.0
C      1  0.5399290000000  0.5349270000000  0.4519220000000 1.0
C      1  0.5749000000000  0.4755910000000  0.5124590000000 1.0
C      1  0.4281600000000  0.5286460000000  0.4863940000000 1.0
C      1  0.4801860000000  0.4529980000000  0.5801760000000 1.0
C      1  0.5437070000000  0.5739200000000  0.5185740000000 1.0
C      1  0.5262830000000  0.5040510000000  0.5783440000000 1.0
C      1  0.5345440000000  0.5580980000000  0.4709940000000 1.0
C      1  0.4613410000000  0.4209390000000  0.4763560000000 1.0
C      1  0.5071690000000  0.5265720000000  0.5804640000000 1.0
C      1  0.4856490000000  0.5779770000000  0.4824360000000 1.0
C      1  0.4259040000000  0.5289340000000  0.4581870000000 1.0
C      1  0.5355790000000  0.5016570000000  0.4941160000000 1.0
C      1  0.4481120000000  0.4612400000000  0.5086200000000 1.0
C      1  0.5624650000000  0.4687390000000  0.5645120000000 1.0
C      1  0.4703490000000  0.5751450000000  0.5311910000000 1.0
C      1  0.5731490000000  0.5434340000000  0.4966950000000 1.0
C      1  0.4970030000000  0.4263240000000  0.4434350000000 1.0
C      1  0.5665770000000  0.4951070000000  0.4912590000000 1.0
C      1  0.5490490000000  0.5147590000000  0.5628110000000 1.0
C      1  0.4573490000000  0.4443790000000  0.5648180000000 1.0
C      1  0.5458620000000  0.5518350000000  0.4986720000000 1.0
C      1  0.4576610000000  0.5700100000000  0.4763880000000 1.0
C      1  0.5272750000000  0.5068890000000  0.4649970000000 1.0
C      1  0.4382940000000  0.4610710000000  0.4600950000000 1.0
C      1  0.4703190000000  0.5295390000000  0.5008220000000 1.0
C      1  0.4462880000000  0.4673500000000  0.5523880000000 1.0
C      1  0.5125080000000  0.4805830000000  0.5651050000000 1.0
C      1  0.5365080000000  0.4891550000000  0.4264810000000 1.0
C      1  0.5584810000000  0.5024510000000  0.4422760000000 1.0
C      1  0.5084760000000  0.4441180000000  0.5777710000000 1.0
C      1  0.4705710000000  0.5300110000000  0.5838490000000 1.0
C      1  0.5030830000000  0.4509970000000  0.4284670000000 1.0
C      1  0.4423360000000  0.4439000000000  0.4840380000000 1.0
C      1  0.5826350000000  0.5179660000000  0.5013380000000 1.0
C      1  0.4460760000000  0.5581240000000  0.5249350000000 1.0
C      1  0.4723390000000  0.4784350000000  0.5069250000000 1.0
C      1  0.4871460000000  0.5240540000000  0.4800370000000 1.0
C      1  0.4645620000000  0.4904910000000  0.5557510000000 1.0
C      1  0.4786170000000  0.4674970000000  0.4346870000000 1.0
C      1  0.5479480000000  0.4360470000000  0.4992170000000 1.0
C      1  0.5470610000000  0.5451170000000  0.5606420000000 1.0
C      1  0.4193280000000  0.4856260000000  0.5121450000000 1.0
C      1  0.4918090000000  0.5054850000000  0.4050970000000 1.0
C      1  0.4624390000000  0.5200390000000  0.4257790000000 1.0
C      1  0.4917490000000  0.5805630000000  0.5109420000000 1.0
C      1  0.4885550000000  0.4207460000000  0.4897080000000 1.0
C      1  0.5483330000000  0.4469280000000  0.4517760000000 1.0
C      1  0.5835620000000  0.4958870000000  0.5324790000000 1.0
C      1  0.5088160000000  0.4888880000000  0.5353350000000 1.0
C      1  0.4426270000000  0.5366890000000  0.5444560000000 1.0
C      1  0.4817300000000  0.4813960000000  0.4641740000000 1.0
C      1  0.4485730000000  0.5485010000000  0.4965170000000 1.0
C      1  0.4727480000000  0.4863660000000  0.4125300000000 1.0
C      1  0.4808060000000  0.5577740000000  0.5523270000000 1.0
C      1  0.4974850000000  0.5062470000000  0.4623730000000 1.0
C      1  0.4546950000000  0.4493530000000  0.4378990000000 1.0
C      1  0.5182290000000  0.5854970000000  0.5192450000000 1.0
C      1  0.4804180000000  0.4951870000000  0.5308450000000 1.0
C      1  0.5287190000000  0.4628300000000  0.4367110000000 1.0
C      1  0.5705170000000  0.4951130000000  0.5584090000000 1.0
C      1  0.4801360000000  0.5258280000000  0.5285170000000 1.0
C      1  0.5083080000000  0.4305490000000  0.5318140000000 1.0
C      1  0.4993300000000  0.5549120000000  0.4377970000000 1.0
C      1  0.5199640000000  0.4788750000000  0.5088300000000 1.0
C      1  0.5077700000000  0.4300650000000  0.4701810000000 1.0
C      1  0.4370520000000  0.5009700000000  0.4937290000000 1.0
C      1  0.4420420000000  0.5095780000000  0.4457060000000 1.0
C      1  0.5498130000000  0.4504380000000  0.5475100000000 1.0
C      1  0.5733210000000  0.4869360000000  0.4628320000000 1.0
C      1  0.4538590000000  0.5177200000000  0.5632240000000 1.0
C      1  0.5212200000000  0.5370010000000  0.4287070000000 1.0
C      1  0.5310730000000  0.5279730000000  0.5093520000000 1.0
END
