TITL C-950521-2237-399 -1.1513043571827e-06 125000 -393.049328029809 0 0 65 (C1) n - 1
REM
REM in /home/bkarasulu/work/CARBON/AIRSS/Generating-Clusters/EDIP-Nigel-Params/with-SteepDescent/Only-C1/SD-CG/HFTN-CG
REM
REM
REM
REM
REM
REM ./C.cell (11c1c37f851c82e70ff6c80c92926a4b)
REM
REM compiler GCC version 9.2.1 20190827 (Red Hat 9.2.1-1)
REM options -cpp -mtune=generic -march=x86-64 -g -O0 -fpre-include=/usr/include/finclude/math-vector-fortran.h
REM seed -174773047 1789649565 -1356181561 1159800888 1073290827 1289699109 2095459147 -1712785883 1574564901 750199014 1404158107 832582522 -719059902 -282442833 319965007 -603175350 -541523038 -1942593608 1026430635 -2006887818 -847267979 -1122104429 -1348672934 -1199829816 -1688942692 -936309257 -1116149156 -1778008490 -659728879 -205475180 -1447625652 -1474607196 -300226077
REM
CELL 1.54180   50.00000   50.00000   50.00000   90.00000   90.00000   90.00000
LATT -1
SFAC C  
C      1  0.4271890000000  0.5049930000000  0.4827590000000 1.0
C      1  0.4714090000000  0.5088200000000  0.5773800000000 1.0
C      1  0.5640570000000  0.4552990000000  0.4972240000000 1.0
C      1  0.4289140000000  0.5119580000000  0.5547260000000 1.0
C      1  0.4941430000000  0.4408360000000  0.4579680000000 1.0
C      1  0.4580940000000  0.4883390000000  0.5185690000000 1.0
C      1  0.5233580000000  0.5750410000000  0.5254430000000 1.0
C      1  0.4705180000000  0.4327400000000  0.4991130000000 1.0
C      1  0.5063400000000  0.5348770000000  0.4971770000000 1.0
C      1  0.5109980000000  0.4099010000000  0.4883660000000 1.0
C      1  0.5699870000000  0.5419600000000  0.5061260000000 1.0
C      1  0.4856190000000  0.4411140000000  0.5244830000000 1.0
C      1  0.4981280000000  0.5740530000000  0.4600880000000 1.0
C      1  0.5304980000000  0.5410920000000  0.5432220000000 1.0
C      1  0.5127360000000  0.4818130000000  0.5790210000000 1.0
C      1  0.5565570000000  0.4691210000000  0.5221230000000 1.0
C      1  0.4989960000000  0.5044870000000  0.5400700000000 1.0
C      1  0.4449260000000  0.5610180000000  0.4849540000000 1.0
C      1  0.5283100000000  0.4667310000000  0.5632500000000 1.0
C      1  0.5149990000000  0.4570970000000  0.4739890000000 1.0
C      1  0.4711630000000  0.4505090000000  0.5461780000000 1.0
C      1  0.4702170000000  0.5239430000000  0.4283850000000 1.0
C      1  0.5500100000000  0.5233990000000  0.5508270000000 1.0
C      1  0.4766760000000  0.4771590000000  0.4315510000000 1.0
C      1  0.5244230000000  0.4349160000000  0.4957800000000 1.0
C      1  0.4974400000000  0.5019950000000  0.5678830000000 1.0
C      1  0.5897740000000  0.5084170000000  0.5040460000000 1.0
C      1  0.4428440000000  0.4864580000000  0.5647020000000 1.0
C      1  0.5148250000000  0.4427660000000  0.5225290000000 1.0
C      1  0.5162660000000  0.5050080000000  0.4293060000000 1.0
C      1  0.4700660000000  0.4563260000000  0.4490290000000 1.0
C      1  0.5162880000000  0.5063830000000  0.4920870000000 1.0
C      1  0.4875960000000  0.5022260000000  0.4282190000000 1.0
C      1  0.4510560000000  0.5330050000000  0.4465070000000 1.0
C      1  0.4442670000000  0.4416830000000  0.4882170000000 1.0
C      1  0.4342280000000  0.5152100000000  0.4591830000000 1.0
C      1  0.4521880000000  0.5594440000000  0.4580210000000 1.0
C      1  0.5266430000000  0.5497920000000  0.4504420000000 1.0
C      1  0.5431000000000  0.5073700000000  0.4842840000000 1.0
C      1  0.5892670000000  0.5311800000000  0.5263520000000 1.0
C      1  0.5677520000000  0.5202760000000  0.4861030000000 1.0
C      1  0.4726750000000  0.5765650000000  0.4499270000000 1.0
C      1  0.4315310000000  0.4977840000000  0.5089670000000 1.0
C      1  0.5346010000000  0.4575860000000  0.5378850000000 1.0
C      1  0.4609350000000  0.5581640000000  0.5078930000000 1.0
C      1  0.5011800000000  0.4814520000000  0.4863540000000 1.0
C      1  0.5614250000000  0.4684020000000  0.4723090000000 1.0
C      1  0.4777380000000  0.5336610000000  0.5085160000000 1.0
C      1  0.5767660000000  0.4865340000000  0.5328380000000 1.0
C      1  0.4575720000000  0.5230570000000  0.5551270000000 1.0
C      1  0.4732260000000  0.5130370000000  0.5299710000000 1.0
C      1  0.5273500000000  0.5302370000000  0.4312750000000 1.0
C      1  0.4174020000000  0.5100360000000  0.5292830000000 1.0
C      1  0.5528920000000  0.4297710000000  0.4961530000000 1.0
C      1  0.5059450000000  0.5483890000000  0.4699970000000 1.0
C      1  0.4527650000000  0.4707080000000  0.5420900000000 1.0
C      1  0.5271360000000  0.5483910000000  0.5157680000000 1.0
C      1  0.4759010000000  0.5808460000000  0.5135080000000 1.0
C      1  0.4543580000000  0.4642270000000  0.4733500000000 1.0
C      1  0.4738220000000  0.4721970000000  0.4963600000000 1.0
C      1  0.5380650000000  0.4654130000000  0.4569330000000 1.0
C      1  0.5755320000000  0.5130080000000  0.5456640000000 1.0
C      1  0.5319450000000  0.4833510000000  0.4366110000000 1.0
C      1  0.5004600000000  0.5886700000000  0.5199240000000 1.0
C      1  0.4869100000000  0.4197560000000  0.4776160000000 1.0
END
