TITL C-951337-3020-604 -3.80811273493738e-06 125000 -492.828435596788 0 0 79 (C1) n - 1
REM
REM in /home/bkarasulu/work/CARBON/AIRSS/Generating-Clusters/EDIP-Nigel-Params/with-SteepDescent/Only-C1/SD-CG/HFTN-CG
REM
REM
REM
REM
REM
REM ./C.cell (11c1c37f851c82e70ff6c80c92926a4b)
REM
REM compiler GCC version 9.2.1 20190827 (Red Hat 9.2.1-1)
REM options -cpp -mtune=generic -march=x86-64 -g -O0 -fpre-include=/usr/include/finclude/math-vector-fortran.h
REM seed -1435495029 -578820474 1481708543 -1803124379 1266710764 -832228646 296028041 -2080956487 39951877 -1051662514 386592464 -916479712 225924376 112685126 215733560 -838852823 -1765444634 1721672228 -1421777171 1740271283 179805501 1338942221 808326291 -1958580417 -823028773 -1683467368 673839821 1702841444 2063179181 -1554778676 2046665191 -1870600273 377296409
REM
CELL 1.54180   50.00000   50.00000   50.00000   90.00000   90.00000   90.00000
LATT -1
SFAC C  
C      1  0.4760980000000  0.4616440000000  0.5098850000000 1.0
C      1  0.5511390000000  0.5207830000000  0.4379990000000 1.0
C      1  0.4824900000000  0.4939370000000  0.4714630000000 1.0
C      1  0.5356530000000  0.4321650000000  0.4651310000000 1.0
C      1  0.4622850000000  0.5057630000000  0.4247310000000 1.0
C      1  0.4192450000000  0.5350780000000  0.5063640000000 1.0
C      1  0.5552640000000  0.4560920000000  0.5319630000000 1.0
C      1  0.5558400000000  0.4659620000000  0.5032530000000 1.0
C      1  0.4457820000000  0.4679570000000  0.5700190000000 1.0
C      1  0.4984460000000  0.4152950000000  0.5153660000000 1.0
C      1  0.5418720000000  0.4795490000000  0.5740820000000 1.0
C      1  0.5073300000000  0.5073290000000  0.4607100000000 1.0
C      1  0.4907930000000  0.4437360000000  0.5514580000000 1.0
C      1  0.4522290000000  0.4101020000000  0.4988840000000 1.0
C      1  0.5110890000000  0.4274430000000  0.5382100000000 1.0
C      1  0.4816430000000  0.5671230000000  0.4667210000000 1.0
C      1  0.4848630000000  0.5326390000000  0.4962800000000 1.0
C      1  0.5448940000000  0.4457130000000  0.4384260000000 1.0
C      1  0.5608630000000  0.4437310000000  0.4830630000000 1.0
C      1  0.4937370000000  0.5458730000000  0.5519310000000 1.0
C      1  0.5552460000000  0.4799210000000  0.5493030000000 1.0
C      1  0.4557170000000  0.5274490000000  0.4416100000000 1.0
C      1  0.5109950000000  0.5661700000000  0.5409070000000 1.0
C      1  0.5685240000000  0.4504840000000  0.4556310000000 1.0
C      1  0.4735060000000  0.5054840000000  0.5821600000000 1.0
C      1  0.4411310000000  0.5066490000000  0.4908400000000 1.0
C      1  0.5234180000000  0.5609350000000  0.4416550000000 1.0
C      1  0.4675680000000  0.5558420000000  0.4903150000000 1.0
C      1  0.5729140000000  0.5599620000000  0.5033540000000 1.0
C      1  0.5301620000000  0.4869630000000  0.4636810000000 1.0
C      1  0.5146960000000  0.4803670000000  0.5809530000000 1.0
C      1  0.4414100000000  0.4562720000000  0.5444130000000 1.0
C      1  0.5274260000000  0.4746090000000  0.4960250000000 1.0
C      1  0.5498450000000  0.5032980000000  0.5311110000000 1.0
C      1  0.4533220000000  0.5554700000000  0.5362600000000 1.0
C      1  0.5237340000000  0.5749060000000  0.4956740000000 1.0
C      1  0.5027210000000  0.5795750000000  0.5163930000000 1.0
C      1  0.5042910000000  0.4499130000000  0.5009080000000 1.0
C      1  0.5376240000000  0.4357930000000  0.5387880000000 1.0
C      1  0.4325890000000  0.4786350000000  0.4982060000000 1.0
C      1  0.4693530000000  0.4161590000000  0.5198450000000 1.0
C      1  0.4306560000000  0.4796790000000  0.5283070000000 1.0
C      1  0.5246770000000  0.4965800000000  0.5161060000000 1.0
C      1  0.4542280000000  0.4595080000000  0.4885010000000 1.0
C      1  0.5636790000000  0.5162420000000  0.4838010000000 1.0
C      1  0.5507890000000  0.5488650000000  0.4384310000000 1.0
C      1  0.5682310000000  0.4978090000000  0.5060880000000 1.0
C      1  0.5378550000000  0.5546100000000  0.5374790000000 1.0
C      1  0.5544830000000  0.5034830000000  0.4598570000000 1.0
C      1  0.5079450000000  0.5151910000000  0.4305630000000 1.0
C      1  0.4384320000000  0.5312720000000  0.5275120000000 1.0
C      1  0.5004330000000  0.4672380000000  0.4270930000000 1.0
C      1  0.4321670000000  0.5255660000000  0.4579430000000 1.0
C      1  0.4878650000000  0.4524870000000  0.4510340000000 1.0
C      1  0.4510590000000  0.4956930000000  0.5681060000000 1.0
C      1  0.5114920000000  0.5605620000000  0.4706630000000 1.0
C      1  0.4659700000000  0.5718600000000  0.5146680000000 1.0
C      1  0.5018920000000  0.5073890000000  0.5822130000000 1.0
C      1  0.5292360000000  0.4706010000000  0.4360320000000 1.0
C      1  0.4671780000000  0.4437960000000  0.5327470000000 1.0
C      1  0.4223380000000  0.5410910000000  0.4791200000000 1.0
C      1  0.5090540000000  0.5317630000000  0.4792770000000 1.0
C      1  0.5078660000000  0.4430500000000  0.4718560000000 1.0
C      1  0.4993310000000  0.4695530000000  0.5593130000000 1.0
C      1  0.4749840000000  0.5505700000000  0.4415400000000 1.0
C      1  0.5385080000000  0.5270030000000  0.5492420000000 1.0
C      1  0.4883860000000  0.4960180000000  0.4185670000000 1.0
C      1  0.5453490000000  0.5592660000000  0.5096320000000 1.0
C      1  0.4772640000000  0.4905440000000  0.5187190000000 1.0
C      1  0.4452620000000  0.4325240000000  0.4861220000000 1.0
C      1  0.5695900000000  0.5570750000000  0.4574250000000 1.0
C      1  0.5753090000000  0.5432800000000  0.4811630000000 1.0
C      1  0.5088650000000  0.5204590000000  0.5557020000000 1.0
C      1  0.4679380000000  0.4699690000000  0.4637830000000 1.0
C      1  0.4416930000000  0.5045430000000  0.5411370000000 1.0
C      1  0.5013390000000  0.5448440000000  0.4272670000000 1.0
C      1  0.5018120000000  0.4980060000000  0.5339820000000 1.0
C      1  0.4712420000000  0.5068200000000  0.4948890000000 1.0
C      1  0.4678560000000  0.5524190000000  0.5601500000000 1.0
END
