TITL C-950530-3293-510 -1.94145884046025e-06 125000 -619.12141993624 0 0 99 (C1) n - 1
REM
REM in /home/bkarasulu/work/CARBON/AIRSS/Generating-Clusters/EDIP-Nigel-Params/with-SteepDescent/Only-C1/SD-CG/HFTN-CG
REM
REM
REM
REM
REM
REM ./C.cell (11c1c37f851c82e70ff6c80c92926a4b)
REM
REM compiler GCC version 9.2.1 20190827 (Red Hat 9.2.1-1)
REM options -cpp -mtune=generic -march=x86-64 -g -O0 -fpre-include=/usr/include/finclude/math-vector-fortran.h
REM seed 435561513 -1069609312 -1050555285 1870040383 -1282671008 -1965012587 -976230512 -1217336520 -1783116179 962239253 195058631 1806618153 -1271874775 1654061617 -450834486 645289637 -783970929 -53095907 656552511 756497074 2087146846 -1677005866 -1294939979 -2004050961 -207305325 966245936 -1528336443 -1992189711 -382805816 -583475473 446177212 -1727982185 -338386122
REM
CELL 1.54180   50.00000   50.00000   50.00000   90.00000   90.00000   90.00000
LATT -1
SFAC C  
C      1  0.5572300000000  0.5724530000000  0.5056080000000 1.0
C      1  0.4962820000000  0.5068120000000  0.4089170000000 1.0
C      1  0.4694840000000  0.5697330000000  0.5467970000000 1.0
C      1  0.5379810000000  0.4277020000000  0.4719690000000 1.0
C      1  0.5188980000000  0.5703510000000  0.4436740000000 1.0
C      1  0.5116140000000  0.4810620000000  0.5833400000000 1.0
C      1  0.4536900000000  0.5301600000000  0.4373230000000 1.0
C      1  0.5189680000000  0.5733690000000  0.5505170000000 1.0
C      1  0.5286280000000  0.4968270000000  0.4758060000000 1.0
C      1  0.5269900000000  0.4684860000000  0.4842200000000 1.0
C      1  0.5648760000000  0.5342200000000  0.4722790000000 1.0
C      1  0.4930300000000  0.5351990000000  0.4800300000000 1.0
C      1  0.4378630000000  0.5662390000000  0.4689510000000 1.0
C      1  0.4444780000000  0.4383350000000  0.4683570000000 1.0
C      1  0.5252640000000  0.4567060000000  0.4273870000000 1.0
C      1  0.4122070000000  0.5145960000000  0.5082920000000 1.0
C      1  0.5773480000000  0.4631210000000  0.4822930000000 1.0
C      1  0.4666380000000  0.5777740000000  0.4681720000000 1.0
C      1  0.5812870000000  0.5192100000000  0.4926320000000 1.0
C      1  0.5565830000000  0.4211650000000  0.4975500000000 1.0
C      1  0.5439080000000  0.5076640000000  0.5004240000000 1.0
C      1  0.4938050000000  0.5636600000000  0.5636020000000 1.0
C      1  0.4269020000000  0.5554980000000  0.5284150000000 1.0
C      1  0.4644910000000  0.4260880000000  0.5403890000000 1.0
C      1  0.5264860000000  0.5279460000000  0.5625530000000 1.0
C      1  0.5768730000000  0.5294410000000  0.5208240000000 1.0
C      1  0.5561940000000  0.4771020000000  0.5647550000000 1.0
C      1  0.4983770000000  0.4585770000000  0.4828230000000 1.0
C      1  0.4879740000000  0.4437250000000  0.5633150000000 1.0
C      1  0.4552070000000  0.4909690000000  0.4774710000000 1.0
C      1  0.5349530000000  0.5895160000000  0.5099790000000 1.0
C      1  0.4824080000000  0.5699740000000  0.5187090000000 1.0
C      1  0.5203300000000  0.4214110000000  0.5115460000000 1.0
C      1  0.5818050000000  0.5115190000000  0.5415050000000 1.0
C      1  0.4766960000000  0.4891760000000  0.4190010000000 1.0
C      1  0.4343060000000  0.4960040000000  0.5476990000000 1.0
C      1  0.5818670000000  0.4905450000000  0.4881230000000 1.0
C      1  0.5198790000000  0.5436050000000  0.4847250000000 1.0
C      1  0.4455780000000  0.4480200000000  0.5385790000000 1.0
C      1  0.4706960000000  0.4664790000000  0.5705050000000 1.0
C      1  0.5409690000000  0.5523450000000  0.5508850000000 1.0
C      1  0.4648440000000  0.5847850000000  0.4985480000000 1.0
C      1  0.5174220000000  0.4850720000000  0.5403410000000 1.0
C      1  0.4522390000000  0.5022480000000  0.4296330000000 1.0
C      1  0.4796450000000  0.5154760000000  0.5642880000000 1.0
C      1  0.4592540000000  0.5234400000000  0.5181520000000 1.0
C      1  0.4627600000000  0.4170410000000  0.4700390000000 1.0
C      1  0.5445610000000  0.4103460000000  0.5257730000000 1.0
C      1  0.5397160000000  0.4615160000000  0.5102550000000 1.0
C      1  0.4927020000000  0.4956430000000  0.5268030000000 1.0
C      1  0.5007020000000  0.5317520000000  0.4207790000000 1.0
C      1  0.4699090000000  0.4730260000000  0.5217960000000 1.0
C      1  0.5018270000000  0.4460080000000  0.4380470000000 1.0
C      1  0.4240110000000  0.4916730000000  0.5194210000000 1.0
C      1  0.5143420000000  0.4541430000000  0.5715080000000 1.0
C      1  0.4391240000000  0.4861480000000  0.4518700000000 1.0
C      1  0.4353150000000  0.5766940000000  0.4985660000000 1.0
C      1  0.4483620000000  0.4564820000000  0.4454230000000 1.0
C      1  0.5422950000000  0.4973980000000  0.4485740000000 1.0
C      1  0.4841690000000  0.4904010000000  0.5789030000000 1.0
C      1  0.4542800000000  0.5213630000000  0.5484050000000 1.0
C      1  0.4839490000000  0.5393220000000  0.5109270000000 1.0
C      1  0.4735490000000  0.4253640000000  0.5123480000000 1.0
C      1  0.4991730000000  0.5357060000000  0.5708580000000 1.0
C      1  0.5436550000000  0.4874290000000  0.5232420000000 1.0
C      1  0.5670120000000  0.4480770000000  0.5052960000000 1.0
C      1  0.5111960000000  0.5827950000000  0.5239180000000 1.0
C      1  0.5132870000000  0.4490030000000  0.5278370000000 1.0
C      1  0.4366640000000  0.4518400000000  0.4920690000000 1.0
C      1  0.5342890000000  0.4978380000000  0.5730280000000 1.0
C      1  0.5513710000000  0.5384190000000  0.4258700000000 1.0
C      1  0.4326460000000  0.5340860000000  0.5089150000000 1.0
C      1  0.4828380000000  0.4820180000000  0.4685300000000 1.0
C      1  0.4119800000000  0.5225430000000  0.4586240000000 1.0
C      1  0.5287330000000  0.5682400000000  0.4717060000000 1.0
C      1  0.5475130000000  0.4695000000000  0.4387490000000 1.0
C      1  0.5503460000000  0.4271930000000  0.5477440000000 1.0
C      1  0.5249020000000  0.5480870000000  0.4252190000000 1.0
C      1  0.4345180000000  0.5392360000000  0.4568720000000 1.0
C      1  0.4896600000000  0.4101230000000  0.4739890000000 1.0
C      1  0.4793360000000  0.4670550000000  0.4404350000000 1.0
C      1  0.5418210000000  0.4507420000000  0.5612980000000 1.0
C      1  0.5551130000000  0.4526490000000  0.4628200000000 1.0
C      1  0.4114220000000  0.4953290000000  0.4553320000000 1.0
C      1  0.4947150000000  0.4062320000000  0.5032560000000 1.0
C      1  0.5003340000000  0.5062210000000  0.4713430000000 1.0
C      1  0.4450270000000  0.4693430000000  0.5574040000000 1.0
C      1  0.5585310000000  0.5639850000000  0.4762800000000 1.0
C      1  0.4877410000000  0.4518510000000  0.5106290000000 1.0
C      1  0.5527930000000  0.5477700000000  0.5227770000000 1.0
C      1  0.4784530000000  0.5441400000000  0.4340510000000 1.0
C      1  0.5685990000000  0.4871060000000  0.5402940000000 1.0
C      1  0.4455370000000  0.5513330000000  0.5509650000000 1.0
C      1  0.5071200000000  0.4333510000000  0.4655540000000 1.0
C      1  0.5055250000000  0.5242170000000  0.5289010000000 1.0
C      1  0.4875000000000  0.5582990000000  0.4581260000000 1.0
C      1  0.4456750000000  0.4774370000000  0.5023240000000 1.0
C      1  0.5303030000000  0.5318360000000  0.5096740000000 1.0
C      1  0.5606590000000  0.5208470000000  0.4457310000000 1.0
END
