TITL C-951346-9544-613 -2.62274902910137e-06 125000 -716.964599270602 0 0 117 (C1) n - 1
REM
REM in /home/bkarasulu/work/CARBON/AIRSS/Generating-Clusters/EDIP-Nigel-Params/with-SteepDescent/Only-C1/SD-CG/HFTN-CG
REM
REM
REM
REM
REM
REM ./C.cell (11c1c37f851c82e70ff6c80c92926a4b)
REM
REM compiler GCC version 9.2.1 20190827 (Red Hat 9.2.1-1)
REM options -cpp -mtune=generic -march=x86-64 -g -O0 -fpre-include=/usr/include/finclude/math-vector-fortran.h
REM seed -1024555938 -1069455037 663542425 -967257524 -834642302 -711626157 -431642965 -792646095 -803291907 -1837625127 -820308328 348223788 123095895 -478502531 -1104863327 -2071074173 -1282987220 722070510 1749574133 287541894 1901330966 1619604516 -1150320028 -1150043047 1647092767 202619255 -957653872 -1959390931 -538737011 -896698941 1055633573 -1590937831 180859805
REM
CELL 1.54180   50.00000   50.00000   50.00000   90.00000   90.00000   90.00000
LATT -1
SFAC C  
C      1  0.4095600000000  0.5188310000000  0.5445410000000 1.0
C      1  0.5427510000000  0.4988110000000  0.5117140000000 1.0
C      1  0.5753440000000  0.4451790000000  0.5118930000000 1.0
C      1  0.5439200000000  0.4551170000000  0.5313020000000 1.0
C      1  0.5590270000000  0.4461360000000  0.4510340000000 1.0
C      1  0.4894480000000  0.6071490000000  0.4823950000000 1.0
C      1  0.5403480000000  0.5426340000000  0.4228740000000 1.0
C      1  0.5257680000000  0.4619820000000  0.4868300000000 1.0
C      1  0.5575450000000  0.4171480000000  0.5447190000000 1.0
C      1  0.5516780000000  0.5809030000000  0.5099810000000 1.0
C      1  0.4485420000000  0.4469700000000  0.4969540000000 1.0
C      1  0.4188030000000  0.5169950000000  0.4943630000000 1.0
C      1  0.5042310000000  0.5023310000000  0.4767320000000 1.0
C      1  0.4254810000000  0.5085760000000  0.4310180000000 1.0
C      1  0.4923900000000  0.5349180000000  0.4132730000000 1.0
C      1  0.5068590000000  0.4696030000000  0.5835020000000 1.0
C      1  0.5088200000000  0.4980740000000  0.5065510000000 1.0
C      1  0.4776470000000  0.4956870000000  0.4315540000000 1.0
C      1  0.5780800000000  0.4712100000000  0.5612070000000 1.0
C      1  0.5126060000000  0.4699780000000  0.4141620000000 1.0
C      1  0.4776860000000  0.4691870000000  0.5391170000000 1.0
C      1  0.4495730000000  0.5842690000000  0.4723430000000 1.0
C      1  0.5894180000000  0.4931440000000  0.5050100000000 1.0
C      1  0.5354180000000  0.4770950000000  0.5867230000000 1.0
C      1  0.5511830000000  0.5347990000000  0.5590320000000 1.0
C      1  0.5066940000000  0.5137250000000  0.5967280000000 1.0
C      1  0.4913860000000  0.4471310000000  0.5197290000000 1.0
C      1  0.4625180000000  0.5053520000000  0.4546020000000 1.0
C      1  0.4405930000000  0.4638350000000  0.4303540000000 1.0
C      1  0.5342050000000  0.4339660000000  0.4481130000000 1.0
C      1  0.4803840000000  0.4590450000000  0.4638300000000 1.0
C      1  0.5331260000000  0.5404650000000  0.4833540000000 1.0
C      1  0.4796100000000  0.5190080000000  0.4729900000000 1.0
C      1  0.5057050000000  0.5587670000000  0.4535330000000 1.0
C      1  0.5121090000000  0.6020170000000  0.4979270000000 1.0
C      1  0.5820740000000  0.4985750000000  0.5545360000000 1.0
C      1  0.4398880000000  0.4351250000000  0.4708780000000 1.0
C      1  0.5262620000000  0.5176370000000  0.4645120000000 1.0
C      1  0.4827170000000  0.5607030000000  0.4991180000000 1.0
C      1  0.5604680000000  0.5198710000000  0.4308710000000 1.0
C      1  0.5690290000000  0.4726200000000  0.4507580000000 1.0
C      1  0.5192240000000  0.4563150000000  0.5143220000000 1.0
C      1  0.5256400000000  0.4710320000000  0.4406550000000 1.0
C      1  0.5749510000000  0.4702550000000  0.4947530000000 1.0
C      1  0.4773460000000  0.4450930000000  0.4927610000000 1.0
C      1  0.5198230000000  0.4065090000000  0.4896320000000 1.0
C      1  0.4393210000000  0.4341310000000  0.5221460000000 1.0
C      1  0.5916440000000  0.5499860000000  0.4950560000000 1.0
C      1  0.4570770000000  0.5611800000000  0.4584770000000 1.0
C      1  0.5715690000000  0.5222850000000  0.5412710000000 1.0
C      1  0.4887400000000  0.4180690000000  0.4498700000000 1.0
C      1  0.4515710000000  0.5052700000000  0.5641480000000 1.0
C      1  0.5144380000000  0.5474420000000  0.5068610000000 1.0
C      1  0.5070760000000  0.4734740000000  0.4657410000000 1.0
C      1  0.4462950000000  0.5519350000000  0.4346580000000 1.0
C      1  0.4706120000000  0.5881730000000  0.4908240000000 1.0
C      1  0.4874420000000  0.5789630000000  0.5616720000000 1.0
C      1  0.5535380000000  0.5261090000000  0.5857430000000 1.0
C      1  0.4442950000000  0.5276010000000  0.4208110000000 1.0
C      1  0.5012480000000  0.4448880000000  0.4047840000000 1.0
C      1  0.5901640000000  0.4748190000000  0.4707370000000 1.0
C      1  0.4195490000000  0.4875360000000  0.4979640000000 1.0
C      1  0.5134650000000  0.4219360000000  0.4652310000000 1.0
C      1  0.4967320000000  0.6001070000000  0.5460250000000 1.0
C      1  0.5459370000000  0.4086340000000  0.4991010000000 1.0
C      1  0.4299660000000  0.4559920000000  0.5402900000000 1.0
C      1  0.4362630000000  0.5079520000000  0.5383100000000 1.0
C      1  0.5478560000000  0.4975000000000  0.4483510000000 1.0
C      1  0.5335580000000  0.5066040000000  0.5883170000000 1.0
C      1  0.4466230000000  0.5564500000000  0.5408240000000 1.0
C      1  0.5065140000000  0.5582740000000  0.5693950000000 1.0
C      1  0.5750810000000  0.5401960000000  0.4498500000000 1.0
C      1  0.5643960000000  0.4188430000000  0.5174470000000 1.0
C      1  0.4618640000000  0.5430290000000  0.5187510000000 1.0
C      1  0.4816820000000  0.5492620000000  0.4700730000000 1.0
C      1  0.5700150000000  0.5154350000000  0.5111380000000 1.0
C      1  0.4949760000000  0.4254500000000  0.4238020000000 1.0
C      1  0.4939640000000  0.5370080000000  0.5849260000000 1.0
C      1  0.4809210000000  0.5104290000000  0.5612000000000 1.0
C      1  0.4257880000000  0.4558380000000  0.4537920000000 1.0
C      1  0.4691390000000  0.4670460000000  0.4264840000000 1.0
C      1  0.4794270000000  0.5199270000000  0.5311570000000 1.0
C      1  0.4606960000000  0.5716950000000  0.5592420000000 1.0
C      1  0.4086360000000  0.5035280000000  0.4532470000000 1.0
C      1  0.4779290000000  0.4598550000000  0.3993190000000 1.0
C      1  0.5072390000000  0.5232900000000  0.5218140000000 1.0
C      1  0.5285930000000  0.5677120000000  0.5252430000000 1.0
C      1  0.4531590000000  0.4611940000000  0.5574800000000 1.0
C      1  0.4059130000000  0.5251810000000  0.4709280000000 1.0
C      1  0.4115050000000  0.4783410000000  0.4685320000000 1.0
C      1  0.5365740000000  0.5897430000000  0.4854090000000 1.0
C      1  0.4215460000000  0.5443860000000  0.5476610000000 1.0
C      1  0.5762900000000  0.5689460000000  0.5059080000000 1.0
C      1  0.4485980000000  0.4790940000000  0.4967280000000 1.0
C      1  0.4464750000000  0.4810430000000  0.5790290000000 1.0
C      1  0.5316750000000  0.5561820000000  0.5532890000000 1.0
C      1  0.5328060000000  0.5647530000000  0.4664150000000 1.0
C      1  0.4617390000000  0.4210380000000  0.4588030000000 1.0
C      1  0.5548920000000  0.4590540000000  0.5736820000000 1.0
C      1  0.4174660000000  0.4834210000000  0.5296460000000 1.0
C      1  0.4418340000000  0.5304220000000  0.5025790000000 1.0
C      1  0.5500690000000  0.4840360000000  0.5377330000000 1.0
C      1  0.4968150000000  0.4833300000000  0.5579860000000 1.0
C      1  0.4715720000000  0.4911810000000  0.5180590000000 1.0
C      1  0.5127960000000  0.5378410000000  0.4334950000000 1.0
C      1  0.5002810000000  0.4026650000000  0.5095490000000 1.0
C      1  0.4873560000000  0.4188210000000  0.5286800000000 1.0
C      1  0.4593650000000  0.4166740000000  0.5323220000000 1.0
C      1  0.5764730000000  0.5341670000000  0.4782720000000 1.0
C      1  0.4641310000000  0.4832750000000  0.6007290000000 1.0
C      1  0.5480180000000  0.4804820000000  0.4890930000000 1.0
C      1  0.5077470000000  0.5883540000000  0.5233740000000 1.0
C      1  0.4557760000000  0.4792560000000  0.4665960000000 1.0
C      1  0.5445530000000  0.4339210000000  0.5629410000000 1.0
C      1  0.5536680000000  0.5614400000000  0.4437670000000 1.0
C      1  0.4711610000000  0.5165750000000  0.4124230000000 1.0
C      1  0.4920270000000  0.4875590000000  0.6020240000000 1.0
END
