TITL C-950531-5884-243 -1.33682943899212e-06 125000 -541.053152436133 0 0 87 (C1) n - 1
REM
REM in /home/bkarasulu/work/CARBON/AIRSS/Generating-Clusters/EDIP-Nigel-Params/with-SteepDescent/Only-C1/SD-CG/HFTN-CG
REM
REM
REM
REM
REM
REM ./C.cell (11c1c37f851c82e70ff6c80c92926a4b)
REM
REM compiler GCC version 9.2.1 20190827 (Red Hat 9.2.1-1)
REM options -cpp -mtune=generic -march=x86-64 -g -O0 -fpre-include=/usr/include/finclude/math-vector-fortran.h
REM seed -1812783811 -1717770305 -678489149 -1349758854 1353275514 1942114578 432394948 -209174280 95595485 229634632 1583958658 -1936525454 1951684620 -477920767 1236770581 -603567552 -1530577280 -86706099 -544826944 719060405 -1405621442 -812125408 75012486 -1947183056 -818470900 1774261602 1368827537 51089520 1840585237 -861311403 1497262248 272956478 2049109907
REM
CELL 1.54180   50.00000   50.00000   50.00000   90.00000   90.00000   90.00000
LATT -1
SFAC C  
C      1  0.4557480000000  0.4554360000000  0.4517160000000 1.0
C      1  0.5371950000000  0.5667510000000  0.4936440000000 1.0
C      1  0.4439650000000  0.5568710000000  0.4860640000000 1.0
C      1  0.5486460000000  0.4842010000000  0.5534920000000 1.0
C      1  0.5011390000000  0.4030580000000  0.5193370000000 1.0
C      1  0.5077200000000  0.5627830000000  0.4442260000000 1.0
C      1  0.5486740000000  0.5546600000000  0.4694240000000 1.0
C      1  0.4810060000000  0.4233520000000  0.5254050000000 1.0
C      1  0.5080280000000  0.4464650000000  0.5694300000000 1.0
C      1  0.4672920000000  0.5398150000000  0.4444430000000 1.0
C      1  0.4905600000000  0.4922630000000  0.4158210000000 1.0
C      1  0.5607850000000  0.5053320000000  0.4742450000000 1.0
C      1  0.4490950000000  0.4664030000000  0.4268890000000 1.0
C      1  0.4427040000000  0.4719830000000  0.5538760000000 1.0
C      1  0.5173230000000  0.5182090000000  0.5630230000000 1.0
C      1  0.5281950000000  0.5424120000000  0.4518600000000 1.0
C      1  0.4601030000000  0.4632970000000  0.5754480000000 1.0
C      1  0.5706970000000  0.5349470000000  0.4761160000000 1.0
C      1  0.5231470000000  0.4347180000000  0.4556190000000 1.0
C      1  0.5451330000000  0.5572490000000  0.5433330000000 1.0
C      1  0.5690580000000  0.4643630000000  0.5064160000000 1.0
C      1  0.5310390000000  0.5202280000000  0.5124710000000 1.0
C      1  0.4413620000000  0.5531520000000  0.5161470000000 1.0
C      1  0.4926660000000  0.5728240000000  0.4686200000000 1.0
C      1  0.5670720000000  0.4603260000000  0.4484040000000 1.0
C      1  0.5114740000000  0.4721400000000  0.5829050000000 1.0
C      1  0.4365230000000  0.4790470000000  0.5263750000000 1.0
C      1  0.5316670000000  0.5166080000000  0.4163350000000 1.0
C      1  0.4701800000000  0.4844170000000  0.5912530000000 1.0
C      1  0.5282770000000  0.4411810000000  0.5454080000000 1.0
C      1  0.4004530000000  0.4976520000000  0.4878090000000 1.0
C      1  0.4533790000000  0.5143210000000  0.4419370000000 1.0
C      1  0.5017820000000  0.5237180000000  0.5165520000000 1.0
C      1  0.4249130000000  0.5367720000000  0.4743900000000 1.0
C      1  0.5768800000000  0.4913420000000  0.4964910000000 1.0
C      1  0.4972970000000  0.5858210000000  0.5164450000000 1.0
C      1  0.5445230000000  0.5313240000000  0.5562420000000 1.0
C      1  0.5247290000000  0.5742840000000  0.5520440000000 1.0
C      1  0.4777140000000  0.4843830000000  0.4896000000000 1.0
C      1  0.4678460000000  0.4571580000000  0.4942410000000 1.0
C      1  0.5540660000000  0.4569170000000  0.5474140000000 1.0
C      1  0.4209230000000  0.4889310000000  0.4703920000000 1.0
C      1  0.4905530000000  0.5045990000000  0.5383730000000 1.0
C      1  0.5474120000000  0.5475080000000  0.5144570000000 1.0
C      1  0.4840800000000  0.5474020000000  0.5770780000000 1.0
C      1  0.5114740000000  0.4447940000000  0.4303340000000 1.0
C      1  0.4783960000000  0.4729630000000  0.5378950000000 1.0
C      1  0.4864880000000  0.4577870000000  0.4560710000000 1.0
C      1  0.5097510000000  0.5147940000000  0.4688810000000 1.0
C      1  0.4799040000000  0.4449230000000  0.5638590000000 1.0
C      1  0.5274770000000  0.4161290000000  0.5248140000000 1.0
C      1  0.5501710000000  0.4477260000000  0.4921910000000 1.0
C      1  0.4402450000000  0.5112340000000  0.4683780000000 1.0
C      1  0.4925550000000  0.4085950000000  0.4913860000000 1.0
C      1  0.5008390000000  0.5264830000000  0.5857550000000 1.0
C      1  0.5567990000000  0.5089930000000  0.5393740000000 1.0
C      1  0.4629730000000  0.4909840000000  0.4263060000000 1.0
C      1  0.5231960000000  0.4897470000000  0.5642420000000 1.0
C      1  0.4867300000000  0.5277780000000  0.4890830000000 1.0
C      1  0.4341700000000  0.4619560000000  0.4740910000000 1.0
C      1  0.4988970000000  0.5807620000000  0.5438830000000 1.0
C      1  0.4913170000000  0.5012440000000  0.5979450000000 1.0
C      1  0.5027220000000  0.5192860000000  0.4164560000000 1.0
C      1  0.4060640000000  0.5249970000000  0.4943380000000 1.0
C      1  0.5383190000000  0.4897610000000  0.4253050000000 1.0
C      1  0.4715770000000  0.5512710000000  0.4724200000000 1.0
C      1  0.5039790000000  0.4342070000000  0.4817900000000 1.0
C      1  0.4458900000000  0.5073300000000  0.5188850000000 1.0
C      1  0.4643080000000  0.5185690000000  0.5395090000000 1.0
C      1  0.5451490000000  0.5373670000000  0.4284940000000 1.0
C      1  0.4902290000000  0.5446380000000  0.4275080000000 1.0
C      1  0.5247150000000  0.4407130000000  0.5058930000000 1.0
C      1  0.5769310000000  0.4539660000000  0.5313800000000 1.0
C      1  0.5129680000000  0.4735800000000  0.4244110000000 1.0
C      1  0.5755610000000  0.5386110000000  0.5057750000000 1.0
C      1  0.4778860000000  0.5625080000000  0.5537310000000 1.0
C      1  0.4237370000000  0.5282260000000  0.5180860000000 1.0
C      1  0.5462650000000  0.4504670000000  0.4643030000000 1.0
C      1  0.4392510000000  0.4571520000000  0.5056930000000 1.0
C      1  0.4844130000000  0.4509320000000  0.5177810000000 1.0
C      1  0.5331290000000  0.5072630000000  0.4858110000000 1.0
C      1  0.5607110000000  0.4876960000000  0.4453920000000 1.0
C      1  0.4668010000000  0.5465600000000  0.5313810000000 1.0
C      1  0.4612020000000  0.5080110000000  0.4917060000000 1.0
C      1  0.5799320000000  0.5117190000000  0.5183650000000 1.0
C      1  0.5088750000000  0.5750540000000  0.4932630000000 1.0
C      1  0.4949830000000  0.4866030000000  0.4666250000000 1.0
END
