TITL C-950536-5891-752 -2.02859712627603e-06 125000 -1102.36893321963 0 0 177 (C1) n - 1
REM
REM in /home/bkarasulu/work/CARBON/AIRSS/Generating-Clusters/EDIP-Nigel-Params/with-SteepDescent/Only-C1/SD-CG/HFTN-CG
REM
REM
REM
REM
REM
REM ./C.cell (11c1c37f851c82e70ff6c80c92926a4b)
REM
REM compiler GCC version 9.2.1 20190827 (Red Hat 9.2.1-1)
REM options -cpp -mtune=generic -march=x86-64 -g -O0 -fpre-include=/usr/include/finclude/math-vector-fortran.h
REM seed -1278590791 -1190404189 -320956551 1029039521 -2053336871 1835377844 1005529566 2036594445 1184626157 1352428876 -319388213 1626031928 -1422051063 -923395501 -1611607286 -143416952 728498082 -1713885582 299546150 2114782183 -248639658 1748819132 -1915274447 -1654295026 -1667864892 -538293164 -181909475 1767075823 373947273 96119450 1929109967 1680274055 1891844904
REM
CELL 1.54180   50.00000   50.00000   50.00000   90.00000   90.00000   90.00000
LATT -1
SFAC C  
C      1  0.5030730000000  0.5630190000000  0.5194800000000 1.0
C      1  0.4915280000000  0.4822090000000  0.4349550000000 1.0
C      1  0.4926520000000  0.3824960000000  0.5230050000000 1.0
C      1  0.4756960000000  0.6047600000000  0.4620540000000 1.0
C      1  0.5437290000000  0.5688930000000  0.4959790000000 1.0
C      1  0.5223520000000  0.4194530000000  0.4167170000000 1.0
C      1  0.4767500000000  0.5617810000000  0.4437240000000 1.0
C      1  0.4736030000000  0.5289460000000  0.5957820000000 1.0
C      1  0.4632260000000  0.5586780000000  0.5481050000000 1.0
C      1  0.5671380000000  0.5608790000000  0.4590160000000 1.0
C      1  0.5483080000000  0.5244860000000  0.3984420000000 1.0
C      1  0.5354650000000  0.4949120000000  0.4535920000000 1.0
C      1  0.4769560000000  0.4924020000000  0.5423290000000 1.0
C      1  0.5355020000000  0.4033600000000  0.5433660000000 1.0
C      1  0.5350730000000  0.5932940000000  0.5509620000000 1.0
C      1  0.4721060000000  0.5338030000000  0.4486930000000 1.0
C      1  0.6087690000000  0.5318570000000  0.4743610000000 1.0
C      1  0.4833460000000  0.5188650000000  0.5028470000000 1.0
C      1  0.4860250000000  0.4731790000000  0.4863490000000 1.0
C      1  0.5380520000000  0.4407980000000  0.5151890000000 1.0
C      1  0.4437570000000  0.4882850000000  0.5086240000000 1.0
C      1  0.5011790000000  0.5527220000000  0.4037190000000 1.0
C      1  0.4704540000000  0.4754820000000  0.5146550000000 1.0
C      1  0.5268700000000  0.4511490000000  0.4143900000000 1.0
C      1  0.5897020000000  0.4906130000000  0.4859780000000 1.0
C      1  0.4817130000000  0.5986430000000  0.4922890000000 1.0
C      1  0.5004790000000  0.5661130000000  0.4636610000000 1.0
C      1  0.5163770000000  0.5304420000000  0.6076230000000 1.0
C      1  0.4082930000000  0.5069050000000  0.4657060000000 1.0
C      1  0.5227660000000  0.5138590000000  0.3858920000000 1.0
C      1  0.4552620000000  0.5834570000000  0.4516750000000 1.0
C      1  0.4676720000000  0.4473630000000  0.5188650000000 1.0
C      1  0.3890610000000  0.4978730000000  0.5427710000000 1.0
C      1  0.5909820000000  0.4626120000000  0.4957010000000 1.0
C      1  0.4024110000000  0.5546960000000  0.4998420000000 1.0
C      1  0.5772140000000  0.5823010000000  0.5215950000000 1.0
C      1  0.4142280000000  0.4475790000000  0.5097570000000 1.0
C      1  0.5523890000000  0.4182940000000  0.4612560000000 1.0
C      1  0.4669530000000  0.4873640000000  0.4196410000000 1.0
C      1  0.5397900000000  0.5249190000000  0.5157700000000 1.0
C      1  0.4359910000000  0.5894430000000  0.5198550000000 1.0
C      1  0.4921890000000  0.4169580000000  0.4103350000000 1.0
C      1  0.4757630000000  0.5824180000000  0.5614480000000 1.0
C      1  0.4491710000000  0.5634050000000  0.5221570000000 1.0
C      1  0.5117420000000  0.4289940000000  0.5058130000000 1.0
C      1  0.5463690000000  0.4009590000000  0.4831490000000 1.0
C      1  0.4749660000000  0.5617890000000  0.4129750000000 1.0
C      1  0.4236760000000  0.4317810000000  0.4619440000000 1.0
C      1  0.4252330000000  0.5484700000000  0.4594120000000 1.0
C      1  0.4495760000000  0.4948600000000  0.5557480000000 1.0
C      1  0.4972430000000  0.4816040000000  0.5644110000000 1.0
C      1  0.4891680000000  0.5453690000000  0.5407150000000 1.0
C      1  0.4535320000000  0.5164850000000  0.5010160000000 1.0
C      1  0.5653180000000  0.4257130000000  0.5145400000000 1.0
C      1  0.5506380000000  0.5443590000000  0.5789840000000 1.0
C      1  0.5239720000000  0.4253810000000  0.5849730000000 1.0
C      1  0.5462660000000  0.4591970000000  0.4821580000000 1.0
C      1  0.5219780000000  0.4612230000000  0.3877040000000 1.0
C      1  0.5031910000000  0.4345220000000  0.4566570000000 1.0
C      1  0.5086010000000  0.4513350000000  0.5549210000000 1.0
C      1  0.4716830000000  0.5137640000000  0.4035770000000 1.0
C      1  0.4808080000000  0.5043190000000  0.6097730000000 1.0
C      1  0.4650230000000  0.4096810000000  0.4363260000000 1.0
C      1  0.4949120000000  0.5487250000000  0.5971130000000 1.0
C      1  0.4915640000000  0.4340520000000  0.5303490000000 1.0
C      1  0.4247320000000  0.5151820000000  0.5916650000000 1.0
C      1  0.4598590000000  0.4562610000000  0.4631910000000 1.0
C      1  0.4723620000000  0.4019900000000  0.4829050000000 1.0
C      1  0.4585910000000  0.4370520000000  0.4916280000000 1.0
C      1  0.4144840000000  0.4531930000000  0.5389340000000 1.0
C      1  0.5564440000000  0.4761090000000  0.4104080000000 1.0
C      1  0.5646900000000  0.4432790000000  0.5659440000000 1.0
C      1  0.5559130000000  0.5916390000000  0.4667660000000 1.0
C      1  0.4302600000000  0.4256870000000  0.4958560000000 1.0
C      1  0.4324450000000  0.4899870000000  0.6012590000000 1.0
C      1  0.4833480000000  0.6020420000000  0.5401440000000 1.0
C      1  0.5537760000000  0.5009670000000  0.6015900000000 1.0
C      1  0.5263960000000  0.4171940000000  0.4470330000000 1.0
C      1  0.5777940000000  0.4905800000000  0.5574900000000 1.0
C      1  0.5088420000000  0.3901500000000  0.5468600000000 1.0
C      1  0.5567390000000  0.5931210000000  0.5045980000000 1.0
C      1  0.5101540000000  0.5035780000000  0.4363970000000 1.0
C      1  0.5210060000000  0.5032540000000  0.5651650000000 1.0
C      1  0.3987410000000  0.4835110000000  0.4807060000000 1.0
C      1  0.4188190000000  0.5815210000000  0.4954130000000 1.0
C      1  0.5357420000000  0.5197110000000  0.5872630000000 1.0
C      1  0.4642000000000  0.4646970000000  0.4012070000000 1.0
C      1  0.4191340000000  0.4750350000000  0.4360760000000 1.0
C      1  0.4391020000000  0.5724810000000  0.4225390000000 1.0
C      1  0.5604850000000  0.5501940000000  0.5528670000000 1.0
C      1  0.4213750000000  0.4724270000000  0.4953870000000 1.0
C      1  0.4990310000000  0.5700460000000  0.5762690000000 1.0
C      1  0.5419670000000  0.4237430000000  0.5636970000000 1.0
C      1  0.4075680000000  0.4565080000000  0.4563470000000 1.0
C      1  0.4369220000000  0.4114190000000  0.5444920000000 1.0
C      1  0.4297240000000  0.5184370000000  0.5583950000000 1.0
C      1  0.6057800000000  0.5237720000000  0.5224770000000 1.0
C      1  0.5164400000000  0.4486880000000  0.5982280000000 1.0
C      1  0.5603660000000  0.5043560000000  0.4157110000000 1.0
C      1  0.5475750000000  0.5377690000000  0.4591180000000 1.0
C      1  0.4849570000000  0.4219870000000  0.5660500000000 1.0
C      1  0.5948350000000  0.5377830000000  0.4290210000000 1.0
C      1  0.4875200000000  0.4540160000000  0.6022670000000 1.0
C      1  0.6083510000000  0.5110930000000  0.4958560000000 1.0
C      1  0.5858680000000  0.4970310000000  0.4564620000000 1.0
C      1  0.4393230000000  0.5701000000000  0.4752900000000 1.0
C      1  0.5266760000000  0.4828050000000  0.5231920000000 1.0
C      1  0.5423810000000  0.4660980000000  0.4529530000000 1.0
C      1  0.5010450000000  0.5232410000000  0.4040420000000 1.0
C      1  0.4862470000000  0.5677700000000  0.4928800000000 1.0
C      1  0.5962580000000  0.5075690000000  0.5443240000000 1.0
C      1  0.4628270000000  0.6053890000000  0.5168150000000 1.0
C      1  0.4696560000000  0.4346260000000  0.5879730000000 1.0
C      1  0.4983950000000  0.5032330000000  0.4830100000000 1.0
C      1  0.4501420000000  0.4785260000000  0.5813780000000 1.0
C      1  0.5306660000000  0.5050960000000  0.4837100000000 1.0
C      1  0.4798640000000  0.4445210000000  0.4141900000000 1.0
C      1  0.5669210000000  0.5328600000000  0.5294030000000 1.0
C      1  0.5849970000000  0.5538750000000  0.5112320000000 1.0
C      1  0.5041870000000  0.4481470000000  0.4834510000000 1.0
C      1  0.5345750000000  0.4595720000000  0.5384460000000 1.0
C      1  0.5181880000000  0.5420600000000  0.4605450000000 1.0
C      1  0.5007450000000  0.4552780000000  0.4319570000000 1.0
C      1  0.5641200000000  0.4592690000000  0.5914020000000 1.0
C      1  0.5242610000000  0.5673790000000  0.4128860000000 1.0
C      1  0.4189550000000  0.5524850000000  0.4306100000000 1.0
C      1  0.4459650000000  0.5381310000000  0.5944330000000 1.0
C      1  0.5493250000000  0.5512770000000  0.4126560000000 1.0
C      1  0.4793520000000  0.4804640000000  0.5911370000000 1.0
C      1  0.5649020000000  0.4615270000000  0.4337920000000 1.0
C      1  0.5244730000000  0.5841670000000  0.5772900000000 1.0
C      1  0.5383840000000  0.4667070000000  0.6039440000000 1.0
C      1  0.4195430000000  0.5253320000000  0.4192390000000 1.0
C      1  0.6048090000000  0.5192390000000  0.4479370000000 1.0
C      1  0.5105720000000  0.3761200000000  0.5024980000000 1.0
C      1  0.3977900000000  0.4733250000000  0.5484390000000 1.0
C      1  0.5266040000000  0.6026470000000  0.4733630000000 1.0
C      1  0.5418510000000  0.4836700000000  0.4993750000000 1.0
C      1  0.5897950000000  0.4722490000000  0.4421770000000 1.0
C      1  0.4296420000000  0.4356500000000  0.5563360000000 1.0
C      1  0.5053790000000  0.5089970000000  0.6225280000000 1.0
C      1  0.4418220000000  0.5463730000000  0.5654630000000 1.0
C      1  0.4916990000000  0.5173130000000  0.5307330000000 1.0
C      1  0.4539930000000  0.5380060000000  0.4085630000000 1.0
C      1  0.4025960000000  0.5372800000000  0.4754260000000 1.0
C      1  0.4976710000000  0.5206210000000  0.4568710000000 1.0
C      1  0.4466630000000  0.4815260000000  0.4469130000000 1.0
C      1  0.4044510000000  0.5205630000000  0.5421450000000 1.0
C      1  0.4708580000000  0.3998310000000  0.5116020000000 1.0
C      1  0.4065330000000  0.5030160000000  0.4349270000000 1.0
C      1  0.4388350000000  0.5029830000000  0.4680940000000 1.0
C      1  0.5726650000000  0.4645390000000  0.5449960000000 1.0
C      1  0.4943140000000  0.3953720000000  0.5705110000000 1.0
C      1  0.5884190000000  0.5525350000000  0.4804490000000 1.0
C      1  0.4459260000000  0.4485720000000  0.5775260000000 1.0
C      1  0.3990460000000  0.5417310000000  0.5247540000000 1.0
C      1  0.4423130000000  0.4050080000000  0.5178950000000 1.0
C      1  0.5590110000000  0.5106980000000  0.4456110000000 1.0
C      1  0.5189090000000  0.4013160000000  0.4925630000000 1.0
C      1  0.5185840000000  0.5911430000000  0.4268670000000 1.0
C      1  0.5110800000000  0.6071510000000  0.4994620000000 1.0
C      1  0.5228060000000  0.4867260000000  0.3791120000000 1.0
C      1  0.5709710000000  0.4407160000000  0.4870900000000 1.0
C      1  0.5212580000000  0.5088380000000  0.5351580000000 1.0
C      1  0.5067580000000  0.5946370000000  0.4532870000000 1.0
C      1  0.4836580000000  0.4114100000000  0.4579970000000 1.0
C      1  0.5434160000000  0.5685680000000  0.5915810000000 1.0
C      1  0.5915590000000  0.4599770000000  0.5235830000000 1.0
C      1  0.5100820000000  0.5924620000000  0.5283830000000 1.0
C      1  0.5743030000000  0.5571290000000  0.4295360000000 1.0
C      1  0.4585370000000  0.5540460000000  0.4949820000000 1.0
C      1  0.4471580000000  0.5290720000000  0.4600080000000 1.0
C      1  0.5749960000000  0.4866740000000  0.5865880000000 1.0
C      1  0.5628600000000  0.5791030000000  0.5476460000000 1.0
C      1  0.4480080000000  0.4333280000000  0.4432240000000 1.0
C      1  0.5282170000000  0.5513650000000  0.5111890000000 1.0
C      1  0.5533960000000  0.3999300000000  0.5203390000000 1.0
END
