TITL C-950535-5962-600 4.61412233462814e-06 125000 -635.822414707632 0 0 103 (C1) n - 1
REM
REM in /home/bkarasulu/work/CARBON/AIRSS/Generating-Clusters/EDIP-Nigel-Params/with-SteepDescent/Only-C1/SD-CG/HFTN-CG
REM
REM
REM
REM
REM
REM ./C.cell (11c1c37f851c82e70ff6c80c92926a4b)
REM
REM compiler GCC version 9.2.1 20190827 (Red Hat 9.2.1-1)
REM options -cpp -mtune=generic -march=x86-64 -g -O0 -fpre-include=/usr/include/finclude/math-vector-fortran.h
REM seed -1012725135 -1230092137 -402006211 -1175844349 -629480163 1028032171 132113923 -1551072376 -1354139405 1730734217 -860566442 -543250685 -106259709 -137024953 -1851193306 -850106942 2060988210 735597858 672250945 -1700527161 -285107881 -506269387 1296110689 1909887003 1337288017 -258610336 -844723671 928438985 -1986322729 709171295 1385442007 643318565 1617042969
REM
CELL 1.54180   50.00000   50.00000   50.00000   90.00000   90.00000   90.00000
LATT -1
SFAC C  
C      1  0.5345330000000  0.5259350000000  0.5055370000000 1.0
C      1  0.5101340000000  0.5419100000000  0.5726800000000 1.0
C      1  0.4460200000000  0.4434250000000  0.4921750000000 1.0
C      1  0.5062990000000  0.4599350000000  0.5944010000000 1.0
C      1  0.4395400000000  0.4749750000000  0.4335080000000 1.0
C      1  0.4323690000000  0.4849120000000  0.4894700000000 1.0
C      1  0.5431190000000  0.5596750000000  0.5609900000000 1.0
C      1  0.5335600000000  0.4708790000000  0.5901790000000 1.0
C      1  0.5064810000000  0.4619980000000  0.4799480000000 1.0
C      1  0.5719490000000  0.4569990000000  0.5270530000000 1.0
C      1  0.4783260000000  0.5447740000000  0.5717020000000 1.0
C      1  0.5557780000000  0.4886190000000  0.4249010000000 1.0
C      1  0.5532390000000  0.4355200000000  0.5228170000000 1.0
C      1  0.5247460000000  0.4984460000000  0.4963780000000 1.0
C      1  0.5071800000000  0.4324010000000  0.5849850000000 1.0
C      1  0.4489220000000  0.5193550000000  0.4274980000000 1.0
C      1  0.4922230000000  0.5042870000000  0.4571570000000 1.0
C      1  0.5373790000000  0.5526800000000  0.4292200000000 1.0
C      1  0.5120740000000  0.4661610000000  0.5329940000000 1.0
C      1  0.5710320000000  0.5036740000000  0.4703700000000 1.0
C      1  0.4675400000000  0.5227900000000  0.5143490000000 1.0
C      1  0.5047440000000  0.4190680000000  0.5122920000000 1.0
C      1  0.5415920000000  0.5875310000000  0.4913490000000 1.0
C      1  0.5072890000000  0.5844090000000  0.5295000000000 1.0
C      1  0.4916330000000  0.4258050000000  0.5612400000000 1.0
C      1  0.4888020000000  0.5352730000000  0.4677260000000 1.0
C      1  0.4771390000000  0.5066380000000  0.4268540000000 1.0
C      1  0.5677800000000  0.5338250000000  0.4736740000000 1.0
C      1  0.4297810000000  0.5019360000000  0.4419900000000 1.0
C      1  0.4641250000000  0.4201070000000  0.4850540000000 1.0
C      1  0.4417750000000  0.4542470000000  0.4549910000000 1.0
C      1  0.4594490000000  0.5397340000000  0.4695700000000 1.0
C      1  0.4742610000000  0.4948600000000  0.5154520000000 1.0
C      1  0.5105170000000  0.4594740000000  0.4303940000000 1.0
C      1  0.4815090000000  0.4239430000000  0.4620680000000 1.0
C      1  0.4289920000000  0.5077740000000  0.4712800000000 1.0
C      1  0.4637620000000  0.5635150000000  0.5523330000000 1.0
C      1  0.5499450000000  0.4877810000000  0.4541400000000 1.0
C      1  0.4659400000000  0.5775000000000  0.4999980000000 1.0
C      1  0.4936690000000  0.5754450000000  0.4850320000000 1.0
C      1  0.5844750000000  0.5028370000000  0.5217050000000 1.0
C      1  0.5364230000000  0.5197790000000  0.5357140000000 1.0
C      1  0.5386150000000  0.4263910000000  0.5463720000000 1.0
C      1  0.5237500000000  0.4104730000000  0.4897970000000 1.0
C      1  0.5496090000000  0.4244070000000  0.4959390000000 1.0
C      1  0.5121840000000  0.4133990000000  0.5409630000000 1.0
C      1  0.4440140000000  0.4372200000000  0.5223280000000 1.0
C      1  0.4528030000000  0.5449660000000  0.4411730000000 1.0
C      1  0.4953550000000  0.5680840000000  0.4474080000000 1.0
C      1  0.5221760000000  0.5294640000000  0.4187350000000 1.0
C      1  0.5012000000000  0.4941410000000  0.5272180000000 1.0
C      1  0.4762260000000  0.4098660000000  0.5085790000000 1.0
C      1  0.5779600000000  0.5321710000000  0.5262720000000 1.0
C      1  0.5261070000000  0.5630960000000  0.5376210000000 1.0
C      1  0.4715920000000  0.4513940000000  0.4533000000000 1.0
C      1  0.4770900000000  0.4521340000000  0.5556830000000 1.0
C      1  0.5151960000000  0.4502100000000  0.5067020000000 1.0
C      1  0.5488220000000  0.4570360000000  0.4590650000000 1.0
C      1  0.5622650000000  0.4389330000000  0.4754340000000 1.0
C      1  0.5642020000000  0.5088440000000  0.4077900000000 1.0
C      1  0.4800720000000  0.5693390000000  0.5269680000000 1.0
C      1  0.4110850000000  0.5286410000000  0.4829830000000 1.0
C      1  0.4380970000000  0.5511120000000  0.5428530000000 1.0
C      1  0.5371870000000  0.5121640000000  0.4018580000000 1.0
C      1  0.5585250000000  0.5357340000000  0.5508550000000 1.0
C      1  0.5045530000000  0.5454810000000  0.4932440000000 1.0
C      1  0.4811640000000  0.4745920000000  0.4716280000000 1.0
C      1  0.4785780000000  0.5532170000000  0.4284630000000 1.0
C      1  0.4518930000000  0.4585130000000  0.5409310000000 1.0
C      1  0.5227520000000  0.4999630000000  0.4648870000000 1.0
C      1  0.5446830000000  0.5800750000000  0.4634490000000 1.0
C      1  0.4155950000000  0.5212670000000  0.5115060000000 1.0
C      1  0.4413430000000  0.5373900000000  0.5159540000000 1.0
C      1  0.4829510000000  0.4565100000000  0.4265630000000 1.0
C      1  0.4614680000000  0.4753070000000  0.4951250000000 1.0
C      1  0.5124410000000  0.4201740000000  0.4627730000000 1.0
C      1  0.4454540000000  0.5559560000000  0.4911800000000 1.0
C      1  0.5370920000000  0.4958710000000  0.5762260000000 1.0
C      1  0.4859350000000  0.4716980000000  0.5755530000000 1.0
C      1  0.5203880000000  0.4496180000000  0.4563960000000 1.0
C      1  0.4384250000000  0.4861590000000  0.5397990000000 1.0
C      1  0.5272090000000  0.4514330000000  0.5579670000000 1.0
C      1  0.5131780000000  0.5928520000000  0.5006560000000 1.0
C      1  0.5131470000000  0.5124170000000  0.5808310000000 1.0
C      1  0.4923560000000  0.4986320000000  0.5644460000000 1.0
C      1  0.5560870000000  0.5687270000000  0.5059060000000 1.0
C      1  0.5728840000000  0.4892850000000  0.4965740000000 1.0
C      1  0.4692690000000  0.5165560000000  0.5685840000000 1.0
C      1  0.4572920000000  0.4130100000000  0.5291760000000 1.0
C      1  0.5517480000000  0.5523270000000  0.4556900000000 1.0
C      1  0.4176360000000  0.5568320000000  0.4804700000000 1.0
C      1  0.4255520000000  0.5328000000000  0.5604360000000 1.0
C      1  0.5699230000000  0.4829390000000  0.5403080000000 1.0
C      1  0.5202920000000  0.5758050000000  0.4349990000000 1.0
C      1  0.5407090000000  0.4908340000000  0.5460830000000 1.0
C      1  0.4660960000000  0.4789920000000  0.4182130000000 1.0
C      1  0.4423030000000  0.5099590000000  0.5591200000000 1.0
C      1  0.5612980000000  0.5407560000000  0.5022720000000 1.0
C      1  0.5105330000000  0.5350800000000  0.5420970000000 1.0
C      1  0.4205450000000  0.4920770000000  0.5159590000000 1.0
C      1  0.5444040000000  0.4750630000000  0.5059980000000 1.0
C      1  0.4897480000000  0.5413570000000  0.5193560000000 1.0
C      1  0.4929010000000  0.5304220000000  0.4146180000000 1.0
END
