TITL C-951340-9809-149 -1.55543724873004e-06 125000 -700.462323554029 0 0 113 (C1) n - 1
REM
REM in /home/bkarasulu/work/CARBON/AIRSS/Generating-Clusters/EDIP-Nigel-Params/with-SteepDescent/Only-C1/SD-CG/HFTN-CG
REM
REM
REM
REM
REM
REM ./C.cell (11c1c37f851c82e70ff6c80c92926a4b)
REM
REM compiler GCC version 9.2.1 20190827 (Red Hat 9.2.1-1)
REM options -cpp -mtune=generic -march=x86-64 -g -O0 -fpre-include=/usr/include/finclude/math-vector-fortran.h
REM seed -1565139201 -1538984595 -1780300565 -95453377 1711665535 175417615 1579801119 432754139 420462535 -753314591 467746421 1737614636 1296557012 -1031376475 1359607286 -525270999 1197269183 1302647814 -217038732 1298522559 -742597595 -1077863712 -1118211487 726510913 -200711244 1010441751 -764342047 1448702715 834171008 -1711395479 2116109918 -1679455414 825071651
REM
CELL 1.54180   50.00000   50.00000   50.00000   90.00000   90.00000   90.00000
LATT -1
SFAC C  
C      1  0.5564730000000  0.4660710000000  0.5555650000000 1.0
C      1  0.4851830000000  0.4359760000000  0.4423970000000 1.0
C      1  0.5176750000000  0.4951890000000  0.4157590000000 1.0
C      1  0.4043190000000  0.4885800000000  0.4618500000000 1.0
C      1  0.4287320000000  0.4969260000000  0.5479310000000 1.0
C      1  0.4261440000000  0.5245900000000  0.4381990000000 1.0
C      1  0.5706720000000  0.4604550000000  0.5307250000000 1.0
C      1  0.4359630000000  0.5247600000000  0.5047680000000 1.0
C      1  0.4916230000000  0.5640880000000  0.4369920000000 1.0
C      1  0.5805810000000  0.5201010000000  0.4927140000000 1.0
C      1  0.5260780000000  0.4274180000000  0.5270020000000 1.0
C      1  0.4650920000000  0.4636390000000  0.4844410000000 1.0
C      1  0.5547050000000  0.5618420000000  0.5190460000000 1.0
C      1  0.4425600000000  0.5442220000000  0.5510730000000 1.0
C      1  0.5204740000000  0.5873610000000  0.5572010000000 1.0
C      1  0.4731000000000  0.4970590000000  0.5704080000000 1.0
C      1  0.4727040000000  0.5436640000000  0.4279310000000 1.0
C      1  0.4904740000000  0.5505390000000  0.5180890000000 1.0
C      1  0.5396940000000  0.5166320000000  0.4166640000000 1.0
C      1  0.5744880000000  0.5038760000000  0.5147330000000 1.0
C      1  0.4468800000000  0.5609580000000  0.4637440000000 1.0
C      1  0.5131960000000  0.6012560000000  0.5073140000000 1.0
C      1  0.4962250000000  0.4921880000000  0.5019310000000 1.0
C      1  0.5536840000000  0.4278970000000  0.4425600000000 1.0
C      1  0.5265000000000  0.5984740000000  0.5321850000000 1.0
C      1  0.5783420000000  0.5100310000000  0.5431240000000 1.0
C      1  0.4789850000000  0.5165610000000  0.4405830000000 1.0
C      1  0.4763170000000  0.4093390000000  0.4836930000000 1.0
C      1  0.4954510000000  0.4497240000000  0.4179740000000 1.0
C      1  0.5273970000000  0.4598220000000  0.5231450000000 1.0
C      1  0.4558270000000  0.4339180000000  0.4385670000000 1.0
C      1  0.4755800000000  0.5570590000000  0.4705110000000 1.0
C      1  0.4760250000000  0.5689430000000  0.5001430000000 1.0
C      1  0.5525350000000  0.5432980000000  0.5724660000000 1.0
C      1  0.5585780000000  0.4669760000000  0.4822200000000 1.0
C      1  0.5525350000000  0.5360270000000  0.5350910000000 1.0
C      1  0.5227600000000  0.5830730000000  0.4856520000000 1.0
C      1  0.4779120000000  0.5047730000000  0.5395670000000 1.0
C      1  0.4960360000000  0.4169270000000  0.4618510000000 1.0
C      1  0.5457810000000  0.4389610000000  0.5649250000000 1.0
C      1  0.5255560000000  0.4525780000000  0.4488800000000 1.0
C      1  0.4475460000000  0.4564220000000  0.4213630000000 1.0
C      1  0.5274370000000  0.5413820000000  0.4114000000000 1.0
C      1  0.4817930000000  0.4691270000000  0.5365420000000 1.0
C      1  0.5041810000000  0.4997600000000  0.4413830000000 1.0
C      1  0.4582750000000  0.5441140000000  0.5748110000000 1.0
C      1  0.4894650000000  0.4010570000000  0.5096410000000 1.0
C      1  0.5481430000000  0.4203980000000  0.4700170000000 1.0
C      1  0.4677580000000  0.4883340000000  0.4993810000000 1.0
C      1  0.4468520000000  0.4111100000000  0.4809740000000 1.0
C      1  0.5059140000000  0.5412630000000  0.5638150000000 1.0
C      1  0.5039420000000  0.5151420000000  0.4849820000000 1.0
C      1  0.5002060000000  0.5312770000000  0.5918080000000 1.0
C      1  0.5069430000000  0.5176310000000  0.5456370000000 1.0
C      1  0.5517780000000  0.4192130000000  0.5409150000000 1.0
C      1  0.4812980000000  0.4161160000000  0.5340190000000 1.0
C      1  0.5200590000000  0.4207110000000  0.4782840000000 1.0
C      1  0.5025940000000  0.4164430000000  0.5543910000000 1.0
C      1  0.5289520000000  0.4719080000000  0.4733080000000 1.0
C      1  0.4295520000000  0.5580400000000  0.4870820000000 1.0
C      1  0.4099150000000  0.5125560000000  0.5021540000000 1.0
C      1  0.5402980000000  0.5685960000000  0.4477230000000 1.0
C      1  0.5194820000000  0.5623160000000  0.4281700000000 1.0
C      1  0.5144220000000  0.5368990000000  0.5047390000000 1.0
C      1  0.4914420000000  0.5907890000000  0.5605200000000 1.0
C      1  0.4631260000000  0.4976370000000  0.4239490000000 1.0
C      1  0.4477730000000  0.4575360000000  0.5491550000000 1.0
C      1  0.4724020000000  0.5951160000000  0.5385150000000 1.0
C      1  0.5276710000000  0.5215390000000  0.5255950000000 1.0
C      1  0.5104910000000  0.4662000000000  0.4978310000000 1.0
C      1  0.5220270000000  0.4652010000000  0.4194670000000 1.0
C      1  0.5626460000000  0.4950900000000  0.5635540000000 1.0
C      1  0.4205790000000  0.4660580000000  0.5037230000000 1.0
C      1  0.5149830000000  0.4396620000000  0.5674860000000 1.0
C      1  0.5614990000000  0.4549940000000  0.4367860000000 1.0
C      1  0.4243250000000  0.4698340000000  0.5329780000000 1.0
C      1  0.4470120000000  0.4826000000000  0.5686280000000 1.0
C      1  0.4459240000000  0.5189130000000  0.5346930000000 1.0
C      1  0.4962740000000  0.4787160000000  0.5773270000000 1.0
C      1  0.4370940000000  0.4271620000000  0.4596600000000 1.0
C      1  0.4437880000000  0.5470220000000  0.4379690000000 1.0
C      1  0.4720950000000  0.5220890000000  0.5876850000000 1.0
C      1  0.5550090000000  0.5194060000000  0.4422900000000 1.0
C      1  0.4868040000000  0.4456490000000  0.4934100000000 1.0
C      1  0.4835100000000  0.5970260000000  0.5102870000000 1.0
C      1  0.5121720000000  0.4840690000000  0.5995820000000 1.0
C      1  0.5360460000000  0.5577080000000  0.4940450000000 1.0
C      1  0.5293710000000  0.5589130000000  0.5634880000000 1.0
C      1  0.4845090000000  0.5558720000000  0.5487260000000 1.0
C      1  0.4062950000000  0.4879080000000  0.4896870000000 1.0
C      1  0.4777280000000  0.5252460000000  0.4715840000000 1.0
C      1  0.4194470000000  0.4972790000000  0.4402690000000 1.0
C      1  0.5466740000000  0.5152280000000  0.5792180000000 1.0
C      1  0.4418710000000  0.4471830000000  0.4918520000000 1.0
C      1  0.5750290000000  0.5440550000000  0.4793390000000 1.0
C      1  0.4430810000000  0.4816840000000  0.4360730000000 1.0
C      1  0.5732130000000  0.4726660000000  0.4565390000000 1.0
C      1  0.5218560000000  0.5008860000000  0.4649080000000 1.0
C      1  0.5693560000000  0.4329210000000  0.5204430000000 1.0
C      1  0.4443910000000  0.5696940000000  0.5365970000000 1.0
C      1  0.5172030000000  0.4095330000000  0.5047380000000 1.0
C      1  0.5595610000000  0.4788350000000  0.5108700000000 1.0
C      1  0.4476130000000  0.5670470000000  0.5078960000000 1.0
C      1  0.5354210000000  0.5924510000000  0.4624910000000 1.0
C      1  0.5216300000000  0.5101700000000  0.5955400000000 1.0
C      1  0.5553790000000  0.5447250000000  0.4575590000000 1.0
C      1  0.5638570000000  0.4376460000000  0.4887950000000 1.0
C      1  0.4726570000000  0.4651630000000  0.4073660000000 1.0
C      1  0.4555950000000  0.5113210000000  0.4866650000000 1.0
C      1  0.5742100000000  0.5651250000000  0.4982310000000 1.0
C      1  0.4718860000000  0.4422580000000  0.5222180000000 1.0
C      1  0.5087970000000  0.4653780000000  0.5525070000000 1.0
C      1  0.5730350000000  0.4992090000000  0.4491100000000 1.0
END
