TITL C-951343-2256-371 -6.68806759446829e-06 125000 -955.31333275624 0 0 155 (C1) n - 1
REM
REM in /home/bkarasulu/work/CARBON/AIRSS/Generating-Clusters/EDIP-Nigel-Params/with-SteepDescent/Only-C1/SD-CG/HFTN-CG
REM
REM
REM
REM
REM
REM ./C.cell (11c1c37f851c82e70ff6c80c92926a4b)
REM
REM compiler GCC version 9.2.1 20190827 (Red Hat 9.2.1-1)
REM options -cpp -mtune=generic -march=x86-64 -g -O0 -fpre-include=/usr/include/finclude/math-vector-fortran.h
REM seed 2039410643 -940451941 208952545 1515061281 1824336433 -981851512 -1049648266 932261763 -165524860 -416316515 1687095267 679305574 -867572063 1441084794 1944800344 -952625362 -1556047587 -959248611 1640854495 -2047203422 -1613204079 -1452593159 948351647 -2078013473 -930572285 -673188418 842055615 625467387 -992830914 -1928442411 66830298 941726733 1232008830
REM
CELL 1.54180   50.00000   50.00000   50.00000   90.00000   90.00000   90.00000
LATT -1
SFAC C  
C      1  0.4419750000000  0.4768970000000  0.4632480000000 1.0
C      1  0.5333690000000  0.5103650000000  0.4072970000000 1.0
C      1  0.4245950000000  0.5017030000000  0.4242920000000 1.0
C      1  0.5402830000000  0.4957450000000  0.4556320000000 1.0
C      1  0.5064800000000  0.5172310000000  0.4034790000000 1.0
C      1  0.4103160000000  0.4540330000000  0.5450640000000 1.0
C      1  0.5700680000000  0.5584630000000  0.5392620000000 1.0
C      1  0.5011970000000  0.5996830000000  0.5160340000000 1.0
C      1  0.5531410000000  0.5353610000000  0.5756110000000 1.0
C      1  0.4961550000000  0.4279990000000  0.5702080000000 1.0
C      1  0.4725120000000  0.4431360000000  0.5758360000000 1.0
C      1  0.4862010000000  0.4800670000000  0.4597180000000 1.0
C      1  0.5244590000000  0.4420030000000  0.4260410000000 1.0
C      1  0.4711720000000  0.4676360000000  0.5928470000000 1.0
C      1  0.5204990000000  0.5689120000000  0.5728720000000 1.0
C      1  0.4184640000000  0.4815540000000  0.5586730000000 1.0
C      1  0.5931430000000  0.5499990000000  0.4646630000000 1.0
C      1  0.4453850000000  0.4124790000000  0.5241120000000 1.0
C      1  0.4789960000000  0.5123600000000  0.4037740000000 1.0
C      1  0.5454420000000  0.4064900000000  0.5157400000000 1.0
C      1  0.5114720000000  0.4568210000000  0.4928280000000 1.0
C      1  0.5468610000000  0.5589240000000  0.5589960000000 1.0
C      1  0.4863860000000  0.4717830000000  0.4882210000000 1.0
C      1  0.4167630000000  0.4808230000000  0.4467250000000 1.0
C      1  0.5283590000000  0.5904200000000  0.4686500000000 1.0
C      1  0.6127840000000  0.4984280000000  0.5210700000000 1.0
C      1  0.4043730000000  0.5405670000000  0.4770630000000 1.0
C      1  0.4980550000000  0.4780820000000  0.5989600000000 1.0
C      1  0.4603500000000  0.5822960000000  0.4971460000000 1.0
C      1  0.5583800000000  0.4622540000000  0.4911160000000 1.0
C      1  0.5365600000000  0.4866280000000  0.4242450000000 1.0
C      1  0.4894210000000  0.4650350000000  0.4027670000000 1.0
C      1  0.5068070000000  0.5506700000000  0.5923420000000 1.0
C      1  0.5282070000000  0.6065880000000  0.5133680000000 1.0
C      1  0.5328750000000  0.4975590000000  0.5004940000000 1.0
C      1  0.4446640000000  0.4367370000000  0.4939250000000 1.0
C      1  0.4963630000000  0.5742490000000  0.5310840000000 1.0
C      1  0.4829890000000  0.5145460000000  0.5544100000000 1.0
C      1  0.5362740000000  0.4674830000000  0.5443880000000 1.0
C      1  0.4403490000000  0.4797510000000  0.4099240000000 1.0
C      1  0.5306480000000  0.5455540000000  0.4390530000000 1.0
C      1  0.5558900000000  0.4898260000000  0.5371270000000 1.0
C      1  0.3996870000000  0.4856040000000  0.4729330000000 1.0
C      1  0.5294150000000  0.5586510000000  0.4996860000000 1.0
C      1  0.4965520000000  0.5800530000000  0.5598700000000 1.0
C      1  0.4412430000000  0.5233030000000  0.5901800000000 1.0
C      1  0.4112460000000  0.5553550000000  0.5032140000000 1.0
C      1  0.4761950000000  0.4505020000000  0.5275900000000 1.0
C      1  0.4546100000000  0.4266280000000  0.4675740000000 1.0
C      1  0.4621520000000  0.4041200000000  0.5503070000000 1.0
C      1  0.5371290000000  0.5222920000000  0.5367330000000 1.0
C      1  0.5828920000000  0.4490350000000  0.5354780000000 1.0
C      1  0.5262480000000  0.4076090000000  0.4538120000000 1.0
C      1  0.4013590000000  0.5038380000000  0.5490030000000 1.0
C      1  0.4334720000000  0.5395510000000  0.5670290000000 1.0
C      1  0.5463050000000  0.4838080000000  0.5845810000000 1.0
C      1  0.5414340000000  0.4268520000000  0.5601390000000 1.0
C      1  0.4960580000000  0.5120480000000  0.4443220000000 1.0
C      1  0.5805680000000  0.5075690000000  0.4861020000000 1.0
C      1  0.4117260000000  0.5070180000000  0.5131880000000 1.0
C      1  0.4748430000000  0.4065030000000  0.5015000000000 1.0
C      1  0.4716500000000  0.5307390000000  0.5261630000000 1.0
C      1  0.5952570000000  0.4854720000000  0.5023190000000 1.0
C      1  0.4823700000000  0.4374660000000  0.4096260000000 1.0
C      1  0.5682710000000  0.4905830000000  0.5646370000000 1.0
C      1  0.4991820000000  0.5052110000000  0.6035930000000 1.0
C      1  0.4375690000000  0.5813250000000  0.5368880000000 1.0
C      1  0.4247220000000  0.5799250000000  0.5107590000000 1.0
C      1  0.5208320000000  0.4402530000000  0.5754250000000 1.0
C      1  0.4614640000000  0.4990930000000  0.4577890000000 1.0
C      1  0.4429900000000  0.5433300000000  0.4750830000000 1.0
C      1  0.5765830000000  0.5755040000000  0.5182330000000 1.0
C      1  0.4628600000000  0.5339460000000  0.4129830000000 1.0
C      1  0.4600560000000  0.5665160000000  0.4710790000000 1.0
C      1  0.4901120000000  0.3897490000000  0.4853500000000 1.0
C      1  0.4402720000000  0.5260030000000  0.4299510000000 1.0
C      1  0.5661040000000  0.4381790000000  0.4511890000000 1.0
C      1  0.6001280000000  0.5301460000000  0.4847760000000 1.0
C      1  0.4798270000000  0.4538700000000  0.4437000000000 1.0
C      1  0.5457470000000  0.5400790000000  0.4840770000000 1.0
C      1  0.4978600000000  0.4659760000000  0.5478000000000 1.0
C      1  0.5319160000000  0.5152940000000  0.5700020000000 1.0
C      1  0.5400120000000  0.5756970000000  0.4447540000000 1.0
C      1  0.3959640000000  0.4576520000000  0.5196920000000 1.0
C      1  0.5749170000000  0.5191310000000  0.4335230000000 1.0
C      1  0.4440340000000  0.4824440000000  0.5426680000000 1.0
C      1  0.4787140000000  0.5575540000000  0.5979840000000 1.0
C      1  0.5041580000000  0.4963430000000  0.5419170000000 1.0
C      1  0.4845190000000  0.6004800000000  0.4918210000000 1.0
C      1  0.4500650000000  0.4515560000000  0.4490910000000 1.0
C      1  0.4075010000000  0.4670900000000  0.4949170000000 1.0
C      1  0.5644140000000  0.4436320000000  0.5566060000000 1.0
C      1  0.4114450000000  0.5318270000000  0.5497430000000 1.0
C      1  0.6035640000000  0.5248650000000  0.5214770000000 1.0
C      1  0.5140690000000  0.4673470000000  0.4187270000000 1.0
C      1  0.4615600000000  0.4627340000000  0.5037230000000 1.0
C      1  0.4283190000000  0.5466930000000  0.4471680000000 1.0
C      1  0.5609670000000  0.4717490000000  0.4173290000000 1.0
C      1  0.5196070000000  0.4545300000000  0.5219560000000 1.0
C      1  0.5304320000000  0.4079180000000  0.5400900000000 1.0
C      1  0.5708290000000  0.4978840000000  0.4568950000000 1.0
C      1  0.4435790000000  0.4935490000000  0.5852900000000 1.0
C      1  0.5555830000000  0.5182040000000  0.5031760000000 1.0
C      1  0.5888730000000  0.4278770000000  0.4972960000000 1.0
C      1  0.5728750000000  0.4714140000000  0.5171170000000 1.0
C      1  0.5045240000000  0.5226800000000  0.5815010000000 1.0
C      1  0.4186060000000  0.5346550000000  0.5217710000000 1.0
C      1  0.5341470000000  0.4752350000000  0.4817930000000 1.0
C      1  0.4689790000000  0.5636910000000  0.5228510000000 1.0
C      1  0.5801460000000  0.5314380000000  0.5373010000000 1.0
C      1  0.4995170000000  0.5887380000000  0.4670020000000 1.0
C      1  0.4715960000000  0.5722020000000  0.5738390000000 1.0
C      1  0.4881180000000  0.4238370000000  0.5208380000000 1.0
C      1  0.4973950000000  0.5441930000000  0.4388310000000 1.0
C      1  0.4893970000000  0.5578320000000  0.4659590000000 1.0
C      1  0.4616650000000  0.5360490000000  0.6044060000000 1.0
C      1  0.5287390000000  0.5249880000000  0.4625730000000 1.0
C      1  0.5661010000000  0.5616170000000  0.4704550000000 1.0
C      1  0.5165950000000  0.5492650000000  0.5234150000000 1.0
C      1  0.5214130000000  0.4676390000000  0.5850610000000 1.0
C      1  0.4418030000000  0.4877270000000  0.5135860000000 1.0
C      1  0.4704210000000  0.5832440000000  0.4267070000000 1.0
C      1  0.5758740000000  0.5195750000000  0.5637670000000 1.0
C      1  0.5537020000000  0.4456720000000  0.4262440000000 1.0
C      1  0.5771600000000  0.4610520000000  0.4675730000000 1.0
C      1  0.4618560000000  0.5204550000000  0.4797830000000 1.0
C      1  0.5128290000000  0.3886630000000  0.4702490000000 1.0
C      1  0.4489110000000  0.5783990000000  0.4463160000000 1.0
C      1  0.5968080000000  0.4270830000000  0.5242750000000 1.0
C      1  0.4548310000000  0.5136810000000  0.5074620000000 1.0
C      1  0.4957880000000  0.5956640000000  0.4379110000000 1.0
C      1  0.4333060000000  0.4545060000000  0.4240670000000 1.0
C      1  0.5383120000000  0.5863170000000  0.4952490000000 1.0
C      1  0.5489520000000  0.4212130000000  0.4672800000000 1.0
C      1  0.5602350000000  0.4181010000000  0.4941530000000 1.0
C      1  0.4502650000000  0.4278580000000  0.5651690000000 1.0
C      1  0.5498210000000  0.5308330000000  0.4199020000000 1.0
C      1  0.4460960000000  0.5653320000000  0.5601190000000 1.0
C      1  0.5030450000000  0.4216860000000  0.4248140000000 1.0
C      1  0.4861210000000  0.4253940000000  0.4595580000000 1.0
C      1  0.4760670000000  0.5596110000000  0.4109240000000 1.0
C      1  0.3990230000000  0.5120660000000  0.4858690000000 1.0
C      1  0.5941420000000  0.5387130000000  0.4391890000000 1.0
C      1  0.4898690000000  0.5318080000000  0.4810350000000 1.0
C      1  0.5681380000000  0.5833310000000  0.4929440000000 1.0
C      1  0.4967240000000  0.4090870000000  0.5462740000000 1.0
C      1  0.4158400000000  0.4408290000000  0.4908950000000 1.0
C      1  0.4695160000000  0.4856300000000  0.4082550000000 1.0
C      1  0.6003260000000  0.4517870000000  0.4833770000000 1.0
C      1  0.4650310000000  0.4902160000000  0.5615740000000 1.0
C      1  0.5066680000000  0.5017950000000  0.5132330000000 1.0
C      1  0.5077720000000  0.4274250000000  0.4819650000000 1.0
C      1  0.5208950000000  0.5887990000000  0.4251910000000 1.0
C      1  0.4974060000000  0.5293500000000  0.5101240000000 1.0
C      1  0.4359190000000  0.4387310000000  0.5414460000000 1.0
END
