TITL C-950531-5884-406 -1.41998585361987e-06 125000 -1134.290833181 0 0 181 (C1) n - 1
REM
REM in /home/bkarasulu/work/CARBON/AIRSS/Generating-Clusters/EDIP-Nigel-Params/with-SteepDescent/Only-C1/SD-CG/HFTN-CG
REM
REM
REM
REM
REM
REM ./C.cell (11c1c37f851c82e70ff6c80c92926a4b)
REM
REM compiler GCC version 9.2.1 20190827 (Red Hat 9.2.1-1)
REM options -cpp -mtune=generic -march=x86-64 -g -O0 -fpre-include=/usr/include/finclude/math-vector-fortran.h
REM seed -1943611108 675405042 913087742 -1125762855 1380035543 -1536640824 -1815490384 1848820923 357026673 693228568 885648293 1613803071 1722259923 -1553358939 1250157116 1972654448 -844275743 -1540293613 441414148 343908153 800638273 -163281109 -1069125213 44736188 -471754813 -1256184290 1669680330 -1684902215 -361688949 -2067332923 -1337382854 -1238628819 419997766
REM
CELL 1.54180   50.00000   50.00000   50.00000   90.00000   90.00000   90.00000
LATT -1
SFAC C  
C      1  0.4911760000000  0.4893650000000  0.5818210000000 1.0
C      1  0.3788050000000  0.4636090000000  0.4850550000000 1.0
C      1  0.4303540000000  0.5223560000000  0.4362920000000 1.0
C      1  0.4892290000000  0.5552270000000  0.5941700000000 1.0
C      1  0.5963270000000  0.4651350000000  0.5027890000000 1.0
C      1  0.4982410000000  0.4354100000000  0.4233930000000 1.0
C      1  0.5553710000000  0.5239980000000  0.4656340000000 1.0
C      1  0.5048480000000  0.4134830000000  0.5796880000000 1.0
C      1  0.5170160000000  0.4422590000000  0.5002000000000 1.0
C      1  0.5191970000000  0.5431750000000  0.4456740000000 1.0
C      1  0.4431620000000  0.4015750000000  0.5114340000000 1.0
C      1  0.4682710000000  0.4960510000000  0.5570550000000 1.0
C      1  0.5410400000000  0.5873230000000  0.4305520000000 1.0
C      1  0.5706000000000  0.4085290000000  0.4609440000000 1.0
C      1  0.5285610000000  0.5174850000000  0.4566220000000 1.0
C      1  0.4737910000000  0.4219090000000  0.4328650000000 1.0
C      1  0.4002930000000  0.4221130000000  0.5035840000000 1.0
C      1  0.4517270000000  0.5183120000000  0.4579710000000 1.0
C      1  0.5580130000000  0.5985790000000  0.4529640000000 1.0
C      1  0.4821400000000  0.4923470000000  0.4838580000000 1.0
C      1  0.5414960000000  0.4437960000000  0.5755500000000 1.0
C      1  0.4945050000000  0.3863370000000  0.5363930000000 1.0
C      1  0.4639560000000  0.5584710000000  0.4825810000000 1.0
C      1  0.5795030000000  0.5766740000000  0.4588890000000 1.0
C      1  0.4636310000000  0.5975220000000  0.5333030000000 1.0
C      1  0.5004720000000  0.5346870000000  0.5442490000000 1.0
C      1  0.5881370000000  0.5742430000000  0.5180360000000 1.0
C      1  0.5670460000000  0.4973410000000  0.5850770000000 1.0
C      1  0.5911600000000  0.4741490000000  0.5476070000000 1.0
C      1  0.4716240000000  0.5276780000000  0.5517980000000 1.0
C      1  0.5397120000000  0.5366180000000  0.5114110000000 1.0
C      1  0.4982560000000  0.4702120000000  0.4501890000000 1.0
C      1  0.4333830000000  0.4802790000000  0.4906430000000 1.0
C      1  0.5212810000000  0.5307730000000  0.5687670000000 1.0
C      1  0.5771720000000  0.4400940000000  0.4304680000000 1.0
C      1  0.5801290000000  0.4259460000000  0.5315490000000 1.0
C      1  0.5398550000000  0.5791790000000  0.5440400000000 1.0
C      1  0.5449300000000  0.6137470000000  0.5053590000000 1.0
C      1  0.4709880000000  0.4419100000000  0.5931960000000 1.0
C      1  0.4491920000000  0.4325970000000  0.4235930000000 1.0
C      1  0.5500640000000  0.5391300000000  0.5669400000000 1.0
C      1  0.4707800000000  0.5684800000000  0.4105220000000 1.0
C      1  0.5353260000000  0.4452650000000  0.5258120000000 1.0
C      1  0.5853780000000  0.5243330000000  0.5409200000000 1.0
C      1  0.4946720000000  0.4599320000000  0.5923250000000 1.0
C      1  0.5400670000000  0.4795840000000  0.4984180000000 1.0
C      1  0.6023560000000  0.5128140000000  0.4848450000000 1.0
C      1  0.4416620000000  0.4822050000000  0.5646660000000 1.0
C      1  0.4917950000000  0.4391280000000  0.5415140000000 1.0
C      1  0.3854730000000  0.4898170000000  0.4774090000000 1.0
C      1  0.3932190000000  0.5038510000000  0.5233340000000 1.0
C      1  0.5467020000000  0.4164280000000  0.5643300000000 1.0
C      1  0.6105830000000  0.4925350000000  0.5066460000000 1.0
C      1  0.4513020000000  0.4617790000000  0.4239050000000 1.0
C      1  0.5685820000000  0.5215400000000  0.5146370000000 1.0
C      1  0.4166550000000  0.5247870000000  0.5586660000000 1.0
C      1  0.5433380000000  0.5574000000000  0.4314740000000 1.0
C      1  0.4441890000000  0.4066770000000  0.4820520000000 1.0
C      1  0.3979120000000  0.4429760000000  0.4845020000000 1.0
C      1  0.4924800000000  0.5545850000000  0.4941650000000 1.0
C      1  0.4267120000000  0.4790810000000  0.4164720000000 1.0
C      1  0.4982970000000  0.4031690000000  0.4727280000000 1.0
C      1  0.4228500000000  0.4418720000000  0.5393590000000 1.0
C      1  0.4424280000000  0.5393600000000  0.5987680000000 1.0
C      1  0.5872420000000  0.4851400000000  0.4471570000000 1.0
C      1  0.4679560000000  0.4392910000000  0.5632700000000 1.0
C      1  0.4959650000000  0.5335520000000  0.4218050000000 1.0
C      1  0.5208790000000  0.5001730000000  0.5739060000000 1.0
C      1  0.4652390000000  0.5415430000000  0.4005610000000 1.0
C      1  0.5498560000000  0.4617100000000  0.5517530000000 1.0
C      1  0.5482960000000  0.5966570000000  0.4832650000000 1.0
C      1  0.4652840000000  0.4477850000000  0.4997390000000 1.0
C      1  0.5244790000000  0.4217760000000  0.5411970000000 1.0
C      1  0.4421560000000  0.4969920000000  0.3981360000000 1.0
C      1  0.5137860000000  0.5604150000000  0.4725780000000 1.0
C      1  0.5433360000000  0.5157530000000  0.4024900000000 1.0
C      1  0.5788620000000  0.4729500000000  0.5739780000000 1.0
C      1  0.5669410000000  0.4913650000000  0.5008860000000 1.0
C      1  0.4340760000000  0.5612290000000  0.5298770000000 1.0
C      1  0.5421460000000  0.4642330000000  0.4719340000000 1.0
C      1  0.4801320000000  0.5054200000000  0.5091480000000 1.0
C      1  0.5935830000000  0.4517560000000  0.5290450000000 1.0
C      1  0.4471180000000  0.4492600000000  0.6070230000000 1.0
C      1  0.5106310000000  0.5902580000000  0.4638950000000 1.0
C      1  0.4417500000000  0.5872770000000  0.5160050000000 1.0
C      1  0.5731600000000  0.4147420000000  0.5559860000000 1.0
C      1  0.4968080000000  0.4671650000000  0.5302090000000 1.0
C      1  0.5389270000000  0.4963610000000  0.5983960000000 1.0
C      1  0.4270350000000  0.4440490000000  0.5887760000000 1.0
C      1  0.5391900000000  0.6096270000000  0.5325580000000 1.0
C      1  0.5285640000000  0.5617850000000  0.5236210000000 1.0
C      1  0.4144920000000  0.5461540000000  0.4453950000000 1.0
C      1  0.4201450000000  0.4170320000000  0.5232410000000 1.0
C      1  0.5673140000000  0.5173480000000  0.5635120000000 1.0
C      1  0.4267360000000  0.5458260000000  0.5764710000000 1.0
C      1  0.4663320000000  0.4711430000000  0.4484500000000 1.0
C      1  0.4994630000000  0.5647360000000  0.5209520000000 1.0
C      1  0.4994990000000  0.5106970000000  0.6265920000000 1.0
C      1  0.5493380000000  0.4521590000000  0.4265940000000 1.0
C      1  0.5794520000000  0.5526090000000  0.4421390000000 1.0
C      1  0.4340360000000  0.5692600000000  0.5596450000000 1.0
C      1  0.4979390000000  0.3927640000000  0.5634450000000 1.0
C      1  0.5778940000000  0.4123120000000  0.4341550000000 1.0
C      1  0.5442030000000  0.4675360000000  0.4006880000000 1.0
C      1  0.5086870000000  0.5162320000000  0.5194090000000 1.0
C      1  0.4916130000000  0.5957940000000  0.5213410000000 1.0
C      1  0.4562930000000  0.4905070000000  0.4690960000000 1.0
C      1  0.5544620000000  0.5429810000000  0.4071840000000 1.0
C      1  0.4150350000000  0.4970930000000  0.4363900000000 1.0
C      1  0.4486930000000  0.5843840000000  0.4873130000000 1.0
C      1  0.4276340000000  0.5722320000000  0.4426160000000 1.0
C      1  0.4870810000000  0.5755310000000  0.5721140000000 1.0
C      1  0.4811060000000  0.5070210000000  0.6053860000000 1.0
C      1  0.4728910000000  0.5575080000000  0.4548770000000 1.0
C      1  0.4063070000000  0.5016550000000  0.4955670000000 1.0
C      1  0.4786970000000  0.6107680000000  0.4685730000000 1.0
C      1  0.4396050000000  0.4515000000000  0.5630830000000 1.0
C      1  0.4594340000000  0.6026060000000  0.4486110000000 1.0
C      1  0.5850110000000  0.4201380000000  0.4827150000000 1.0
C      1  0.5716430000000  0.4125750000000  0.5072360000000 1.0
C      1  0.4884250000000  0.4637850000000  0.4873140000000 1.0
C      1  0.5759190000000  0.5015540000000  0.4721210000000 1.0
C      1  0.5962160000000  0.4466680000000  0.4785420000000 1.0
C      1  0.3971490000000  0.4841440000000  0.5448310000000 1.0
C      1  0.5489900000000  0.4764760000000  0.4454420000000 1.0
C      1  0.5857240000000  0.5577530000000  0.5420080000000 1.0
C      1  0.5223130000000  0.4041680000000  0.4558860000000 1.0
C      1  0.4493910000000  0.4684880000000  0.5157410000000 1.0
C      1  0.5469090000000  0.3960250000000  0.5021270000000 1.0
C      1  0.5029050000000  0.4157210000000  0.5006180000000 1.0
C      1  0.4567120000000  0.5223270000000  0.5077910000000 1.0
C      1  0.6030720000000  0.4991800000000  0.5359950000000 1.0
C      1  0.3986150000000  0.5437130000000  0.4681980000000 1.0
C      1  0.5820000000000  0.5466070000000  0.4141760000000 1.0
C      1  0.3998060000000  0.4571250000000  0.5385350000000 1.0
C      1  0.3989110000000  0.5298290000000  0.5358870000000 1.0
C      1  0.5110900000000  0.5906200000000  0.5642970000000 1.0
C      1  0.5161490000000  0.4779650000000  0.3984090000000 1.0
C      1  0.5242300000000  0.4299580000000  0.4375100000000 1.0
C      1  0.3916270000000  0.4925660000000  0.4506080000000 1.0
C      1  0.5188630000000  0.4481180000000  0.4615750000000 1.0
C      1  0.4792280000000  0.4257650000000  0.5166490000000 1.0
C      1  0.4735900000000  0.4070900000000  0.4580900000000 1.0
C      1  0.4975860000000  0.5760440000000  0.4152740000000 1.0
C      1  0.4474490000000  0.4360790000000  0.4785300000000 1.0
C      1  0.5455730000000  0.5481090000000  0.4837950000000 1.0
C      1  0.5226940000000  0.4936090000000  0.4404750000000 1.0
C      1  0.4769820000000  0.5299740000000  0.4464350000000 1.0
C      1  0.4158440000000  0.4963220000000  0.5645460000000 1.0
C      1  0.4093700000000  0.5486480000000  0.5163810000000 1.0
C      1  0.4278840000000  0.5899450000000  0.4667000000000 1.0
C      1  0.5164640000000  0.5058880000000  0.4120220000000 1.0
C      1  0.5189230000000  0.3987310000000  0.5200740000000 1.0
C      1  0.5096090000000  0.6101990000000  0.5413600000000 1.0
C      1  0.5199940000000  0.4869160000000  0.5244730000000 1.0
C      1  0.4665600000000  0.3906010000000  0.5269130000000 1.0
C      1  0.4451830000000  0.5337660000000  0.4838010000000 1.0
C      1  0.5126500000000  0.5924890000000  0.4330610000000 1.0
C      1  0.5612980000000  0.4923620000000  0.4004360000000 1.0
C      1  0.4953570000000  0.6070670000000  0.4924820000000 1.0
C      1  0.6053250000000  0.5590810000000  0.5020840000000 1.0
C      1  0.4696640000000  0.5330550000000  0.5955180000000 1.0
C      1  0.5131120000000  0.4406480000000  0.5798430000000 1.0
C      1  0.5462430000000  0.3966700000000  0.4716770000000 1.0
C      1  0.5926550000000  0.4562480000000  0.4505920000000 1.0
C      1  0.5807560000000  0.4922650000000  0.4204240000000 1.0
C      1  0.4429690000000  0.5242040000000  0.4083660000000 1.0
C      1  0.5162670000000  0.5429510000000  0.5953110000000 1.0
C      1  0.4568900000000  0.5403440000000  0.5289570000000 1.0
C      1  0.4948490000000  0.4601820000000  0.4075650000000 1.0
C      1  0.4239200000000  0.4542600000000  0.4770730000000 1.0
C      1  0.5896310000000  0.5358050000000  0.4969300000000 1.0
C      1  0.4609110000000  0.5850590000000  0.5608110000000 1.0
C      1  0.5662500000000  0.5719870000000  0.4869600000000 1.0
C      1  0.4727600000000  0.4837070000000  0.5287630000000 1.0
C      1  0.5616580000000  0.5641150000000  0.5574440000000 1.0
C      1  0.5339610000000  0.4867880000000  0.5501270000000 1.0
C      1  0.4683830000000  0.4696080000000  0.4014740000000 1.0
C      1  0.5230460000000  0.5194030000000  0.6141260000000 1.0
C      1  0.4576440000000  0.5746550000000  0.4371050000000 1.0
C      1  0.4140070000000  0.5329820000000  0.4900870000000 1.0
END
