TITL C-950527-2551-177 -4.05226430681008e-06 125000 -1116.18251935692 0 0 178 (C1) n - 1
REM
REM in /home/bkarasulu/work/CARBON/AIRSS/Generating-Clusters/EDIP-Nigel-Params/with-SteepDescent/Only-C1/SD-CG/HFTN-CG
REM
REM
REM
REM
REM
REM ./C.cell (11c1c37f851c82e70ff6c80c92926a4b)
REM
REM compiler GCC version 9.2.1 20190827 (Red Hat 9.2.1-1)
REM options -cpp -mtune=generic -march=x86-64 -g -O0 -fpre-include=/usr/include/finclude/math-vector-fortran.h
REM seed 337783458 -490142634 362411065 1768681776 -2003839412 944890790 570440116 1452222253 -1978839826 706785646 150323168 1484642992 -790562694 -1981918896 669614974 -1443781367 -966935278 -689576630 -2043632498 324107795 -1594229213 -1442108143 1109705310 1020025555 1958952191 -1683469063 300802331 -1176968621 -1929478710 1815117661 -1885337093 562295575 -1734733750
REM
CELL 1.54180   50.00000   50.00000   50.00000   90.00000   90.00000   90.00000
LATT -1
SFAC C  
C      1  0.5528240000000  0.4933600000000  0.5297020000000 1.0
C      1  0.5419670000000  0.5094670000000  0.4887510000000 1.0
C      1  0.6041650000000  0.5674540000000  0.4807840000000 1.0
C      1  0.5859650000000  0.5079860000000  0.4420840000000 1.0
C      1  0.5097470000000  0.5676870000000  0.4152050000000 1.0
C      1  0.5263500000000  0.5220860000000  0.5923710000000 1.0
C      1  0.3896030000000  0.5014730000000  0.5152890000000 1.0
C      1  0.4288700000000  0.4733370000000  0.4118670000000 1.0
C      1  0.4817200000000  0.4130590000000  0.5271810000000 1.0
C      1  0.4841370000000  0.4077980000000  0.4354250000000 1.0
C      1  0.4853570000000  0.5588490000000  0.5078390000000 1.0
C      1  0.5685640000000  0.4515760000000  0.5681580000000 1.0
C      1  0.4076440000000  0.5534730000000  0.5314990000000 1.0
C      1  0.4434670000000  0.4255910000000  0.5575810000000 1.0
C      1  0.4004340000000  0.5124800000000  0.4696830000000 1.0
C      1  0.4856640000000  0.5075230000000  0.5070130000000 1.0
C      1  0.5179770000000  0.5428780000000  0.5488910000000 1.0
C      1  0.5454750000000  0.4919340000000  0.4482630000000 1.0
C      1  0.4837440000000  0.5563410000000  0.5879370000000 1.0
C      1  0.6132780000000  0.5462290000000  0.4977470000000 1.0
C      1  0.4965470000000  0.5649630000000  0.5422380000000 1.0
C      1  0.5724630000000  0.5183590000000  0.4185000000000 1.0
C      1  0.6027070000000  0.4959220000000  0.5516100000000 1.0
C      1  0.4857390000000  0.4831060000000  0.3922270000000 1.0
C      1  0.5396750000000  0.4730840000000  0.5992520000000 1.0
C      1  0.4630890000000  0.5340560000000  0.4580150000000 1.0
C      1  0.5790300000000  0.5355760000000  0.5674480000000 1.0
C      1  0.5858530000000  0.4600500000000  0.4502520000000 1.0
C      1  0.6040350000000  0.4685310000000  0.5419550000000 1.0
C      1  0.5891580000000  0.5582170000000  0.4579650000000 1.0
C      1  0.4600250000000  0.4704250000000  0.5275740000000 1.0
C      1  0.5581650000000  0.5549170000000  0.5763080000000 1.0
C      1  0.4360550000000  0.5010760000000  0.5279250000000 1.0
C      1  0.5055060000000  0.3958780000000  0.4723840000000 1.0
C      1  0.4922250000000  0.4221400000000  0.4619740000000 1.0
C      1  0.5250760000000  0.4653940000000  0.4086640000000 1.0
C      1  0.4904390000000  0.5473400000000  0.4526980000000 1.0
C      1  0.4292260000000  0.4963910000000  0.4305690000000 1.0
C      1  0.4083110000000  0.4988940000000  0.5405050000000 1.0
C      1  0.5295930000000  0.4029370000000  0.5319170000000 1.0
C      1  0.5609490000000  0.4086310000000  0.4912420000000 1.0
C      1  0.5351190000000  0.5121220000000  0.5170620000000 1.0
C      1  0.4335870000000  0.5003540000000  0.5849300000000 1.0
C      1  0.5398610000000  0.5884220000000  0.5183330000000 1.0
C      1  0.4646990000000  0.5078900000000  0.5952750000000 1.0
C      1  0.4290910000000  0.4024580000000  0.4639580000000 1.0
C      1  0.5625990000000  0.5799010000000  0.5616510000000 1.0
C      1  0.5942110000000  0.4481720000000  0.5580390000000 1.0
C      1  0.4697160000000  0.5420450000000  0.4101360000000 1.0
C      1  0.5357980000000  0.5883840000000  0.4543830000000 1.0
C      1  0.4808340000000  0.6028230000000  0.5045250000000 1.0
C      1  0.5421740000000  0.4879980000000  0.5572970000000 1.0
C      1  0.5102410000000  0.5344110000000  0.4703880000000 1.0
C      1  0.5400520000000  0.6103920000000  0.5006470000000 1.0
C      1  0.4896520000000  0.6153960000000  0.5278410000000 1.0
C      1  0.5455790000000  0.4810600000000  0.4797940000000 1.0
C      1  0.6048080000000  0.5393250000000  0.5253970000000 1.0
C      1  0.4529940000000  0.5962230000000  0.5034380000000 1.0
C      1  0.4311620000000  0.4477760000000  0.4461870000000 1.0
C      1  0.4335500000000  0.4179720000000  0.4407470000000 1.0
C      1  0.6071770000000  0.4672260000000  0.5127190000000 1.0
C      1  0.4359540000000  0.5646750000000  0.5681160000000 1.0
C      1  0.4637140000000  0.5006020000000  0.3959420000000 1.0
C      1  0.3863750000000  0.4370770000000  0.4619540000000 1.0
C      1  0.4073050000000  0.5581690000000  0.4599430000000 1.0
C      1  0.5037490000000  0.4467000000000  0.4154380000000 1.0
C      1  0.4162130000000  0.5431900000000  0.5059760000000 1.0
C      1  0.5747320000000  0.4172960000000  0.5155790000000 1.0
C      1  0.5082660000000  0.5240090000000  0.6137420000000 1.0
C      1  0.5577580000000  0.5550940000000  0.4885690000000 1.0
C      1  0.4848510000000  0.3876460000000  0.5157120000000 1.0
C      1  0.5343310000000  0.4212120000000  0.4941750000000 1.0
C      1  0.3984240000000  0.4314320000000  0.4868370000000 1.0
C      1  0.5591220000000  0.4975070000000  0.4020120000000 1.0
C      1  0.4458410000000  0.4439080000000  0.4812710000000 1.0
C      1  0.5125730000000  0.4532920000000  0.5145630000000 1.0
C      1  0.4041880000000  0.5325720000000  0.4489490000000 1.0
C      1  0.4958710000000  0.6029460000000  0.4795410000000 1.0
C      1  0.5367730000000  0.5598350000000  0.5076050000000 1.0
C      1  0.4236250000000  0.5251350000000  0.4284970000000 1.0
C      1  0.4191870000000  0.5650480000000  0.4842690000000 1.0
C      1  0.5626860000000  0.5282700000000  0.4810620000000 1.0
C      1  0.5912230000000  0.4400960000000  0.4712140000000 1.0
C      1  0.4675890000000  0.4455930000000  0.5922760000000 1.0
C      1  0.4656230000000  0.6032760000000  0.5653600000000 1.0
C      1  0.4307870000000  0.4094020000000  0.5125960000000 1.0
C      1  0.5242540000000  0.4360350000000  0.4687490000000 1.0
C      1  0.3954820000000  0.5234910000000  0.4963690000000 1.0
C      1  0.4861030000000  0.4422760000000  0.5667730000000 1.0
C      1  0.5972740000000  0.4425940000000  0.4999170000000 1.0
C      1  0.4716290000000  0.4185740000000  0.5536470000000 1.0
C      1  0.4017160000000  0.4586130000000  0.4520520000000 1.0
C      1  0.5879230000000  0.5271680000000  0.4645600000000 1.0
C      1  0.5181430000000  0.4383550000000  0.5708730000000 1.0
C      1  0.4669890000000  0.5268030000000  0.3871870000000 1.0
C      1  0.4676830000000  0.4981730000000  0.4676040000000 1.0
C      1  0.5046980000000  0.4780310000000  0.5852610000000 1.0
C      1  0.4703620000000  0.5308210000000  0.5184220000000 1.0
C      1  0.5570410000000  0.4722270000000  0.5078530000000 1.0
C      1  0.4249270000000  0.4252730000000  0.5352560000000 1.0
C      1  0.5103730000000  0.5841600000000  0.4390030000000 1.0
C      1  0.5647900000000  0.4511910000000  0.4326670000000 1.0
C      1  0.5386220000000  0.5394600000000  0.5282810000000 1.0
C      1  0.6114060000000  0.5197110000000  0.4835190000000 1.0
C      1  0.4784230000000  0.4571460000000  0.4042220000000 1.0
C      1  0.5504350000000  0.4746900000000  0.4221090000000 1.0
C      1  0.5562380000000  0.4128220000000  0.5392950000000 1.0
C      1  0.5953530000000  0.5524750000000  0.5493680000000 1.0
C      1  0.4266120000000  0.4210010000000  0.4862720000000 1.0
C      1  0.4754080000000  0.4727140000000  0.4515570000000 1.0
C      1  0.5027670000000  0.5172410000000  0.5503710000000 1.0
C      1  0.4503370000000  0.4538780000000  0.4138340000000 1.0
C      1  0.5105120000000  0.5024080000000  0.4345290000000 1.0
C      1  0.5841290000000  0.5059000000000  0.5723860000000 1.0
C      1  0.4574900000000  0.4123260000000  0.4269900000000 1.0
C      1  0.5093500000000  0.3907670000000  0.5010100000000 1.0
C      1  0.5713630000000  0.4188920000000  0.4660640000000 1.0
C      1  0.4411960000000  0.5259700000000  0.5114730000000 1.0
C      1  0.5610100000000  0.5710810000000  0.4540990000000 1.0
C      1  0.3944130000000  0.4516480000000  0.5076340000000 1.0
C      1  0.5386340000000  0.5924630000000  0.5478990000000 1.0
C      1  0.5993480000000  0.4833810000000  0.4430370000000 1.0
C      1  0.5309700000000  0.5374770000000  0.4052390000000 1.0
C      1  0.5069150000000  0.4742010000000  0.5344060000000 1.0
C      1  0.4167660000000  0.5177400000000  0.5640660000000 1.0
C      1  0.4964160000000  0.5424480000000  0.4228420000000 1.0
C      1  0.4943400000000  0.5109850000000  0.4794290000000 1.0
C      1  0.4458430000000  0.5783440000000  0.4810330000000 1.0
C      1  0.5186410000000  0.5018300000000  0.5716130000000 1.0
C      1  0.5254750000000  0.4482960000000  0.5970700000000 1.0
C      1  0.4584990000000  0.4949810000000  0.4252370000000 1.0
C      1  0.6086020000000  0.5113860000000  0.5279840000000 1.0
C      1  0.4093590000000  0.4712000000000  0.5515860000000 1.0
C      1  0.5459010000000  0.4382920000000  0.5536680000000 1.0
C      1  0.4907570000000  0.6092500000000  0.5550820000000 1.0
C      1  0.4172000000000  0.5463840000000  0.5568580000000 1.0
C      1  0.6088340000000  0.4963820000000  0.5034370000000 1.0
C      1  0.5875460000000  0.5795210000000  0.5480320000000 1.0
C      1  0.4837120000000  0.5301480000000  0.6011580000000 1.0
C      1  0.5512220000000  0.5379270000000  0.4264040000000 1.0
C      1  0.4441330000000  0.5889080000000  0.5550570000000 1.0
C      1  0.5329960000000  0.5102080000000  0.3920550000000 1.0
C      1  0.4733910000000  0.5257800000000  0.5488310000000 1.0
C      1  0.5079860000000  0.5020280000000  0.5255620000000 1.0
C      1  0.4411840000000  0.4455130000000  0.5794680000000 1.0
C      1  0.5102190000000  0.5870820000000  0.5594380000000 1.0
C      1  0.5606960000000  0.4787390000000  0.5779300000000 1.0
C      1  0.4720860000000  0.5552990000000  0.5606260000000 1.0
C      1  0.4822450000000  0.4857340000000  0.6041120000000 1.0
C      1  0.5250330000000  0.6016440000000  0.4786760000000 1.0
C      1  0.5293200000000  0.5477100000000  0.5776070000000 1.0
C      1  0.5113020000000  0.5533630000000  0.4939780000000 1.0
C      1  0.5075420000000  0.4181830000000  0.4205290000000 1.0
C      1  0.4550080000000  0.5878740000000  0.4538090000000 1.0
C      1  0.4648210000000  0.5556630000000  0.4823750000000 1.0
C      1  0.4484560000000  0.5431720000000  0.4316990000000 1.0
C      1  0.5489700000000  0.4297470000000  0.4480980000000 1.0
C      1  0.4820820000000  0.4691210000000  0.5494780000000 1.0
C      1  0.4401730000000  0.5919920000000  0.5277180000000 1.0
C      1  0.4559050000000  0.5002810000000  0.5527950000000 1.0
C      1  0.4686380000000  0.4635130000000  0.6136800000000 1.0
C      1  0.5347960000000  0.5224780000000  0.4471610000000 1.0
C      1  0.5326870000000  0.4082560000000  0.4340610000000 1.0
C      1  0.4853620000000  0.5904350000000  0.4553230000000 1.0
C      1  0.5122450000000  0.4920940000000  0.4048690000000 1.0
C      1  0.5103110000000  0.5704140000000  0.5861990000000 1.0
C      1  0.3873420000000  0.4778100000000  0.4973310000000 1.0
C      1  0.3954550000000  0.4832850000000  0.4694440000000 1.0
C      1  0.4705090000000  0.4460360000000  0.4661360000000 1.0
C      1  0.4094020000000  0.4493650000000  0.5321680000000 1.0
C      1  0.5191140000000  0.4655120000000  0.4773930000000 1.0
C      1  0.5084410000000  0.4242970000000  0.5299030000000 1.0
C      1  0.4429800000000  0.5715270000000  0.4343130000000 1.0
C      1  0.5253150000000  0.3887540000000  0.4535320000000 1.0
C      1  0.5430840000000  0.4474380000000  0.5160500000000 1.0
C      1  0.4679330000000  0.4842060000000  0.5030980000000 1.0
C      1  0.4288440000000  0.4716740000000  0.5733460000000 1.0
C      1  0.5040860000000  0.4775100000000  0.4524280000000 1.0
END
