TITL C-950524-1808-548 4.88761692899588e-07 125000 -580.084157782106 0 0 95 (C1) n - 1
REM
REM in /home/bkarasulu/work/CARBON/AIRSS/Generating-Clusters/EDIP-Nigel-Params/with-SteepDescent/Only-C1/SD-CG/HFTN-CG
REM
REM
REM
REM
REM
REM ./C.cell (11c1c37f851c82e70ff6c80c92926a4b)
REM
REM compiler GCC version 9.2.1 20190827 (Red Hat 9.2.1-1)
REM options -cpp -mtune=generic -march=x86-64 -g -O0 -fpre-include=/usr/include/finclude/math-vector-fortran.h
REM seed 1010093195 -1247246720 464016937 -2019556647 -1541432731 -362581075 -1450532000 1553112055 -1847772518 1584765580 -989642449 -269696996 223686488 927040987 1288751242 144531439 1099515489 -1517927690 -1292085103 -216344366 544656105 -1217129554 -435277845 1885340317 -47367644 -818740094 -1252619589 1171659292 -1940039243 1832820016 666705680 -357872829 757475474
REM
CELL 1.54180   50.00000   50.00000   50.00000   90.00000   90.00000   90.00000
LATT -1
SFAC C  
C      1  0.4879530000000  0.5823440000000  0.4745560000000 1.0
C      1  0.4770920000000  0.5586270000000  0.4269740000000 1.0
C      1  0.4943580000000  0.4521030000000  0.4148260000000 1.0
C      1  0.4900170000000  0.5140270000000  0.5419580000000 1.0
C      1  0.5341120000000  0.5830760000000  0.5119050000000 1.0
C      1  0.5349370000000  0.4908460000000  0.5612900000000 1.0
C      1  0.4758390000000  0.4170150000000  0.4646350000000 1.0
C      1  0.4878640000000  0.5193400000000  0.4690020000000 1.0
C      1  0.4648430000000  0.5624800000000  0.5325570000000 1.0
C      1  0.5195680000000  0.4550960000000  0.4231650000000 1.0
C      1  0.5345960000000  0.4565500000000  0.4694490000000 1.0
C      1  0.5607150000000  0.4611940000000  0.5158980000000 1.0
C      1  0.4611040000000  0.4290220000000  0.5394270000000 1.0
C      1  0.4678680000000  0.5024010000000  0.5233940000000 1.0
C      1  0.5104810000000  0.4450420000000  0.5623800000000 1.0
C      1  0.5511210000000  0.4454550000000  0.5391100000000 1.0
C      1  0.5085970000000  0.5896010000000  0.5213050000000 1.0
C      1  0.4783580000000  0.4696830000000  0.4308970000000 1.0
C      1  0.4564420000000  0.5031470000000  0.4121400000000 1.0
C      1  0.4762000000000  0.4395110000000  0.4799800000000 1.0
C      1  0.5296400000000  0.5099920000000  0.4394430000000 1.0
C      1  0.5213170000000  0.5045210000000  0.5846530000000 1.0
C      1  0.4572090000000  0.5476250000000  0.5565610000000 1.0
C      1  0.4968460000000  0.4352440000000  0.5065640000000 1.0
C      1  0.4495050000000  0.5391200000000  0.4587360000000 1.0
C      1  0.5538210000000  0.5367220000000  0.4739380000000 1.0
C      1  0.5041690000000  0.5452400000000  0.5387730000000 1.0
C      1  0.5606780000000  0.5064860000000  0.5576980000000 1.0
C      1  0.4622920000000  0.5444500000000  0.5073420000000 1.0
C      1  0.4879660000000  0.5794370000000  0.5369660000000 1.0
C      1  0.4381890000000  0.4922680000000  0.4567040000000 1.0
C      1  0.4205130000000  0.4828960000000  0.4960330000000 1.0
C      1  0.4826890000000  0.4663920000000  0.4609470000000 1.0
C      1  0.5796720000000  0.4824570000000  0.5192850000000 1.0
C      1  0.5131650000000  0.4728010000000  0.5231190000000 1.0
C      1  0.4422690000000  0.4829960000000  0.4284310000000 1.0
C      1  0.5256640000000  0.5319390000000  0.5816600000000 1.0
C      1  0.5526730000000  0.5754850000000  0.5308480000000 1.0
C      1  0.5358380000000  0.4214400000000  0.5303920000000 1.0
C      1  0.5164330000000  0.5043090000000  0.4669990000000 1.0
C      1  0.5521010000000  0.5528020000000  0.5470790000000 1.0
C      1  0.5083360000000  0.5118340000000  0.4181170000000 1.0
C      1  0.5954360000000  0.4881610000000  0.4956910000000 1.0
C      1  0.4944680000000  0.4569500000000  0.5385300000000 1.0
C      1  0.5606640000000  0.4525690000000  0.4864880000000 1.0
C      1  0.5145840000000  0.5405320000000  0.5101760000000 1.0
C      1  0.5401530000000  0.5115200000000  0.4863020000000 1.0
C      1  0.4453380000000  0.5289550000000  0.4132100000000 1.0
C      1  0.4998260000000  0.4786350000000  0.5000180000000 1.0
C      1  0.4665160000000  0.4918060000000  0.4721750000000 1.0
C      1  0.4664380000000  0.4452470000000  0.5628800000000 1.0
C      1  0.5113500000000  0.4177420000000  0.5480200000000 1.0
C      1  0.5407040000000  0.4610440000000  0.4403740000000 1.0
C      1  0.4498070000000  0.4432790000000  0.4933220000000 1.0
C      1  0.4886570000000  0.5340250000000  0.4957020000000 1.0
C      1  0.5511580000000  0.4888370000000  0.4376170000000 1.0
C      1  0.5138300000000  0.5716410000000  0.4703970000000 1.0
C      1  0.4832100000000  0.4990280000000  0.4238530000000 1.0
C      1  0.5410150000000  0.5376060000000  0.4466260000000 1.0
C      1  0.4757070000000  0.5159630000000  0.5692600000000 1.0
C      1  0.5374010000000  0.4590530000000  0.5626040000000 1.0
C      1  0.5799040000000  0.5207210000000  0.4693150000000 1.0
C      1  0.5177020000000  0.5551990000000  0.4465860000000 1.0
C      1  0.5820390000000  0.4714110000000  0.4742990000000 1.0
C      1  0.4703860000000  0.4807920000000  0.5034270000000 1.0
C      1  0.5337240000000  0.5170030000000  0.5165560000000 1.0
C      1  0.4457750000000  0.5207010000000  0.5200610000000 1.0
C      1  0.4520140000000  0.5486460000000  0.4317990000000 1.0
C      1  0.5631940000000  0.4232350000000  0.4841600000000 1.0
C      1  0.5179680000000  0.4979170000000  0.5363940000000 1.0
C      1  0.4609850000000  0.5821770000000  0.4777040000000 1.0
C      1  0.4480570000000  0.4649610000000  0.5727110000000 1.0
C      1  0.4553850000000  0.4497890000000  0.5200270000000 1.0
C      1  0.4295510000000  0.4790960000000  0.5562570000000 1.0
C      1  0.4385690000000  0.5278580000000  0.5481480000000 1.0
C      1  0.4134020000000  0.5287430000000  0.4837600000000 1.0
C      1  0.4191430000000  0.5565490000000  0.4899100000000 1.0
C      1  0.5309240000000  0.5611200000000  0.4926540000000 1.0
C      1  0.4293400000000  0.4598680000000  0.4848570000000 1.0
C      1  0.4571930000000  0.4883150000000  0.5889170000000 1.0
C      1  0.4864370000000  0.4152840000000  0.5287090000000 1.0
C      1  0.5830490000000  0.4970790000000  0.5430720000000 1.0
C      1  0.4939900000000  0.5387300000000  0.4402610000000 1.0
C      1  0.5991750000000  0.5155920000000  0.4890580000000 1.0
C      1  0.5277120000000  0.4269380000000  0.5019040000000 1.0
C      1  0.5672350000000  0.4944120000000  0.4622270000000 1.0
C      1  0.5398620000000  0.4081560000000  0.4831650000000 1.0
C      1  0.5105830000000  0.4752150000000  0.4725060000000 1.0
C      1  0.4930710000000  0.5000640000000  0.5878830000000 1.0
C      1  0.4476410000000  0.5570800000000  0.4831660000000 1.0
C      1  0.4220710000000  0.5097120000000  0.5042600000000 1.0
C      1  0.5584910000000  0.5263180000000  0.5338380000000 1.0
C      1  0.5258510000000  0.5492710000000  0.5597160000000 1.0
C      1  0.4271450000000  0.5205890000000  0.4582830000000 1.0
C      1  0.4331230000000  0.5058530000000  0.5660340000000 1.0
END
