TITL C-951343-2256-574 -3.21060354282859e-06 125000 -643.443802383827 0 0 104 (C1) n - 1
REM
REM in /home/bkarasulu/work/CARBON/AIRSS/Generating-Clusters/EDIP-Nigel-Params/with-SteepDescent/Only-C1/SD-CG/HFTN-CG
REM
REM
REM
REM
REM
REM ./C.cell (11c1c37f851c82e70ff6c80c92926a4b)
REM
REM compiler GCC version 9.2.1 20190827 (Red Hat 9.2.1-1)
REM options -cpp -mtune=generic -march=x86-64 -g -O0 -fpre-include=/usr/include/finclude/math-vector-fortran.h
REM seed -1477433793 261517376 589356643 186902467 1621177532 -928089961 -1979861202 -844920186 1536002207 -1740591388 1474908121 1506476309 -803830608 22286864 -1702965487 449818469 -2069305501 110320295 -2063423281 -900787435 -1736361832 899800851 2041964391 -1255888109 -1370789703 663412781 -934845464 -1287258280 168822003 1276881550 1045258710 -618304886 -800216743
REM
CELL 1.54180   50.00000   50.00000   50.00000   90.00000   90.00000   90.00000
LATT -1
SFAC C  
C      1  0.5323240000000  0.4312150000000  0.4821520000000 1.0
C      1  0.5336410000000  0.4711910000000  0.5310850000000 1.0
C      1  0.4420340000000  0.4467480000000  0.4649990000000 1.0
C      1  0.5272030000000  0.4719790000000  0.4534200000000 1.0
C      1  0.4365450000000  0.5108270000000  0.4494400000000 1.0
C      1  0.5577360000000  0.4954350000000  0.4295900000000 1.0
C      1  0.4563980000000  0.5558370000000  0.5656060000000 1.0
C      1  0.5565250000000  0.4492870000000  0.4431180000000 1.0
C      1  0.5710440000000  0.4745930000000  0.4493490000000 1.0
C      1  0.4384800000000  0.5574930000000  0.4699200000000 1.0
C      1  0.4963040000000  0.5415540000000  0.4305210000000 1.0
C      1  0.4151330000000  0.5149990000000  0.4945840000000 1.0
C      1  0.4609830000000  0.5752140000000  0.5255910000000 1.0
C      1  0.4859190000000  0.4775300000000  0.5749510000000 1.0
C      1  0.5425000000000  0.4888570000000  0.4056070000000 1.0
C      1  0.5737790000000  0.4640440000000  0.5572680000000 1.0
C      1  0.5358210000000  0.5017600000000  0.4487360000000 1.0
C      1  0.4949540000000  0.4142270000000  0.4462830000000 1.0
C      1  0.5223650000000  0.5624510000000  0.5657760000000 1.0
C      1  0.4603170000000  0.4814860000000  0.5175230000000 1.0
C      1  0.4911400000000  0.4911670000000  0.4410430000000 1.0
C      1  0.4304740000000  0.5516720000000  0.5528540000000 1.0
C      1  0.5343370000000  0.5769500000000  0.5441790000000 1.0
C      1  0.4263550000000  0.4692340000000  0.4758640000000 1.0
C      1  0.5010180000000  0.5254170000000  0.5090380000000 1.0
C      1  0.5731950000000  0.5361820000000  0.5297160000000 1.0
C      1  0.4248190000000  0.4982220000000  0.4727570000000 1.0
C      1  0.5320110000000  0.4438700000000  0.4279550000000 1.0
C      1  0.5651050000000  0.4829170000000  0.5796220000000 1.0
C      1  0.4372620000000  0.4518210000000  0.5223160000000 1.0
C      1  0.5036780000000  0.4389790000000  0.4358020000000 1.0
C      1  0.5694960000000  0.5063700000000  0.5384130000000 1.0
C      1  0.5431740000000  0.4263270000000  0.5528980000000 1.0
C      1  0.5456170000000  0.5194940000000  0.4990750000000 1.0
C      1  0.4712260000000  0.4489090000000  0.5527160000000 1.0
C      1  0.5297270000000  0.5374690000000  0.5765140000000 1.0
C      1  0.4509930000000  0.5369910000000  0.4504420000000 1.0
C      1  0.4889480000000  0.5339190000000  0.5600400000000 1.0
C      1  0.5278500000000  0.5417470000000  0.5096790000000 1.0
C      1  0.5311250000000  0.4613450000000  0.4803790000000 1.0
C      1  0.4825400000000  0.5029690000000  0.4688990000000 1.0
C      1  0.5430640000000  0.5479230000000  0.5359570000000 1.0
C      1  0.5319410000000  0.4193530000000  0.5284050000000 1.0
C      1  0.5743420000000  0.5294150000000  0.5005610000000 1.0
C      1  0.5048050000000  0.4312240000000  0.5204870000000 1.0
C      1  0.4169250000000  0.5280560000000  0.5575000000000 1.0
C      1  0.5806220000000  0.4823930000000  0.4793230000000 1.0
C      1  0.5851890000000  0.4795730000000  0.5317930000000 1.0
C      1  0.4403060000000  0.4858550000000  0.5570970000000 1.0
C      1  0.5502820000000  0.4227930000000  0.5043620000000 1.0
C      1  0.5155290000000  0.5897010000000  0.5276380000000 1.0
C      1  0.5131610000000  0.5135790000000  0.4325730000000 1.0
C      1  0.4842380000000  0.4729470000000  0.5365080000000 1.0
C      1  0.4848500000000  0.4602050000000  0.4468910000000 1.0
C      1  0.4409970000000  0.4688550000000  0.4225410000000 1.0
C      1  0.5068430000000  0.5209280000000  0.5849870000000 1.0
C      1  0.4597210000000  0.5783780000000  0.4758600000000 1.0
C      1  0.5811400000000  0.4659240000000  0.5045810000000 1.0
C      1  0.5048470000000  0.5838010000000  0.5022520000000 1.0
C      1  0.4779290000000  0.5327020000000  0.4649800000000 1.0
C      1  0.5495560000000  0.5565370000000  0.4484300000000 1.0
C      1  0.4767440000000  0.5716040000000  0.5003820000000 1.0
C      1  0.5735990000000  0.4388700000000  0.5054250000000 1.0
C      1  0.4655370000000  0.5094560000000  0.4104770000000 1.0
C      1  0.4783210000000  0.5802090000000  0.4552980000000 1.0
C      1  0.5056690000000  0.4231940000000  0.4919260000000 1.0
C      1  0.5066520000000  0.4712240000000  0.4929620000000 1.0
C      1  0.4590200000000  0.4279540000000  0.4833920000000 1.0
C      1  0.5887970000000  0.5083530000000  0.4877370000000 1.0
C      1  0.4608980000000  0.4941230000000  0.5774330000000 1.0
C      1  0.5461380000000  0.4543860000000  0.5516620000000 1.0
C      1  0.4425600000000  0.4575380000000  0.5498170000000 1.0
C      1  0.4788640000000  0.5415860000000  0.4949890000000 1.0
C      1  0.5449330000000  0.5228420000000  0.4679280000000 1.0
C      1  0.5076410000000  0.4619380000000  0.5211510000000 1.0
C      1  0.4108190000000  0.5023730000000  0.5195440000000 1.0
C      1  0.5007800000000  0.5658050000000  0.4468080000000 1.0
C      1  0.4734950000000  0.5733700000000  0.5506330000000 1.0
C      1  0.4355490000000  0.5604450000000  0.5252590000000 1.0
C      1  0.5371670000000  0.4810340000000  0.5858950000000 1.0
C      1  0.5171090000000  0.5025340000000  0.4053970000000 1.0
C      1  0.5043540000000  0.5015540000000  0.4895330000000 1.0
C      1  0.4890680000000  0.4947250000000  0.4008560000000 1.0
C      1  0.5557990000000  0.5293790000000  0.5803870000000 1.0
C      1  0.4270770000000  0.5434010000000  0.4952190000000 1.0
C      1  0.4559930000000  0.4525190000000  0.4397320000000 1.0
C      1  0.4679980000000  0.5229360000000  0.5818040000000 1.0
C      1  0.4173950000000  0.5023960000000  0.5470820000000 1.0
C      1  0.5111130000000  0.4916990000000  0.5827580000000 1.0
C      1  0.4615730000000  0.5100300000000  0.5270110000000 1.0
C      1  0.5251090000000  0.5619250000000  0.4622870000000 1.0
C      1  0.4487690000000  0.4947800000000  0.4288310000000 1.0
C      1  0.4889560000000  0.5165490000000  0.5355340000000 1.0
C      1  0.4770030000000  0.4264890000000  0.5325840000000 1.0
C      1  0.4543010000000  0.4300120000000  0.5133140000000 1.0
C      1  0.4826030000000  0.4583780000000  0.4781180000000 1.0
C      1  0.5426450000000  0.4987730000000  0.5262180000000 1.0
C      1  0.5258950000000  0.5664000000000  0.4913160000000 1.0
C      1  0.4851970000000  0.4150240000000  0.4729690000000 1.0
C      1  0.5678840000000  0.5380340000000  0.4574490000000 1.0
C      1  0.5703720000000  0.5089710000000  0.5684910000000 1.0
C      1  0.4678520000000  0.5370880000000  0.4227020000000 1.0
C      1  0.4542140000000  0.5310790000000  0.5074650000000 1.0
C      1  0.4621530000000  0.4801820000000  0.4857770000000 1.0
END
