TITL C-951342-2639-1 -2.22171755683196 125000 -99.9018755269652 0 0 19 (C1) n - 1
REM
REM in /home/bkarasulu/work/CARBON/AIRSS/Generating-Clusters/EDIP-Nigel-Params/with-SteepDescent/Only-C1/SD-CG/HFTN-CG
REM
REM
REM
REM
REM
REM ./C.cell (11c1c37f851c82e70ff6c80c92926a4b)
REM
REM compiler GCC version 9.2.1 20190827 (Red Hat 9.2.1-1)
REM options -cpp -mtune=generic -march=x86-64 -g -O0 -fpre-include=/usr/include/finclude/math-vector-fortran.h
REM seed 1437815238 -2105902555 -54631107 -985070073 390190578 -320016457 -362482688 1205696719 1051638011 1286751589 354644800 193585758 -1833504489 1052370085 -1331000149 180289283 -1591909047 -668406076 338664460 34528816 546236209 -2079938515 2040077835 -1443555320 628940778 831380801 -1458761608 2106908744 -1891553435 -534816919 798966715 -1308088213 1380024186
REM
CELL 1.54180   50.00000   50.00000   50.00000   90.00000   90.00000   90.00000
LATT -1
SFAC C  
C      1  0.4541660000000  0.5122030000000  0.4676480000000 1.0
C      1  0.5715510000000  0.5078180000000  0.5915540000000 1.0
C      1  0.4491030000000  0.4914370000000  0.4193240000000 1.0
C      1  0.5078240000000  0.4791800000000  0.4254970000000 1.0
C      1  0.5040590000000  0.5032700000000  0.5216540000000 1.0
C      1  0.4711860000000  0.5103910000000  0.4878910000000 1.0
C      1  0.5018910000000  0.5273550000000  0.5897700000000 1.0
C      1  0.5195820000000  0.5096980000000  0.5739490000000 1.0
C      1  0.5953270000000  0.5060630000000  0.6008000000000 1.0
C      1  0.5105580000000  0.4869050000000  0.4773790000000 1.0
C      1  0.4279560000000  0.4782920000000  0.4104940000000 1.0
C      1  0.5124470000000  0.5062500000000  0.5465830000000 1.0
C      1  0.4953590000000  0.5002260000000  0.4958920000000 1.0
C      1  0.5467910000000  0.5086270000000  0.5823320000000 1.0
C      1  0.5135060000000  0.4791970000000  0.4521770000000 1.0
C      1  0.4474310000000  0.5052440000000  0.4429830000000 1.0
C      1  0.4744650000000  0.4861410000000  0.4077260000000 1.0
C      1  0.4996100000000  0.5005190000000  0.5937460000000 1.0
C      1  0.4971880000000  0.5011840000000  0.4126010000000 1.0
END
