TITL C-950535-5962-659 -1.72359354648189e-07 125000 -850.430098491737 0 0 136 (C1) n - 1
REM
REM in /home/bkarasulu/work/CARBON/AIRSS/Generating-Clusters/EDIP-Nigel-Params/with-SteepDescent/Only-C1/SD-CG/HFTN-CG
REM
REM
REM
REM
REM
REM ./C.cell (11c1c37f851c82e70ff6c80c92926a4b)
REM
REM compiler GCC version 9.2.1 20190827 (Red Hat 9.2.1-1)
REM options -cpp -mtune=generic -march=x86-64 -g -O0 -fpre-include=/usr/include/finclude/math-vector-fortran.h
REM seed -1385513724 -1986840418 -1540314559 71514653 623930920 1789344398 569193062 -93161019 -472710093 -1055397601 789702005 1172213279 1969831694 875630759 -541931886 450003484 488258175 291165269 -402549049 1104255884 1189268443 -62555982 -1262475660 -1522490605 -573531667 -1159453172 337083127 -1262151653 -997387139 -1995881167 -49756879 -1124796258 444900058
REM
CELL 1.54180   50.00000   50.00000   50.00000   90.00000   90.00000   90.00000
LATT -1
SFAC C  
C      1  0.5995550000000  0.5185560000000  0.4947450000000 1.0
C      1  0.5608900000000  0.4422580000000  0.5231100000000 1.0
C      1  0.5233810000000  0.5523370000000  0.4973330000000 1.0
C      1  0.4994970000000  0.5615780000000  0.4800750000000 1.0
C      1  0.4747220000000  0.5052100000000  0.5969520000000 1.0
C      1  0.5216750000000  0.4253390000000  0.4507220000000 1.0
C      1  0.4570480000000  0.4838160000000  0.5951590000000 1.0
C      1  0.5581270000000  0.5200170000000  0.5089440000000 1.0
C      1  0.5208300000000  0.4734310000000  0.4399770000000 1.0
C      1  0.5690230000000  0.4381200000000  0.4648870000000 1.0
C      1  0.5303350000000  0.4812460000000  0.4676280000000 1.0
C      1  0.5082740000000  0.5832080000000  0.4616390000000 1.0
C      1  0.5668990000000  0.4838610000000  0.4344520000000 1.0
C      1  0.5137560000000  0.4560860000000  0.5330270000000 1.0
C      1  0.4817840000000  0.5974620000000  0.4514610000000 1.0
C      1  0.5409700000000  0.5293720000000  0.4850550000000 1.0
C      1  0.4583720000000  0.5395480000000  0.5096420000000 1.0
C      1  0.5516630000000  0.4148600000000  0.4565060000000 1.0
C      1  0.4901000000000  0.4068990000000  0.5414340000000 1.0
C      1  0.4761890000000  0.4245940000000  0.5203330000000 1.0
C      1  0.4405800000000  0.4703230000000  0.5774590000000 1.0
C      1  0.5353470000000  0.5890810000000  0.5309840000000 1.0
C      1  0.5898290000000  0.4797300000000  0.5210150000000 1.0
C      1  0.5248660000000  0.5271120000000  0.5559890000000 1.0
C      1  0.4701690000000  0.5282880000000  0.5797970000000 1.0
C      1  0.4112470000000  0.4685280000000  0.5087140000000 1.0
C      1  0.4570890000000  0.5150050000000  0.4737140000000 1.0
C      1  0.4849560000000  0.4674100000000  0.4922880000000 1.0
C      1  0.5194970000000  0.5280410000000  0.4286610000000 1.0
C      1  0.4043640000000  0.5213820000000  0.4996140000000 1.0
C      1  0.5580290000000  0.5444280000000  0.5247670000000 1.0
C      1  0.4608340000000  0.6010680000000  0.4702340000000 1.0
C      1  0.4906710000000  0.5718990000000  0.5641190000000 1.0
C      1  0.4177930000000  0.5409380000000  0.4808610000000 1.0
C      1  0.4143310000000  0.4672950000000  0.5386400000000 1.0
C      1  0.5878940000000  0.4982640000000  0.4771230000000 1.0
C      1  0.4450460000000  0.4988850000000  0.4974480000000 1.0
C      1  0.5716150000000  0.4649650000000  0.5383460000000 1.0
C      1  0.4754540000000  0.4775260000000  0.3940180000000 1.0
C      1  0.5409410000000  0.5476030000000  0.4384720000000 1.0
C      1  0.5334300000000  0.5678790000000  0.5763910000000 1.0
C      1  0.4516890000000  0.4104900000000  0.5098730000000 1.0
C      1  0.5759140000000  0.5675250000000  0.5209110000000 1.0
C      1  0.4799400000000  0.5557950000000  0.5217300000000 1.0
C      1  0.4568240000000  0.5297260000000  0.4151330000000 1.0
C      1  0.5283660000000  0.5971450000000  0.4773550000000 1.0
C      1  0.5181340000000  0.5751340000000  0.5520330000000 1.0
C      1  0.5604800000000  0.5651700000000  0.5658000000000 1.0
C      1  0.4859350000000  0.5404330000000  0.4630600000000 1.0
C      1  0.5100910000000  0.3891830000000  0.5331920000000 1.0
C      1  0.5029140000000  0.5158970000000  0.4562610000000 1.0
C      1  0.4418020000000  0.5609210000000  0.5533860000000 1.0
C      1  0.5559500000000  0.5378810000000  0.5522240000000 1.0
C      1  0.4820340000000  0.5755220000000  0.4999870000000 1.0
C      1  0.4931340000000  0.4774550000000  0.4286920000000 1.0
C      1  0.4252710000000  0.4393250000000  0.5456430000000 1.0
C      1  0.4808300000000  0.5526310000000  0.4353050000000 1.0
C      1  0.4800650000000  0.4966260000000  0.4668160000000 1.0
C      1  0.5341240000000  0.4325750000000  0.5346870000000 1.0
C      1  0.4385620000000  0.5442400000000  0.4332230000000 1.0
C      1  0.4362050000000  0.4532580000000  0.5000000000000 1.0
C      1  0.5219580000000  0.5077940000000  0.4768960000000 1.0
C      1  0.5175410000000  0.4331420000000  0.4813610000000 1.0
C      1  0.5679550000000  0.5744650000000  0.4935810000000 1.0
C      1  0.5513610000000  0.4859060000000  0.5469930000000 1.0
C      1  0.5384150000000  0.5796590000000  0.4998980000000 1.0
C      1  0.5779380000000  0.5525220000000  0.4759160000000 1.0
C      1  0.4689350000000  0.5794730000000  0.4322950000000 1.0
C      1  0.4963330000000  0.5028990000000  0.3944220000000 1.0
C      1  0.4875790000000  0.4978040000000  0.5401400000000 1.0
C      1  0.5091660000000  0.5417300000000  0.5242810000000 1.0
C      1  0.5001620000000  0.5451700000000  0.4143410000000 1.0
C      1  0.4750730000000  0.4346660000000  0.4324450000000 1.0
C      1  0.5289500000000  0.4563240000000  0.5794590000000 1.0
C      1  0.5809110000000  0.4751050000000  0.4938830000000 1.0
C      1  0.5284230000000  0.4073200000000  0.4931540000000 1.0
C      1  0.4322490000000  0.4819380000000  0.4272040000000 1.0
C      1  0.5085580000000  0.4972830000000  0.5618440000000 1.0
C      1  0.5273200000000  0.4470990000000  0.4321810000000 1.0
C      1  0.5898040000000  0.5095720000000  0.5244870000000 1.0
C      1  0.5735510000000  0.4582560000000  0.4451230000000 1.0
C      1  0.5469730000000  0.4671720000000  0.5981890000000 1.0
C      1  0.4878810000000  0.4359400000000  0.4907650000000 1.0
C      1  0.4150670000000  0.4936600000000  0.4925840000000 1.0
C      1  0.4986380000000  0.4236700000000  0.5634040000000 1.0
C      1  0.4368050000000  0.5581890000000  0.5002480000000 1.0
C      1  0.5252870000000  0.4731890000000  0.5556330000000 1.0
C      1  0.4483510000000  0.4435250000000  0.5649110000000 1.0
C      1  0.5020960000000  0.4955250000000  0.5932210000000 1.0
C      1  0.5296180000000  0.4055940000000  0.5217170000000 1.0
C      1  0.4151930000000  0.5286630000000  0.5279570000000 1.0
C      1  0.4085190000000  0.4845950000000  0.4644660000000 1.0
C      1  0.5634600000000  0.5848840000000  0.5422000000000 1.0
C      1  0.5114070000000  0.4721850000000  0.5083040000000 1.0
C      1  0.5638830000000  0.5361410000000  0.4542900000000 1.0
C      1  0.5406590000000  0.4815290000000  0.4191600000000 1.0
C      1  0.4321300000000  0.4301090000000  0.5177650000000 1.0
C      1  0.4438140000000  0.5349350000000  0.5689850000000 1.0
C      1  0.5619060000000  0.4517000000000  0.4927520000000 1.0
C      1  0.6034540000000  0.5439180000000  0.4837790000000 1.0
C      1  0.5089290000000  0.5093120000000  0.5190690000000 1.0
C      1  0.5259070000000  0.5136440000000  0.5992480000000 1.0
C      1  0.4403820000000  0.4430970000000  0.4700350000000 1.0
C      1  0.5195410000000  0.5408320000000  0.5832510000000 1.0
C      1  0.4551830000000  0.5833370000000  0.4913560000000 1.0
C      1  0.4903470000000  0.5488630000000  0.5827970000000 1.0
C      1  0.4689520000000  0.5715110000000  0.5446730000000 1.0
C      1  0.4365000000000  0.4844010000000  0.5511710000000 1.0
C      1  0.4922750000000  0.4134210000000  0.4443730000000 1.0
C      1  0.5495330000000  0.3963720000000  0.4778370000000 1.0
C      1  0.4590930000000  0.4733360000000  0.5067650000000 1.0
C      1  0.4229990000000  0.5583460000000  0.5288780000000 1.0
C      1  0.4714110000000  0.4780190000000  0.4474360000000 1.0
C      1  0.4321710000000  0.5263470000000  0.4571170000000 1.0
C      1  0.4784540000000  0.4056270000000  0.4689200000000 1.0
C      1  0.4490770000000  0.4842360000000  0.4044600000000 1.0
C      1  0.5483770000000  0.4946480000000  0.5903290000000 1.0
C      1  0.5729510000000  0.5063820000000  0.4529530000000 1.0
C      1  0.5243890000000  0.5053920000000  0.4089660000000 1.0
C      1  0.5273030000000  0.4298100000000  0.5662180000000 1.0
C      1  0.4652990000000  0.4767940000000  0.5363640000000 1.0
C      1  0.5724730000000  0.5008930000000  0.5758450000000 1.0
C      1  0.4261730000000  0.5144290000000  0.5555650000000 1.0
C      1  0.4522140000000  0.4126600000000  0.4795980000000 1.0
C      1  0.5396440000000  0.5019050000000  0.5231370000000 1.0
C      1  0.5319540000000  0.4601990000000  0.4882230000000 1.0
C      1  0.5785680000000  0.5186980000000  0.5545230000000 1.0
C      1  0.4664100000000  0.4510680000000  0.4557740000000 1.0
C      1  0.4730950000000  0.4473110000000  0.5469560000000 1.0
C      1  0.4185280000000  0.5023660000000  0.4443680000000 1.0
C      1  0.4415860000000  0.5726890000000  0.4354320000000 1.0
C      1  0.4195100000000  0.4589830000000  0.4534730000000 1.0
C      1  0.4816370000000  0.5285810000000  0.3986590000000 1.0
C      1  0.4462990000000  0.5162140000000  0.5216220000000 1.0
C      1  0.4884340000000  0.4520240000000  0.4115660000000 1.0
C      1  0.5317430000000  0.5746220000000  0.4457650000000 1.0
END
