TITL C-950533-5798-247 -3.43789376953049e-06 125000 -1172.29020637256 0 0 186 (C1) n - 1
REM
REM in /home/bkarasulu/work/CARBON/AIRSS/Generating-Clusters/EDIP-Nigel-Params/with-SteepDescent/Only-C1/SD-CG/HFTN-CG
REM
REM
REM
REM
REM
REM ./C.cell (11c1c37f851c82e70ff6c80c92926a4b)
REM
REM compiler GCC version 9.2.1 20190827 (Red Hat 9.2.1-1)
REM options -cpp -mtune=generic -march=x86-64 -g -O0 -fpre-include=/usr/include/finclude/math-vector-fortran.h
REM seed 82685508 1567221913 -2061454195 -445603107 -1209643258 -1072056583 1032720382 731368655 -2093906680 -96875216 -118051907 275487046 1184692953 399757919 855350331 -1756792962 -1142780885 1345310402 -1497070003 1939266024 -1225831519 386262512 -2069169182 79528279 -1657281724 315615406 1870065241 -104600282 -285218522 -1272020554 -520729121 1648301605 -1285984696
REM
CELL 1.54180   50.00000   50.00000   50.00000   90.00000   90.00000   90.00000
LATT -1
SFAC C  
C      1  0.6016340000000  0.5409710000000  0.4466930000000 1.0
C      1  0.5340870000000  0.4967620000000  0.5663410000000 1.0
C      1  0.6193740000000  0.5234050000000  0.4586420000000 1.0
C      1  0.4760530000000  0.5755810000000  0.5044050000000 1.0
C      1  0.4191400000000  0.4307990000000  0.4711900000000 1.0
C      1  0.6142550000000  0.4614700000000  0.4938580000000 1.0
C      1  0.4382120000000  0.4883440000000  0.5350890000000 1.0
C      1  0.4742990000000  0.4762890000000  0.4522160000000 1.0
C      1  0.4793220000000  0.5765480000000  0.4748620000000 1.0
C      1  0.3954060000000  0.4759500000000  0.4861310000000 1.0
C      1  0.5652730000000  0.5423260000000  0.5807670000000 1.0
C      1  0.5211660000000  0.4019090000000  0.4478850000000 1.0
C      1  0.5320120000000  0.5089500000000  0.4286040000000 1.0
C      1  0.5402270000000  0.5592780000000  0.4279640000000 1.0
C      1  0.5758340000000  0.4314860000000  0.5295770000000 1.0
C      1  0.4494880000000  0.4640740000000  0.5751410000000 1.0
C      1  0.4389490000000  0.6048980000000  0.5135210000000 1.0
C      1  0.5496310000000  0.4698280000000  0.6220550000000 1.0
C      1  0.4342730000000  0.5800910000000  0.5295870000000 1.0
C      1  0.5457940000000  0.4472830000000  0.4785190000000 1.0
C      1  0.4577250000000  0.4018460000000  0.4862180000000 1.0
C      1  0.3994390000000  0.5243350000000  0.4961400000000 1.0
C      1  0.5898650000000  0.4527550000000  0.5428660000000 1.0
C      1  0.4773980000000  0.5963190000000  0.5478140000000 1.0
C      1  0.4892340000000  0.4090930000000  0.4849280000000 1.0
C      1  0.6044880000000  0.4992700000000  0.5276500000000 1.0
C      1  0.5232720000000  0.6090340000000  0.4786060000000 1.0
C      1  0.5517920000000  0.4330850000000  0.4482180000000 1.0
C      1  0.4454950000000  0.5034920000000  0.4218310000000 1.0
C      1  0.5817790000000  0.5193330000000  0.5721550000000 1.0
C      1  0.5187020000000  0.5832980000000  0.5222150000000 1.0
C      1  0.4377740000000  0.5521280000000  0.4860610000000 1.0
C      1  0.4595300000000  0.5549480000000  0.4646260000000 1.0
C      1  0.5574730000000  0.5049560000000  0.5859230000000 1.0
C      1  0.5245070000000  0.5333910000000  0.4958120000000 1.0
C      1  0.5133900000000  0.4744320000000  0.3915580000000 1.0
C      1  0.4370190000000  0.5021350000000  0.5976310000000 1.0
C      1  0.4807020000000  0.5246980000000  0.5160450000000 1.0
C      1  0.4837270000000  0.5231910000000  0.3954930000000 1.0
C      1  0.4658130000000  0.5946020000000  0.4352840000000 1.0
C      1  0.5349370000000  0.4521930000000  0.5214040000000 1.0
C      1  0.6304900000000  0.4820360000000  0.4837500000000 1.0
C      1  0.4173100000000  0.5665630000000  0.4491760000000 1.0
C      1  0.4537870000000  0.5783780000000  0.5531380000000 1.0
C      1  0.5859360000000  0.4587720000000  0.4435720000000 1.0
C      1  0.5080780000000  0.4276300000000  0.4442650000000 1.0
C      1  0.5380930000000  0.4028410000000  0.5205030000000 1.0
C      1  0.5121230000000  0.5226230000000  0.3916970000000 1.0
C      1  0.5159520000000  0.4803570000000  0.5914120000000 1.0
C      1  0.5121490000000  0.4930410000000  0.5186470000000 1.0
C      1  0.5875020000000  0.4239660000000  0.4611640000000 1.0
C      1  0.4939080000000  0.5709190000000  0.3985120000000 1.0
C      1  0.5425150000000  0.4049590000000  0.4913530000000 1.0
C      1  0.4427450000000  0.5249040000000  0.5822830000000 1.0
C      1  0.4805390000000  0.4402410000000  0.5275190000000 1.0
C      1  0.5468900000000  0.5759150000000  0.5197480000000 1.0
C      1  0.4366890000000  0.5185750000000  0.5391040000000 1.0
C      1  0.4376690000000  0.4064060000000  0.5079060000000 1.0
C      1  0.4027290000000  0.4580220000000  0.5464910000000 1.0
C      1  0.4755780000000  0.5272630000000  0.4617860000000 1.0
C      1  0.5766190000000  0.4395560000000  0.5009860000000 1.0
C      1  0.5555410000000  0.5742720000000  0.4919580000000 1.0
C      1  0.5433610000000  0.5507090000000  0.5632610000000 1.0
C      1  0.4955500000000  0.4564890000000  0.5497770000000 1.0
C      1  0.4472340000000  0.5695690000000  0.4394450000000 1.0
C      1  0.6019820000000  0.4702300000000  0.5206400000000 1.0
C      1  0.5146580000000  0.6041350000000  0.4317860000000 1.0
C      1  0.5281960000000  0.4989340000000  0.3916090000000 1.0
C      1  0.5825390000000  0.5626980000000  0.4870060000000 1.0
C      1  0.5358420000000  0.5175400000000  0.6141450000000 1.0
C      1  0.3788780000000  0.4994160000000  0.5328570000000 1.0
C      1  0.4190350000000  0.5361690000000  0.5688410000000 1.0
C      1  0.5731360000000  0.4617250000000  0.4161940000000 1.0
C      1  0.5621910000000  0.5079700000000  0.4259700000000 1.0
C      1  0.5042890000000  0.6157650000000  0.4565680000000 1.0
C      1  0.3928280000000  0.4214760000000  0.5161350000000 1.0
C      1  0.4034950000000  0.5112880000000  0.4601220000000 1.0
C      1  0.5085760000000  0.4356680000000  0.5690120000000 1.0
C      1  0.5101240000000  0.3987900000000  0.5247480000000 1.0
C      1  0.5174510000000  0.3946000000000  0.4757900000000 1.0
C      1  0.5320670000000  0.5662800000000  0.4017840000000 1.0
C      1  0.4910160000000  0.5921850000000  0.4193380000000 1.0
C      1  0.4855960000000  0.4468430000000  0.6131460000000 1.0
C      1  0.4835850000000  0.4629320000000  0.4831810000000 1.0
C      1  0.5660640000000  0.5202100000000  0.4785930000000 1.0
C      1  0.5473790000000  0.4773800000000  0.4728810000000 1.0
C      1  0.5201670000000  0.4900550000000  0.4659410000000 1.0
C      1  0.5299390000000  0.4890860000000  0.6162620000000 1.0
C      1  0.5108230000000  0.5607960000000  0.5968530000000 1.0
C      1  0.4874630000000  0.4891390000000  0.5916450000000 1.0
C      1  0.5377380000000  0.4286940000000  0.5631260000000 1.0
C      1  0.5745210000000  0.5839020000000  0.4449210000000 1.0
C      1  0.5207350000000  0.4431400000000  0.4968980000000 1.0
C      1  0.5587920000000  0.4706410000000  0.5174690000000 1.0
C      1  0.4735420000000  0.4742500000000  0.6140980000000 1.0
C      1  0.4597110000000  0.4536120000000  0.4355380000000 1.0
C      1  0.4512200000000  0.4346330000000  0.5788990000000 1.0
C      1  0.4878910000000  0.4319170000000  0.4653220000000 1.0
C      1  0.4321990000000  0.5006730000000  0.4729490000000 1.0
C      1  0.5175490000000  0.4696070000000  0.5358960000000 1.0
C      1  0.4262450000000  0.5975880000000  0.4891270000000 1.0
C      1  0.5117770000000  0.4494230000000  0.5965170000000 1.0
C      1  0.4946370000000  0.5511710000000  0.5571460000000 1.0
C      1  0.5043140000000  0.4852170000000  0.4413600000000 1.0
C      1  0.4691160000000  0.5000230000000  0.4029950000000 1.0
C      1  0.4045410000000  0.5394220000000  0.5437330000000 1.0
C      1  0.5161510000000  0.5234560000000  0.5563640000000 1.0
C      1  0.4262680000000  0.4741090000000  0.5573100000000 1.0
C      1  0.5800710000000  0.5101600000000  0.5430200000000 1.0
C      1  0.5466610000000  0.4276250000000  0.5351460000000 1.0
C      1  0.5052430000000  0.5815940000000  0.5508240000000 1.0
C      1  0.4252750000000  0.4744160000000  0.4880070000000 1.0
C      1  0.4435110000000  0.4160400000000  0.4647930000000 1.0
C      1  0.5130430000000  0.6091210000000  0.5060590000000 1.0
C      1  0.5016110000000  0.3926520000000  0.5504460000000 1.0
C      1  0.6086270000000  0.5182400000000  0.5047040000000 1.0
C      1  0.4564140000000  0.5017800000000  0.4514520000000 1.0
C      1  0.5421730000000  0.5367960000000  0.4723200000000 1.0
C      1  0.4764800000000  0.4757150000000  0.5655000000000 1.0
C      1  0.4673710000000  0.4584040000000  0.5082320000000 1.0
C      1  0.5248900000000  0.4493600000000  0.4039520000000 1.0
C      1  0.5791190000000  0.5100560000000  0.4512350000000 1.0
C      1  0.4812340000000  0.5132100000000  0.4887940000000 1.0
C      1  0.5343250000000  0.5826790000000  0.4706120000000 1.0
C      1  0.4575190000000  0.5371090000000  0.5280830000000 1.0
C      1  0.4171340000000  0.5726220000000  0.4787210000000 1.0
C      1  0.5146490000000  0.5313700000000  0.5997590000000 1.0
C      1  0.4638390000000  0.4290040000000  0.4500610000000 1.0
C      1  0.3779920000000  0.4612660000000  0.5032670000000 1.0
C      1  0.4999690000000  0.4893470000000  0.4889560000000 1.0
C      1  0.5413530000000  0.4473320000000  0.6067430000000 1.0
C      1  0.3833300000000  0.4722220000000  0.5287730000000 1.0
C      1  0.5606410000000  0.4857560000000  0.5458840000000 1.0
C      1  0.4114290000000  0.4531240000000  0.4516310000000 1.0
C      1  0.3916560000000  0.4748140000000  0.4573540000000 1.0
C      1  0.4281870000000  0.5245220000000  0.4921660000000 1.0
C      1  0.4889540000000  0.6234870000000  0.5091180000000 1.0
C      1  0.4661420000000  0.4295700000000  0.6021910000000 1.0
C      1  0.5761830000000  0.4601660000000  0.5684150000000 1.0
C      1  0.5046070000000  0.5601370000000  0.5085940000000 1.0
C      1  0.5344700000000  0.5098770000000  0.5110620000000 1.0
C      1  0.4996910000000  0.4228730000000  0.5097690000000 1.0
C      1  0.4262670000000  0.4828580000000  0.4167870000000 1.0
C      1  0.5564160000000  0.5555220000000  0.5373810000000 1.0
C      1  0.5744650000000  0.4812200000000  0.4591480000000 1.0
C      1  0.5901240000000  0.5647670000000  0.4587960000000 1.0
C      1  0.4742100000000  0.5491210000000  0.4017860000000 1.0
C      1  0.5483840000000  0.4040060000000  0.4417430000000 1.0
C      1  0.4896210000000  0.4122460000000  0.5655540000000 1.0
C      1  0.5070960000000  0.5647240000000  0.4704080000000 1.0
C      1  0.4709450000000  0.6027670000000  0.5186090000000 1.0
C      1  0.4383740000000  0.4311970000000  0.5273300000000 1.0
C      1  0.6236440000000  0.5089480000000  0.4820970000000 1.0
C      1  0.5294420000000  0.5359280000000  0.4441230000000 1.0
C      1  0.4392070000000  0.4651330000000  0.5140730000000 1.0
C      1  0.5013790000000  0.5417150000000  0.4513930000000 1.0
C      1  0.4118180000000  0.5364080000000  0.4411970000000 1.0
C      1  0.4767460000000  0.6037100000000  0.4612410000000 1.0
C      1  0.5269710000000  0.5738380000000  0.5747190000000 1.0
C      1  0.5549750000000  0.4933530000000  0.4974420000000 1.0
C      1  0.4878830000000  0.4772970000000  0.4065530000000 1.0
C      1  0.3900880000000  0.5234130000000  0.5240020000000 1.0
C      1  0.4888040000000  0.5182890000000  0.5992430000000 1.0
C      1  0.4972140000000  0.5113520000000  0.5352940000000 1.0
C      1  0.4764440000000  0.4511900000000  0.4116130000000 1.0
C      1  0.5720000000000  0.4134360000000  0.4851270000000 1.0
C      1  0.5456120000000  0.5842860000000  0.4422120000000 1.0
C      1  0.5696940000000  0.5327640000000  0.5255780000000 1.0
C      1  0.4619250000000  0.4207650000000  0.5555590000000 1.0
C      1  0.4645480000000  0.5501300000000  0.5530230000000 1.0
C      1  0.4316310000000  0.5296810000000  0.4199960000000 1.0
C      1  0.4115930000000  0.4146280000000  0.4956820000000 1.0
C      1  0.5218600000000  0.5480000000000  0.3837500000000 1.0
C      1  0.5564300000000  0.4418790000000  0.5813340000000 1.0
C      1  0.5720510000000  0.4885590000000  0.4081260000000 1.0
C      1  0.5474990000000  0.4508200000000  0.4234890000000 1.0
C      1  0.6080540000000  0.4431510000000  0.4712040000000 1.0
C      1  0.4819510000000  0.5623560000000  0.5916080000000 1.0
C      1  0.5838440000000  0.5348570000000  0.4992060000000 1.0
C      1  0.4459220000000  0.4760410000000  0.6024440000000 1.0
C      1  0.4099570000000  0.4314450000000  0.5365970000000 1.0
C      1  0.4493300000000  0.5520520000000  0.4160590000000 1.0
C      1  0.4502430000000  0.5607270000000  0.5115070000000 1.0
C      1  0.4674820000000  0.5369390000000  0.5948550000000 1.0
C      1  0.5015870000000  0.4349900000000  0.4161530000000 1.0
C      1  0.4307310000000  0.4594740000000  0.4306190000000 1.0
END
