TITL C-950524-1808-521 7.35418201991352e-07 125000 -415.500079864431 0 0 69 (C1) n - 1
REM
REM in /home/bkarasulu/work/CARBON/AIRSS/Generating-Clusters/EDIP-Nigel-Params/with-SteepDescent/Only-C1/SD-CG/HFTN-CG
REM
REM
REM
REM
REM
REM ./C.cell (11c1c37f851c82e70ff6c80c92926a4b)
REM
REM compiler GCC version 9.2.1 20190827 (Red Hat 9.2.1-1)
REM options -cpp -mtune=generic -march=x86-64 -g -O0 -fpre-include=/usr/include/finclude/math-vector-fortran.h
REM seed -2068126287 -579921472 -1601864281 -1479558486 1364614553 -1107789355 177041991 -348002156 -687945207 1393712596 485947551 1346003758 -585165052 -572411347 -60427536 -1968091973 1707784458 1322276590 -1845547464 -415303645 754051297 873559023 -500120106 -1581761579 16700994 1740500313 -728033161 -1284947328 1410289685 1487890802 -2077998972 553927870 -783821382
REM
CELL 1.54180   50.00000   50.00000   50.00000   90.00000   90.00000   90.00000
LATT -1
SFAC C  
C      1  0.5771660000000  0.4862460000000  0.4771510000000 1.0
C      1  0.4825150000000  0.4969390000000  0.5399840000000 1.0
C      1  0.5645010000000  0.5443900000000  0.5217450000000 1.0
C      1  0.5527220000000  0.4793520000000  0.4655270000000 1.0
C      1  0.5040520000000  0.4177780000000  0.5091960000000 1.0
C      1  0.4984450000000  0.5383390000000  0.5179520000000 1.0
C      1  0.4550910000000  0.4706500000000  0.5625830000000 1.0
C      1  0.4395370000000  0.5062090000000  0.5668030000000 1.0
C      1  0.5161770000000  0.5010390000000  0.4236010000000 1.0
C      1  0.5511990000000  0.4367060000000  0.4974040000000 1.0
C      1  0.5308490000000  0.4999500000000  0.4653250000000 1.0
C      1  0.4824580000000  0.4241800000000  0.4906090000000 1.0
C      1  0.4521380000000  0.5516850000000  0.5035750000000 1.0
C      1  0.5418880000000  0.5380810000000  0.4841360000000 1.0
C      1  0.5133620000000  0.4503150000000  0.4818330000000 1.0
C      1  0.4537690000000  0.4683480000000  0.5118410000000 1.0
C      1  0.5634380000000  0.4904580000000  0.5250070000000 1.0
C      1  0.5056900000000  0.4937910000000  0.4805840000000 1.0
C      1  0.4817250000000  0.5109760000000  0.4823310000000 1.0
C      1  0.5013770000000  0.5436790000000  0.5477180000000 1.0
C      1  0.5236890000000  0.5748160000000  0.5164030000000 1.0
C      1  0.4666960000000  0.5132660000000  0.5618940000000 1.0
C      1  0.4482210000000  0.4613540000000  0.4845870000000 1.0
C      1  0.5469270000000  0.5658230000000  0.5280850000000 1.0
C      1  0.4363620000000  0.4876190000000  0.4739930000000 1.0
C      1  0.4331110000000  0.4877080000000  0.5460370000000 1.0
C      1  0.5321940000000  0.4407950000000  0.5449440000000 1.0
C      1  0.5090890000000  0.4956810000000  0.5528370000000 1.0
C      1  0.4722140000000  0.4827380000000  0.4409850000000 1.0
C      1  0.4272750000000  0.5052320000000  0.4965450000000 1.0
C      1  0.5305280000000  0.4167150000000  0.4986450000000 1.0
C      1  0.4338520000000  0.5325400000000  0.4936840000000 1.0
C      1  0.4923310000000  0.5381170000000  0.4740630000000 1.0
C      1  0.5096360000000  0.4736620000000  0.5727680000000 1.0
C      1  0.5428720000000  0.4511300000000  0.4701200000000 1.0
C      1  0.4585210000000  0.5017900000000  0.4602950000000 1.0
C      1  0.4740910000000  0.5621570000000  0.4847530000000 1.0
C      1  0.5050800000000  0.4314870000000  0.5354300000000 1.0
C      1  0.5308450000000  0.4554760000000  0.5690310000000 1.0
C      1  0.5607250000000  0.5194180000000  0.5373790000000 1.0
C      1  0.4723410000000  0.5286450000000  0.4250670000000 1.0
C      1  0.4632230000000  0.5651810000000  0.4563420000000 1.0
C      1  0.4573140000000  0.5507820000000  0.5313240000000 1.0
C      1  0.5342040000000  0.4791080000000  0.5164480000000 1.0
C      1  0.4837220000000  0.4584540000000  0.5718990000000 1.0
C      1  0.5292710000000  0.5611640000000  0.4704080000000 1.0
C      1  0.5685280000000  0.5419670000000  0.4938370000000 1.0
C      1  0.5102290000000  0.5715590000000  0.4913630000000 1.0
C      1  0.4396310000000  0.5500650000000  0.4528460000000 1.0
C      1  0.5297040000000  0.5235350000000  0.4373130000000 1.0
C      1  0.5230890000000  0.5310730000000  0.5050400000000 1.0
C      1  0.5083660000000  0.4732340000000  0.5012000000000 1.0
C      1  0.4489980000000  0.5252530000000  0.4427150000000 1.0
C      1  0.5498920000000  0.4540930000000  0.5232950000000 1.0
C      1  0.4761720000000  0.5164250000000  0.5141250000000 1.0
C      1  0.5816200000000  0.4912510000000  0.5030480000000 1.0
C      1  0.4435920000000  0.4944810000000  0.5187250000000 1.0
C      1  0.5163850000000  0.5491590000000  0.4451900000000 1.0
C      1  0.4842390000000  0.4569670000000  0.4499100000000 1.0
C      1  0.5246670000000  0.4748420000000  0.4303180000000 1.0
C      1  0.4719560000000  0.5418500000000  0.5542650000000 1.0
C      1  0.5178200000000  0.5219260000000  0.5618350000000 1.0
C      1  0.5135570000000  0.4521310000000  0.4437980000000 1.0
C      1  0.5457230000000  0.5241340000000  0.5605660000000 1.0
C      1  0.4865910000000  0.5023070000000  0.4238080000000 1.0
C      1  0.4802230000000  0.4472160000000  0.5435150000000 1.0
C      1  0.4847980000000  0.5523670000000  0.4380630000000 1.0
C      1  0.4706890000000  0.4447520000000  0.4734410000000 1.0
C      1  0.4811010000000  0.4694420000000  0.5229150000000 1.0
END
