TITL C-951343-2256-58 5.45676802188816e-07 125000 -900.648112600462 0 0 146 (C1) n - 1
REM
REM in /home/bkarasulu/work/CARBON/AIRSS/Generating-Clusters/EDIP-Nigel-Params/with-SteepDescent/Only-C1/SD-CG/HFTN-CG
REM
REM
REM
REM
REM
REM ./C.cell (11c1c37f851c82e70ff6c80c92926a4b)
REM
REM compiler GCC version 9.2.1 20190827 (Red Hat 9.2.1-1)
REM options -cpp -mtune=generic -march=x86-64 -g -O0 -fpre-include=/usr/include/finclude/math-vector-fortran.h
REM seed 302835922 1432387845 -1060359492 522318593 -901184089 -967123622 767123771 -2118292049 682527478 -1249044193 762534644 120639634 2013886916 1124369055 -1047981800 1835277886 -225671669 520513444 -2017956017 -676080320 1760991105 429191394 -200657496 -1892491550 -1379582667 -786470858 -1527895553 15092413 64601780 1213753193 1496298205 -1626051768 -1641336300
REM
CELL 1.54180   50.00000   50.00000   50.00000   90.00000   90.00000   90.00000
LATT -1
SFAC C  
C      1  0.5761860000000  0.4947310000000  0.4199500000000 1.0
C      1  0.4291740000000  0.4369180000000  0.4774100000000 1.0
C      1  0.5756920000000  0.4634030000000  0.4546130000000 1.0
C      1  0.4353100000000  0.4481960000000  0.4507310000000 1.0
C      1  0.5245460000000  0.4610180000000  0.5291070000000 1.0
C      1  0.4976550000000  0.5744390000000  0.4391790000000 1.0
C      1  0.4570310000000  0.4325610000000  0.4394210000000 1.0
C      1  0.6013360000000  0.4773230000000  0.4428650000000 1.0
C      1  0.5381550000000  0.4630210000000  0.5952920000000 1.0
C      1  0.5669070000000  0.4343060000000  0.4529410000000 1.0
C      1  0.3915080000000  0.5340110000000  0.5083430000000 1.0
C      1  0.4099920000000  0.4938540000000  0.5519910000000 1.0
C      1  0.4427380000000  0.4859530000000  0.6023430000000 1.0
C      1  0.5045940000000  0.4976270000000  0.5992760000000 1.0
C      1  0.4507050000000  0.4187170000000  0.4862950000000 1.0
C      1  0.4546780000000  0.4233980000000  0.5644640000000 1.0
C      1  0.4262230000000  0.5692330000000  0.5238100000000 1.0
C      1  0.5817390000000  0.5057770000000  0.5609080000000 1.0
C      1  0.5105760000000  0.4706430000000  0.5928810000000 1.0
C      1  0.5586760000000  0.4763780000000  0.4842570000000 1.0
C      1  0.5228490000000  0.5663020000000  0.5066690000000 1.0
C      1  0.5458330000000  0.5609550000000  0.4179560000000 1.0
C      1  0.5085150000000  0.4574110000000  0.4757760000000 1.0
C      1  0.4723450000000  0.5790790000000  0.4536820000000 1.0
C      1  0.4320870000000  0.4678440000000  0.5854880000000 1.0
C      1  0.4509480000000  0.5567300000000  0.4523820000000 1.0
C      1  0.4925400000000  0.5255290000000  0.5419380000000 1.0
C      1  0.5942970000000  0.4651060000000  0.4943540000000 1.0
C      1  0.5278690000000  0.6072880000000  0.5313650000000 1.0
C      1  0.4737860000000  0.4665070000000  0.5452200000000 1.0
C      1  0.4463960000000  0.4999810000000  0.4053480000000 1.0
C      1  0.5581250000000  0.4821830000000  0.5972320000000 1.0
C      1  0.5818280000000  0.5340700000000  0.4736030000000 1.0
C      1  0.5385340000000  0.5032560000000  0.5530360000000 1.0
C      1  0.4590470000000  0.5365130000000  0.4747950000000 1.0
C      1  0.4679800000000  0.5161470000000  0.3910140000000 1.0
C      1  0.4338210000000  0.5165180000000  0.4291040000000 1.0
C      1  0.4538000000000  0.4126920000000  0.5160120000000 1.0
C      1  0.4416470000000  0.6022820000000  0.4954320000000 1.0
C      1  0.5499540000000  0.4993110000000  0.4623180000000 1.0
C      1  0.4813130000000  0.5765780000000  0.4831080000000 1.0
C      1  0.5002650000000  0.4073890000000  0.4557670000000 1.0
C      1  0.4912090000000  0.4361620000000  0.4872170000000 1.0
C      1  0.5398210000000  0.4257920000000  0.4941710000000 1.0
C      1  0.4957270000000  0.5455970000000  0.5872890000000 1.0
C      1  0.4356050000000  0.4729420000000  0.5114360000000 1.0
C      1  0.5900230000000  0.5080960000000  0.5085290000000 1.0
C      1  0.5020650000000  0.4746410000000  0.5499140000000 1.0
C      1  0.5692920000000  0.4365510000000  0.5269620000000 1.0
C      1  0.4344170000000  0.5209600000000  0.4809370000000 1.0
C      1  0.5457350000000  0.5759670000000  0.4642160000000 1.0
C      1  0.5099600000000  0.5909410000000  0.5175160000000 1.0
C      1  0.4186290000000  0.4560300000000  0.4949580000000 1.0
C      1  0.5876210000000  0.4823700000000  0.5170420000000 1.0
C      1  0.4950670000000  0.4830000000000  0.4705050000000 1.0
C      1  0.4977660000000  0.5551710000000  0.4156860000000 1.0
C      1  0.4896840000000  0.5104820000000  0.4297390000000 1.0
C      1  0.5191180000000  0.5006310000000  0.4639720000000 1.0
C      1  0.5503530000000  0.5525240000000  0.5713540000000 1.0
C      1  0.4607200000000  0.6025280000000  0.5169030000000 1.0
C      1  0.5177040000000  0.4279140000000  0.5691720000000 1.0
C      1  0.6087980000000  0.4891490000000  0.4679740000000 1.0
C      1  0.4727610000000  0.5691880000000  0.5571290000000 1.0
C      1  0.5740100000000  0.5573900000000  0.5542840000000 1.0
C      1  0.5722690000000  0.4563970000000  0.5496750000000 1.0
C      1  0.5663840000000  0.5064390000000  0.5864260000000 1.0
C      1  0.3911510000000  0.5063570000000  0.5016750000000 1.0
C      1  0.4344050000000  0.5109430000000  0.5102180000000 1.0
C      1  0.5419590000000  0.4410900000000  0.5776640000000 1.0
C      1  0.5439970000000  0.5264510000000  0.5835890000000 1.0
C      1  0.5403440000000  0.4368800000000  0.4394120000000 1.0
C      1  0.5865820000000  0.5321600000000  0.5459080000000 1.0
C      1  0.5438460000000  0.5887330000000  0.5454380000000 1.0
C      1  0.5424330000000  0.5204930000000  0.5269670000000 1.0
C      1  0.5727540000000  0.5286750000000  0.5200560000000 1.0
C      1  0.4590170000000  0.4735730000000  0.4100580000000 1.0
C      1  0.4753060000000  0.5337520000000  0.4147760000000 1.0
C      1  0.5179530000000  0.4192730000000  0.5405260000000 1.0
C      1  0.3979350000000  0.4964510000000  0.4732480000000 1.0
C      1  0.4429280000000  0.4281940000000  0.5392940000000 1.0
C      1  0.5450060000000  0.4698550000000  0.5524140000000 1.0
C      1  0.4499070000000  0.5261620000000  0.5767850000000 1.0
C      1  0.5028020000000  0.5344690000000  0.4746870000000 1.0
C      1  0.4589980000000  0.4939510000000  0.5426630000000 1.0
C      1  0.5081830000000  0.5032770000000  0.5557860000000 1.0
C      1  0.5848720000000  0.4370490000000  0.5008120000000 1.0
C      1  0.4411500000000  0.4780320000000  0.4500320000000 1.0
C      1  0.5086470000000  0.5229270000000  0.4490240000000 1.0
C      1  0.5580640000000  0.5091380000000  0.4037280000000 1.0
C      1  0.5074770000000  0.5620950000000  0.4807760000000 1.0
C      1  0.4068640000000  0.5451290000000  0.5292970000000 1.0
C      1  0.4685880000000  0.4479980000000  0.5695660000000 1.0
C      1  0.5287100000000  0.5648300000000  0.5559610000000 1.0
C      1  0.4697410000000  0.4158820000000  0.4610880000000 1.0
C      1  0.3991220000000  0.4920330000000  0.5252430000000 1.0
C      1  0.4992630000000  0.4452130000000  0.4186040000000 1.0
C      1  0.5723470000000  0.5486820000000  0.4977800000000 1.0
C      1  0.4079830000000  0.5199960000000  0.4449550000000 1.0
C      1  0.5886500000000  0.4800250000000  0.5455560000000 1.0
C      1  0.5899390000000  0.5073460000000  0.4804620000000 1.0
C      1  0.4896280000000  0.4999080000000  0.3827220000000 1.0
C      1  0.5070190000000  0.4982830000000  0.4061320000000 1.0
C      1  0.5666400000000  0.5765920000000  0.5319910000000 1.0
C      1  0.4753080000000  0.5397800000000  0.5653900000000 1.0
C      1  0.5054530000000  0.5711050000000  0.5738740000000 1.0
C      1  0.5400020000000  0.4619540000000  0.4249920000000 1.0
C      1  0.4274140000000  0.4912710000000  0.4719410000000 1.0
C      1  0.5338730000000  0.4567530000000  0.4927430000000 1.0
C      1  0.5049930000000  0.3892490000000  0.5033450000000 1.0
C      1  0.5574950000000  0.4812310000000  0.4382920000000 1.0
C      1  0.4651390000000  0.4699180000000  0.5024490000000 1.0
C      1  0.5207040000000  0.5863880000000  0.4534720000000 1.0
C      1  0.4725070000000  0.3923850000000  0.5241750000000 1.0
C      1  0.4337130000000  0.5317050000000  0.5322370000000 1.0
C      1  0.4718610000000  0.5118900000000  0.5219210000000 1.0
C      1  0.4356580000000  0.5735190000000  0.4940330000000 1.0
C      1  0.4534800000000  0.5805700000000  0.5370560000000 1.0
C      1  0.4962160000000  0.4457910000000  0.5823300000000 1.0
C      1  0.4865730000000  0.5995080000000  0.5024950000000 1.0
C      1  0.5122340000000  0.4111160000000  0.4851470000000 1.0
C      1  0.5248510000000  0.5457480000000  0.4075200000000 1.0
C      1  0.4363440000000  0.5108890000000  0.5548500000000 1.0
C      1  0.5332150000000  0.5049330000000  0.5052290000000 1.0
C      1  0.5153100000000  0.5236640000000  0.5944700000000 1.0
C      1  0.4733150000000  0.4857590000000  0.4444040000000 1.0
C      1  0.5010570000000  0.3964360000000  0.5312390000000 1.0
C      1  0.5525380000000  0.5718790000000  0.4963880000000 1.0
C      1  0.5211540000000  0.5449620000000  0.5311060000000 1.0
C      1  0.4844800000000  0.4927510000000  0.5000800000000 1.0
C      1  0.4494990000000  0.5409810000000  0.4274770000000 1.0
C      1  0.5433060000000  0.4213440000000  0.5240850000000 1.0
C      1  0.4799020000000  0.4479700000000  0.5129350000000 1.0
C      1  0.5121040000000  0.4882640000000  0.5143880000000 1.0
C      1  0.4319160000000  0.4556040000000  0.5371750000000 1.0
C      1  0.4105000000000  0.5384750000000  0.4690430000000 1.0
C      1  0.4620010000000  0.5577830000000  0.4953690000000 1.0
C      1  0.5573910000000  0.5592010000000  0.4433460000000 1.0
C      1  0.4186210000000  0.4674610000000  0.5607660000000 1.0
C      1  0.4712360000000  0.4493540000000  0.4208330000000 1.0
C      1  0.5138700000000  0.4242930000000  0.4345830000000 1.0
C      1  0.5150900000000  0.4692000000000  0.4130920000000 1.0
C      1  0.5647890000000  0.5332220000000  0.4516810000000 1.0
C      1  0.4510570000000  0.5113050000000  0.6000790000000 1.0
C      1  0.5670940000000  0.4222960000000  0.4804220000000 1.0
C      1  0.4236940000000  0.5649700000000  0.4652760000000 1.0
C      1  0.5308950000000  0.5171870000000  0.4026970000000 1.0
END
