TITL C-950521-2237-410 9.61337656096824e-07 125000 -491.052659256101 0 0 80 (C1) n - 1
REM
REM in /home/bkarasulu/work/CARBON/AIRSS/Generating-Clusters/EDIP-Nigel-Params/with-SteepDescent/Only-C1/SD-CG/HFTN-CG
REM
REM
REM
REM
REM
REM ./C.cell (11c1c37f851c82e70ff6c80c92926a4b)
REM
REM compiler GCC version 9.2.1 20190827 (Red Hat 9.2.1-1)
REM options -cpp -mtune=generic -march=x86-64 -g -O0 -fpre-include=/usr/include/finclude/math-vector-fortran.h
REM seed -194979815 1536059101 -2106836926 2056695948 1507699921 1482286497 -405684869 -1000524193 1112897653 996800765 -1051305251 -1618235710 1762624611 -1810958151 -1787529303 1173638349 1502700549 449034665 701436901 2073145837 -840330917 6753232 -1547096285 1084240411 1086049361 942184604 2030781053 -1674894067 1713195372 -366985745 423283554 -466534600 1507229468
REM
CELL 1.54180   50.00000   50.00000   50.00000   90.00000   90.00000   90.00000
LATT -1
SFAC C  
C      1  0.5384850000000  0.4276000000000  0.4650210000000 1.0
C      1  0.5071910000000  0.4724570000000  0.5105610000000 1.0
C      1  0.4843350000000  0.4905600000000  0.5802700000000 1.0
C      1  0.5596130000000  0.5445350000000  0.5171990000000 1.0
C      1  0.4584420000000  0.5161070000000  0.4600000000000 1.0
C      1  0.5090570000000  0.4884150000000  0.4146410000000 1.0
C      1  0.5069000000000  0.5086660000000  0.5875900000000 1.0
C      1  0.4630410000000  0.4747750000000  0.5391680000000 1.0
C      1  0.5598180000000  0.5225920000000  0.5367720000000 1.0
C      1  0.4845450000000  0.4706070000000  0.4380030000000 1.0
C      1  0.5664810000000  0.4872790000000  0.5022970000000 1.0
C      1  0.5464720000000  0.5269130000000  0.5623490000000 1.0
C      1  0.5092600000000  0.5329050000000  0.5581930000000 1.0
C      1  0.5395050000000  0.4771690000000  0.5687890000000 1.0
C      1  0.4361460000000  0.5107340000000  0.5511080000000 1.0
C      1  0.4727380000000  0.4997960000000  0.5537480000000 1.0
C      1  0.4446550000000  0.5107910000000  0.5073530000000 1.0
C      1  0.5578250000000  0.4753440000000  0.5462110000000 1.0
C      1  0.4795970000000  0.5076880000000  0.4771130000000 1.0
C      1  0.4935750000000  0.5107850000000  0.4242210000000 1.0
C      1  0.5468640000000  0.5391380000000  0.4885880000000 1.0
C      1  0.4820920000000  0.4299600000000  0.5302740000000 1.0
C      1  0.4732790000000  0.5045480000000  0.5053340000000 1.0
C      1  0.5524040000000  0.4505150000000  0.5299880000000 1.0
C      1  0.4631760000000  0.4498960000000  0.4394170000000 1.0
C      1  0.5406550000000  0.5186390000000  0.4394530000000 1.0
C      1  0.4311470000000  0.5494470000000  0.4903280000000 1.0
C      1  0.5049670000000  0.5179060000000  0.4712070000000 1.0
C      1  0.4970890000000  0.5947040000000  0.4916020000000 1.0
C      1  0.4170200000000  0.4809120000000  0.5174040000000 1.0
C      1  0.4336670000000  0.4628210000000  0.4783820000000 1.0
C      1  0.4493730000000  0.4503190000000  0.4986200000000 1.0
C      1  0.5508940000000  0.4969900000000  0.5261030000000 1.0
C      1  0.5056980000000  0.5480590000000  0.5042160000000 1.0
C      1  0.5632790000000  0.4581230000000  0.5034640000000 1.0
C      1  0.5064190000000  0.5629270000000  0.5565050000000 1.0
C      1  0.5130720000000  0.4682420000000  0.4828300000000 1.0
C      1  0.5054100000000  0.5542280000000  0.4386090000000 1.0
C      1  0.5351810000000  0.5047450000000  0.5792730000000 1.0
C      1  0.5380500000000  0.5672810000000  0.4770110000000 1.0
C      1  0.5062440000000  0.5659230000000  0.4808090000000 1.0
C      1  0.4828180000000  0.5702870000000  0.5414260000000 1.0
C      1  0.5629430000000  0.4443980000000  0.4761050000000 1.0
C      1  0.5197930000000  0.5237480000000  0.4956130000000 1.0
C      1  0.4813000000000  0.5534890000000  0.5183480000000 1.0
C      1  0.4867650000000  0.4244720000000  0.4784510000000 1.0
C      1  0.4668850000000  0.5045500000000  0.4346070000000 1.0
C      1  0.5057030000000  0.4583700000000  0.4569500000000 1.0
C      1  0.4518550000000  0.5699980000000  0.4836720000000 1.0
C      1  0.4340140000000  0.5197440000000  0.4785600000000 1.0
C      1  0.4718130000000  0.5800450000000  0.5053080000000 1.0
C      1  0.4915120000000  0.4617600000000  0.5721980000000 1.0
C      1  0.4741160000000  0.4279000000000  0.4531360000000 1.0
C      1  0.5206240000000  0.4087480000000  0.5093320000000 1.0
C      1  0.5509680000000  0.5675430000000  0.5309960000000 1.0
C      1  0.4716840000000  0.4494600000000  0.5525210000000 1.0
C      1  0.4837060000000  0.5691240000000  0.4431970000000 1.0
C      1  0.4382290000000  0.5294310000000  0.5291050000000 1.0
C      1  0.5217570000000  0.4505780000000  0.5321280000000 1.0
C      1  0.5610400000000  0.4925100000000  0.4747850000000 1.0
C      1  0.5168920000000  0.4627470000000  0.5584750000000 1.0
C      1  0.5667260000000  0.4687210000000  0.4583420000000 1.0
C      1  0.4715510000000  0.4326900000000  0.5022660000000 1.0
C      1  0.4613790000000  0.5714680000000  0.4575770000000 1.0
C      1  0.5573150000000  0.5196740000000  0.4653190000000 1.0
C      1  0.4191190000000  0.4856100000000  0.4890570000000 1.0
C      1  0.4228710000000  0.5501160000000  0.5177650000000 1.0
C      1  0.5108060000000  0.4229450000000  0.5313660000000 1.0
C      1  0.4758120000000  0.4755760000000  0.5118870000000 1.0
C      1  0.4400040000000  0.4591900000000  0.4515940000000 1.0
C      1  0.5112240000000  0.5265270000000  0.4431880000000 1.0
C      1  0.5282120000000  0.5937850000000  0.4896160000000 1.0
C      1  0.5492390000000  0.4657990000000  0.4343930000000 1.0
C      1  0.5365010000000  0.4917280000000  0.4247790000000 1.0
C      1  0.5281660000000  0.4445410000000  0.4420790000000 1.0
C      1  0.4947780000000  0.5157980000000  0.5365300000000 1.0
C      1  0.5303140000000  0.5744930000000  0.5470940000000 1.0
C      1  0.4337720000000  0.4832130000000  0.5404790000000 1.0
C      1  0.5155400000000  0.4174050000000  0.4832010000000 1.0
C      1  0.5185940000000  0.5007810000000  0.5185300000000 1.0
END
