TITL C-950522-5749-269 1.23634538567563e-06 125000 -277.930321907344 0 0 46 (C1) n - 1
REM
REM in /home/bkarasulu/work/CARBON/AIRSS/Generating-Clusters/EDIP-Nigel-Params/with-SteepDescent/Only-C1/SD-CG/HFTN-CG
REM
REM
REM
REM
REM
REM ./C.cell (11c1c37f851c82e70ff6c80c92926a4b)
REM
REM compiler GCC version 9.2.1 20190827 (Red Hat 9.2.1-1)
REM options -cpp -mtune=generic -march=x86-64 -g -O0 -fpre-include=/usr/include/finclude/math-vector-fortran.h
REM seed 1265006989 -396251147 -272099066 1000343878 -1800422123 2070468357 1509135561 -743187628 -1710336509 1727153729 1270565730 663531991 2006199877 979656522 292428811 -1138493299 363757135 636185186 776521112 -7118800 -840684177 -1810856319 -487076349 -379653001 -1287594219 2048838535 -1721420102 1810621134 -104586036 -584112638 -98612430 1014060747 291693743
REM
CELL 1.54180   50.00000   50.00000   50.00000   90.00000   90.00000   90.00000
LATT -1
SFAC C  
C      1  0.4694500000000  0.4621960000000  0.4314980000000 1.0
C      1  0.4557080000000  0.5234030000000  0.5373660000000 1.0
C      1  0.5163750000000  0.4733240000000  0.5574730000000 1.0
C      1  0.5604740000000  0.5260210000000  0.4864150000000 1.0
C      1  0.5495700000000  0.4766560000000  0.5282770000000 1.0
C      1  0.4529090000000  0.5357290000000  0.4921610000000 1.0
C      1  0.4819690000000  0.5713750000000  0.5088990000000 1.0
C      1  0.5423370000000  0.5076140000000  0.4440820000000 1.0
C      1  0.4816600000000  0.4482610000000  0.4511780000000 1.0
C      1  0.5147910000000  0.5030000000000  0.5638430000000 1.0
C      1  0.4957200000000  0.4943660000000  0.5201850000000 1.0
C      1  0.5639570000000  0.5194350000000  0.5131410000000 1.0
C      1  0.5398010000000  0.5042680000000  0.5192270000000 1.0
C      1  0.5150350000000  0.4482860000000  0.5130980000000 1.0
C      1  0.4870120000000  0.5138500000000  0.5673710000000 1.0
C      1  0.4742370000000  0.4895960000000  0.4375230000000 1.0
C      1  0.4991350000000  0.5343340000000  0.4680020000000 1.0
C      1  0.4582690000000  0.5613390000000  0.5015980000000 1.0
C      1  0.4521810000000  0.4881820000000  0.4995760000000 1.0
C      1  0.4714810000000  0.4563470000000  0.5371840000000 1.0
C      1  0.5194930000000  0.5031080000000  0.4918800000000 1.0
C      1  0.4505310000000  0.4636650000000  0.5170750000000 1.0
C      1  0.5172130000000  0.5466270000000  0.4875420000000 1.0
C      1  0.5099880000000  0.5274190000000  0.4424200000000 1.0
C      1  0.5555530000000  0.5034670000000  0.4692680000000 1.0
C      1  0.4445460000000  0.5158730000000  0.5119810000000 1.0
C      1  0.5233170000000  0.4855630000000  0.4404520000000 1.0
C      1  0.4401820000000  0.4864500000000  0.4725960000000 1.0
C      1  0.4734490000000  0.5206840000000  0.4758470000000 1.0
C      1  0.5447430000000  0.5485920000000  0.4820110000000 1.0
C      1  0.4726350000000  0.5008340000000  0.5443350000000 1.0
C      1  0.5050180000000  0.5395070000000  0.5356740000000 1.0
C      1  0.5016230000000  0.4359310000000  0.4920550000000 1.0
C      1  0.5251390000000  0.5191900000000  0.5411860000000 1.0
C      1  0.4573950000000  0.4766500000000  0.5526090000000 1.0
C      1  0.5444970000000  0.4691210000000  0.4808070000000 1.0
C      1  0.4845250000000  0.5418330000000  0.5559780000000 1.0
C      1  0.5180320000000  0.4770210000000  0.4696380000000 1.0
C      1  0.4825280000000  0.4922450000000  0.4921350000000 1.0
C      1  0.5060250000000  0.5576060000000  0.5127720000000 1.0
C      1  0.4576290000000  0.5031580000000  0.4570690000000 1.0
C      1  0.5001050000000  0.4663430000000  0.5321080000000 1.0
C      1  0.5435090000000  0.4668990000000  0.5541360000000 1.0
C      1  0.5424790000000  0.4574910000000  0.5073750000000 1.0
C      1  0.4971400000000  0.4554190000000  0.4730310000000 1.0
C      1  0.5006320000000  0.5017200000000  0.4299200000000 1.0
END
