TITL C-950524-1808-273 1.10809736538337e-06 125000 -722.646750950279 0 0 116 (C1) n - 1
REM
REM in /home/bkarasulu/work/CARBON/AIRSS/Generating-Clusters/EDIP-Nigel-Params/with-SteepDescent/Only-C1/SD-CG/HFTN-CG
REM
REM
REM
REM
REM
REM ./C.cell (11c1c37f851c82e70ff6c80c92926a4b)
REM
REM compiler GCC version 9.2.1 20190827 (Red Hat 9.2.1-1)
REM options -cpp -mtune=generic -march=x86-64 -g -O0 -fpre-include=/usr/include/finclude/math-vector-fortran.h
REM seed 1921233503 -554564676 -1226376224 -1620354591 1294869167 -1916079946 -462923276 1778408550 -1485293600 -1029871750 -1695110851 -1819037488 -173016499 -1508405516 1839786473 -503148286 413525612 306673718 -1270814966 1166066716 777728168 -630961922 -950301617 -343868913 -441776936 -634490055 838971881 -660958489 -1732571153 819555483 847368517 -1420119865 286438924
REM
CELL 1.54180   50.00000   50.00000   50.00000   90.00000   90.00000   90.00000
LATT -1
SFAC C  
C      1  0.5186770000000  0.4102180000000  0.5374090000000 1.0
C      1  0.4940160000000  0.5873060000000  0.5336260000000 1.0
C      1  0.4612960000000  0.4805010000000  0.5150900000000 1.0
C      1  0.5935420000000  0.4877730000000  0.4917220000000 1.0
C      1  0.5344340000000  0.4838630000000  0.4535050000000 1.0
C      1  0.5331410000000  0.4641890000000  0.5776810000000 1.0
C      1  0.4831640000000  0.4514930000000  0.5709790000000 1.0
C      1  0.5424700000000  0.5771530000000  0.4732900000000 1.0
C      1  0.4716120000000  0.5444010000000  0.4547570000000 1.0
C      1  0.4273300000000  0.4962670000000  0.4312810000000 1.0
C      1  0.4460080000000  0.4155020000000  0.5161000000000 1.0
C      1  0.4525080000000  0.5859760000000  0.4674560000000 1.0
C      1  0.4588360000000  0.4538910000000  0.4439230000000 1.0
C      1  0.4991310000000  0.5067810000000  0.4214150000000 1.0
C      1  0.5320200000000  0.4900710000000  0.5896810000000 1.0
C      1  0.5181460000000  0.4207340000000  0.5628520000000 1.0
C      1  0.4307120000000  0.4499870000000  0.4525790000000 1.0
C      1  0.5205130000000  0.5805740000000  0.5436510000000 1.0
C      1  0.4728770000000  0.5735360000000  0.4494810000000 1.0
C      1  0.4033470000000  0.5092500000000  0.4869820000000 1.0
C      1  0.5723080000000  0.5549460000000  0.5462780000000 1.0
C      1  0.5828430000000  0.4685240000000  0.4475370000000 1.0
C      1  0.4404610000000  0.4832670000000  0.5642540000000 1.0
C      1  0.4282240000000  0.4331760000000  0.4746570000000 1.0
C      1  0.4906170000000  0.4772200000000  0.4749710000000 1.0
C      1  0.5415370000000  0.5833430000000  0.5230820000000 1.0
C      1  0.4316100000000  0.5274810000000  0.4347420000000 1.0
C      1  0.4803150000000  0.4772740000000  0.5425700000000 1.0
C      1  0.5200060000000  0.4024930000000  0.4819710000000 1.0
C      1  0.5417100000000  0.4798220000000  0.4153130000000 1.0
C      1  0.4430620000000  0.5295060000000  0.5119010000000 1.0
C      1  0.4719880000000  0.5080880000000  0.5832470000000 1.0
C      1  0.5906410000000  0.4590890000000  0.4959430000000 1.0
C      1  0.4828960000000  0.4645700000000  0.5001890000000 1.0
C      1  0.4665960000000  0.5074900000000  0.5037240000000 1.0
C      1  0.4741580000000  0.4195490000000  0.4782350000000 1.0
C      1  0.4615130000000  0.5877320000000  0.4962800000000 1.0
C      1  0.5074770000000  0.5342460000000  0.4251210000000 1.0
C      1  0.5367150000000  0.5343620000000  0.5151880000000 1.0
C      1  0.5739680000000  0.4920830000000  0.5382730000000 1.0
C      1  0.4151650000000  0.4836480000000  0.4853220000000 1.0
C      1  0.4254430000000  0.5713040000000  0.4669970000000 1.0
C      1  0.5713570000000  0.4640020000000  0.5421240000000 1.0
C      1  0.5505080000000  0.4905050000000  0.5010970000000 1.0
C      1  0.5847170000000  0.5032230000000  0.5143870000000 1.0
C      1  0.4949750000000  0.4573150000000  0.4150860000000 1.0
C      1  0.4407800000000  0.4596870000000  0.5484780000000 1.0
C      1  0.4976850000000  0.5131070000000  0.4998460000000 1.0
C      1  0.5336210000000  0.5095990000000  0.5362540000000 1.0
C      1  0.5501420000000  0.5233700000000  0.4417250000000 1.0
C      1  0.5114260000000  0.4624650000000  0.4607070000000 1.0
C      1  0.4900860000000  0.5616130000000  0.5728400000000 1.0
C      1  0.5816490000000  0.4464250000000  0.4707130000000 1.0
C      1  0.4249850000000  0.5591810000000  0.4943600000000 1.0
C      1  0.4846860000000  0.5032980000000  0.5560610000000 1.0
C      1  0.4617200000000  0.4398420000000  0.5546190000000 1.0
C      1  0.5366860000000  0.5423120000000  0.5790220000000 1.0
C      1  0.5318550000000  0.5468280000000  0.4336110000000 1.0
C      1  0.4997680000000  0.5819760000000  0.4498940000000 1.0
C      1  0.5180060000000  0.4925810000000  0.5128560000000 1.0
C      1  0.4352430000000  0.5067250000000  0.5492200000000 1.0
C      1  0.5565950000000  0.4563980000000  0.5645670000000 1.0
C      1  0.4631370000000  0.4601800000000  0.4149130000000 1.0
C      1  0.5118710000000  0.5126550000000  0.5570550000000 1.0
C      1  0.5044390000000  0.5610020000000  0.4884540000000 1.0
C      1  0.5781600000000  0.5219010000000  0.4552100000000 1.0
C      1  0.5643050000000  0.4685060000000  0.4265830000000 1.0
C      1  0.4401100000000  0.5362960000000  0.5551910000000 1.0
C      1  0.5647860000000  0.5079740000000  0.5595490000000 1.0
C      1  0.5516580000000  0.4696580000000  0.4779320000000 1.0
C      1  0.4428060000000  0.5729900000000  0.5135060000000 1.0
C      1  0.5749470000000  0.4485030000000  0.5180740000000 1.0
C      1  0.4678370000000  0.4860600000000  0.4577010000000 1.0
C      1  0.5590450000000  0.5357370000000  0.5614440000000 1.0
C      1  0.5083900000000  0.5392770000000  0.5073300000000 1.0
C      1  0.5110350000000  0.4447730000000  0.5746480000000 1.0
C      1  0.5033380000000  0.4686860000000  0.5225750000000 1.0
C      1  0.4520570000000  0.5607180000000  0.5394560000000 1.0
C      1  0.5291220000000  0.5898290000000  0.4965810000000 1.0
C      1  0.4715930000000  0.5030530000000  0.4301760000000 1.0
C      1  0.5377080000000  0.4219590000000  0.4723690000000 1.0
C      1  0.5126080000000  0.4819170000000  0.4153200000000 1.0
C      1  0.4948250000000  0.4058290000000  0.4937810000000 1.0
C      1  0.5482550000000  0.5198560000000  0.4898500000000 1.0
C      1  0.4240990000000  0.4780080000000  0.4569830000000 1.0
C      1  0.5189360000000  0.5649480000000  0.5693770000000 1.0
C      1  0.4940170000000  0.4120920000000  0.5223450000000 1.0
C      1  0.4773080000000  0.5453910000000  0.5939090000000 1.0
C      1  0.5433810000000  0.4097440000000  0.5244910000000 1.0
C      1  0.4674250000000  0.4194050000000  0.5337190000000 1.0
C      1  0.4951790000000  0.5205260000000  0.6008540000000 1.0
C      1  0.5296680000000  0.4487320000000  0.4800400000000 1.0
C      1  0.4526310000000  0.4878680000000  0.4118700000000 1.0
C      1  0.4136780000000  0.5198500000000  0.5107840000000 1.0
C      1  0.5659240000000  0.4201710000000  0.4810770000000 1.0
C      1  0.4765400000000  0.4298780000000  0.4507270000000 1.0
C      1  0.4492060000000  0.5355630000000  0.4743720000000 1.0
C      1  0.4748230000000  0.5743060000000  0.5515620000000 1.0
C      1  0.5305620000000  0.5147610000000  0.4642010000000 1.0
C      1  0.5563570000000  0.5580040000000  0.5232130000000 1.0
C      1  0.5858760000000  0.4936470000000  0.4634150000000 1.0
C      1  0.5203090000000  0.5165780000000  0.5847970000000 1.0
C      1  0.5654160000000  0.4215930000000  0.5114070000000 1.0
C      1  0.4286980000000  0.4741250000000  0.5150960000000 1.0
C      1  0.4474170000000  0.4189650000000  0.4886970000000 1.0
C      1  0.4171740000000  0.4983040000000  0.5291640000000 1.0
C      1  0.5660530000000  0.5627160000000  0.4766450000000 1.0
C      1  0.4529300000000  0.5047090000000  0.4769870000000 1.0
C      1  0.5254170000000  0.5701200000000  0.4511310000000 1.0
C      1  0.4911480000000  0.5874440000000  0.5032910000000 1.0
C      1  0.5017830000000  0.5352580000000  0.4638200000000 1.0
C      1  0.5016410000000  0.4417520000000  0.4399230000000 1.0
C      1  0.4509860000000  0.5318720000000  0.5824390000000 1.0
C      1  0.5725700000000  0.5357610000000  0.4805070000000 1.0
C      1  0.4207570000000  0.5513310000000  0.4469530000000 1.0
C      1  0.4605390000000  0.5300900000000  0.4317830000000 1.0
END
