TITL C-950526-5686-310 3.47616275370251e-05 125000 -84.4412584964567 0 0 16 (C1) n - 1
REM
REM in /home/bkarasulu/work/CARBON/AIRSS/Generating-Clusters/EDIP-Nigel-Params/with-SteepDescent/Only-C1/SD-CG/HFTN-CG
REM
REM
REM
REM
REM
REM ./C.cell (11c1c37f851c82e70ff6c80c92926a4b)
REM
REM compiler GCC version 9.2.1 20190827 (Red Hat 9.2.1-1)
REM options -cpp -mtune=generic -march=x86-64 -g -O0 -fpre-include=/usr/include/finclude/math-vector-fortran.h
REM seed 563827186 -799175188 2020413076 354064162 -679639287 179282939 -1857189960 -1173006112 -1997744510 -1144894782 -1663426769 2077866730 881750797 -1104191844 -251600891 1380986029 1202499092 1614753359 979200853 2126340998 -92366350 2025104284 -1958804287 16400748 1935978047 -444040598 526042176 1637023841 -1821528356 1638263218 670203039 1911537215 10918981
REM
CELL 1.54180   50.00000   50.00000   50.00000   90.00000   90.00000   90.00000
LATT -1
SFAC C  
C      1  0.5198250000000  0.5022680000000  0.4969630000000 1.0
C      1  0.5455010000000  0.5225580000000  0.5176090000000 1.0
C      1  0.4936840000000  0.5270060000000  0.4835700000000 1.0
C      1  0.5372930000000  0.5271280000000  0.4897300000000 1.0
C      1  0.5134330000000  0.5550960000000  0.4559950000000 1.0
C      1  0.4762990000000  0.5093190000000  0.5008370000000 1.0
C      1  0.4943600000000  0.4278090000000  0.5474770000000 1.0
C      1  0.5236980000000  0.5510850000000  0.4823530000000 1.0
C      1  0.4827230000000  0.4316110000000  0.5222290000000 1.0
C      1  0.4819350000000  0.4797180000000  0.5009660000000 1.0
C      1  0.5292290000000  0.5007730000000  0.5247430000000 1.0
C      1  0.4598760000000  0.4922190000000  0.5200880000000 1.0
C      1  0.5077370000000  0.5354880000000  0.4372010000000 1.0
C      1  0.4802990000000  0.4522620000000  0.5460700000000 1.0
C      1  0.4651290000000  0.4599570000000  0.5193510000000 1.0
C      1  0.4889780000000  0.5257020000000  0.4548180000000 1.0
END
