TITL C-950523-3027-159 3.44780094182443e-06 125000 -423.842005193636 0 0 69 (C1) n - 1
REM
REM in /home/bkarasulu/work/CARBON/AIRSS/Generating-Clusters/EDIP-Nigel-Params/with-SteepDescent/Only-C1/SD-CG/HFTN-CG
REM
REM
REM
REM
REM
REM ./C.cell (11c1c37f851c82e70ff6c80c92926a4b)
REM
REM compiler GCC version 9.2.1 20190827 (Red Hat 9.2.1-1)
REM options -cpp -mtune=generic -march=x86-64 -g -O0 -fpre-include=/usr/include/finclude/math-vector-fortran.h
REM seed -606565782 1894849999 -747639621 473510585 368130781 990248082 1175001325 -1215788812 1041557803 -75565564 294501884 -1779787379 1314598616 634995320 -1209009517 -1291892599 -982756384 950476257 -2140558533 -636850610 -1072836237 -262860176 -1187698607 1861591113 -1277242473 -540580969 -1856771188 841426101 504192172 -1833993587 1378090373 188043693 -1700984383
REM
CELL 1.54180   50.00000   50.00000   50.00000   90.00000   90.00000   90.00000
LATT -1
SFAC C  
C      1  0.5063160000000  0.5698310000000  0.5262980000000 1.0
C      1  0.5754430000000  0.4921750000000  0.4821750000000 1.0
C      1  0.5158780000000  0.4420230000000  0.4499780000000 1.0
C      1  0.4569630000000  0.4580620000000  0.4383780000000 1.0
C      1  0.5092830000000  0.4470750000000  0.5330870000000 1.0
C      1  0.5452890000000  0.4579000000000  0.4909770000000 1.0
C      1  0.5161140000000  0.4909920000000  0.4661820000000 1.0
C      1  0.5094010000000  0.4296880000000  0.5089100000000 1.0
C      1  0.4926350000000  0.5029460000000  0.5176210000000 1.0
C      1  0.4453250000000  0.5274410000000  0.5380680000000 1.0
C      1  0.4866280000000  0.5149940000000  0.5471580000000 1.0
C      1  0.4809380000000  0.4577770000000  0.5425050000000 1.0
C      1  0.5167810000000  0.5398720000000  0.4329750000000 1.0
C      1  0.4606260000000  0.4944710000000  0.5682740000000 1.0
C      1  0.5322310000000  0.4307870000000  0.4898800000000 1.0
C      1  0.5242540000000  0.5377850000000  0.4792060000000 1.0
C      1  0.4423770000000  0.5316240000000  0.4809840000000 1.0
C      1  0.5691640000000  0.4909030000000  0.5102240000000 1.0
C      1  0.5472960000000  0.5108880000000  0.5182730000000 1.0
C      1  0.5610590000000  0.4681990000000  0.4431470000000 1.0
C      1  0.5219960000000  0.4922940000000  0.5165690000000 1.0
C      1  0.4597230000000  0.5508180000000  0.4971190000000 1.0
C      1  0.5316240000000  0.4680980000000  0.5350480000000 1.0
C      1  0.5458550000000  0.5343740000000  0.4997310000000 1.0
C      1  0.5042090000000  0.5359100000000  0.5856280000000 1.0
C      1  0.5023110000000  0.4788720000000  0.5871280000000 1.0
C      1  0.5233010000000  0.4778010000000  0.4907970000000 1.0
C      1  0.5368890000000  0.5060530000000  0.5642070000000 1.0
C      1  0.4768550000000  0.5284160000000  0.4629520000000 1.0
C      1  0.4823600000000  0.4730050000000  0.4314980000000 1.0
C      1  0.4830020000000  0.5577660000000  0.4555960000000 1.0
C      1  0.5302040000000  0.5750060000000  0.4862150000000 1.0
C      1  0.4641220000000  0.4661620000000  0.4909650000000 1.0
C      1  0.5573240000000  0.4634700000000  0.5181970000000 1.0
C      1  0.4385520000000  0.5034090000000  0.5229820000000 1.0
C      1  0.4484190000000  0.5066980000000  0.4369080000000 1.0
C      1  0.4421820000000  0.4812860000000  0.4793310000000 1.0
C      1  0.4663470000000  0.4387490000000  0.4833100000000 1.0
C      1  0.4391130000000  0.4806520000000  0.4493100000000 1.0
C      1  0.5080830000000  0.5114050000000  0.5706890000000 1.0
C      1  0.4364820000000  0.5058160000000  0.4941790000000 1.0
C      1  0.4351560000000  0.4782750000000  0.5357740000000 1.0
C      1  0.4604090000000  0.4358340000000  0.4561670000000 1.0
C      1  0.4532030000000  0.5213920000000  0.5646800000000 1.0
C      1  0.5369220000000  0.5310850000000  0.4528280000000 1.0
C      1  0.4821170000000  0.4759010000000  0.5666580000000 1.0
C      1  0.5256980000000  0.4641180000000  0.5839840000000 1.0
C      1  0.4405660000000  0.5309270000000  0.4511570000000 1.0
C      1  0.4634050000000  0.5461540000000  0.5255040000000 1.0
C      1  0.5335610000000  0.5687170000000  0.5338620000000 1.0
C      1  0.5512730000000  0.4900920000000  0.4295180000000 1.0
C      1  0.4503930000000  0.4548680000000  0.5393550000000 1.0
C      1  0.5001930000000  0.5159210000000  0.4817610000000 1.0
C      1  0.5664740000000  0.4676680000000  0.4713190000000 1.0
C      1  0.5060590000000  0.5648130000000  0.4408380000000 1.0
C      1  0.4735770000000  0.4774020000000  0.5171400000000 1.0
C      1  0.4898420000000  0.5515330000000  0.5681400000000 1.0
C      1  0.4848030000000  0.5581930000000  0.5412460000000 1.0
C      1  0.5462620000000  0.5629380000000  0.5084440000000 1.0
C      1  0.4794310000000  0.5673160000000  0.4831940000000 1.0
C      1  0.5265130000000  0.4216760000000  0.4640160000000 1.0
C      1  0.4971450000000  0.5206460000000  0.4263900000000 1.0
C      1  0.5041310000000  0.5719850000000  0.4978410000000 1.0
C      1  0.4848920000000  0.4231830000000  0.4969810000000 1.0
C      1  0.5429170000000  0.5014410000000  0.4549220000000 1.0
C      1  0.4765920000000  0.5015210000000  0.4292050000000 1.0
C      1  0.5391920000000  0.4769980000000  0.5628280000000 1.0
C      1  0.5509690000000  0.5200200000000  0.5449790000000 1.0
C      1  0.5053530000000  0.4678910000000  0.4486080000000 1.0
END
