TITL C-951333-8791-390 -4.14053976004566e-06 125000 -1228.26759207887 0 0 196 (C1) n - 1
REM
REM in /home/bkarasulu/work/CARBON/AIRSS/Generating-Clusters/EDIP-Nigel-Params/with-SteepDescent/Only-C1/SD-CG/HFTN-CG
REM
REM
REM
REM
REM
REM ./C.cell (11c1c37f851c82e70ff6c80c92926a4b)
REM
REM compiler GCC version 9.2.1 20190827 (Red Hat 9.2.1-1)
REM options -cpp -mtune=generic -march=x86-64 -g -O0 -fpre-include=/usr/include/finclude/math-vector-fortran.h
REM seed 1028548526 1835344051 527127885 -1780188927 -1330351998 -2024346172 1997206650 -743031422 -387615973 1170904754 -721027781 2091311729 -1621770794 -1830638119 986844167 1149694572 564883822 -626241075 1706418402 -558145925 -1674847457 1861644788 -1650975053 1979299351 146248604 523637065 1303658938 -1062154572 662750398 -1958924180 1180156461 1296104485 885357514
REM
CELL 1.54180   50.00000   50.00000   50.00000   90.00000   90.00000   90.00000
LATT -1
SFAC C  
C      1  0.4470770000000  0.4574080000000  0.4167590000000 1.0
C      1  0.6129230000000  0.4789020000000  0.5069520000000 1.0
C      1  0.4498490000000  0.4103950000000  0.4548880000000 1.0
C      1  0.5087340000000  0.5631880000000  0.5867640000000 1.0
C      1  0.5917330000000  0.5659610000000  0.5471070000000 1.0
C      1  0.4657340000000  0.5786250000000  0.4482220000000 1.0
C      1  0.4742740000000  0.4610430000000  0.4260920000000 1.0
C      1  0.5175320000000  0.5321730000000  0.4057370000000 1.0
C      1  0.4063720000000  0.5366360000000  0.5107830000000 1.0
C      1  0.5795950000000  0.5400910000000  0.5369240000000 1.0
C      1  0.4378160000000  0.4618950000000  0.4928630000000 1.0
C      1  0.5871630000000  0.5702370000000  0.4244650000000 1.0
C      1  0.5396760000000  0.5734330000000  0.4751870000000 1.0
C      1  0.5656820000000  0.5547150000000  0.4139420000000 1.0
C      1  0.4622780000000  0.4320220000000  0.5591660000000 1.0
C      1  0.5135940000000  0.5818830000000  0.4345490000000 1.0
C      1  0.6188060000000  0.5240590000000  0.4940060000000 1.0
C      1  0.5543080000000  0.4510680000000  0.4535460000000 1.0
C      1  0.5375830000000  0.4372390000000  0.4996370000000 1.0
C      1  0.4762910000000  0.3931200000000  0.5113980000000 1.0
C      1  0.4942250000000  0.5132440000000  0.4793600000000 1.0
C      1  0.5734540000000  0.4665720000000  0.4246170000000 1.0
C      1  0.4968480000000  0.5385260000000  0.5766940000000 1.0
C      1  0.4185530000000  0.5642940000000  0.4487220000000 1.0
C      1  0.4328110000000  0.5089860000000  0.5153000000000 1.0
C      1  0.4523500000000  0.4866580000000  0.5821630000000 1.0
C      1  0.4001540000000  0.5231700000000  0.4604240000000 1.0
C      1  0.5799500000000  0.5788130000000  0.5017310000000 1.0
C      1  0.4976160000000  0.5604180000000  0.5018100000000 1.0
C      1  0.3844660000000  0.5171530000000  0.5102520000000 1.0
C      1  0.4091630000000  0.5348430000000  0.5589790000000 1.0
C      1  0.5408430000000  0.5157000000000  0.5850730000000 1.0
C      1  0.4799920000000  0.5509870000000  0.4490390000000 1.0
C      1  0.3777600000000  0.5066590000000  0.4572820000000 1.0
C      1  0.3938650000000  0.5103710000000  0.5582420000000 1.0
C      1  0.5300290000000  0.5964710000000  0.4556070000000 1.0
C      1  0.5706780000000  0.4473560000000  0.5416450000000 1.0
C      1  0.4410160000000  0.4382200000000  0.4626090000000 1.0
C      1  0.4662370000000  0.6051190000000  0.4919040000000 1.0
C      1  0.4254200000000  0.4738950000000  0.5854110000000 1.0
C      1  0.5621090000000  0.5565650000000  0.4625550000000 1.0
C      1  0.5206200000000  0.3943480000000  0.5576800000000 1.0
C      1  0.4323010000000  0.5271960000000  0.5733860000000 1.0
C      1  0.5569830000000  0.4223910000000  0.4461420000000 1.0
C      1  0.4758790000000  0.4151450000000  0.4121000000000 1.0
C      1  0.5268610000000  0.4698460000000  0.6075170000000 1.0
C      1  0.5849190000000  0.5896780000000  0.5293630000000 1.0
C      1  0.3972810000000  0.4464020000000  0.5283140000000 1.0
C      1  0.4959950000000  0.5884520000000  0.5778090000000 1.0
C      1  0.4795830000000  0.4863890000000  0.4090480000000 1.0
C      1  0.4749900000000  0.5126270000000  0.5461960000000 1.0
C      1  0.4988370000000  0.4136030000000  0.4556520000000 1.0
C      1  0.5755300000000  0.4124670000000  0.5075130000000 1.0
C      1  0.4833960000000  0.4396810000000  0.5381360000000 1.0
C      1  0.5242360000000  0.5355810000000  0.4337320000000 1.0
C      1  0.4913880000000  0.4191750000000  0.5097840000000 1.0
C      1  0.6016880000000  0.4839470000000  0.4608280000000 1.0
C      1  0.4736330000000  0.5967720000000  0.5348510000000 1.0
C      1  0.5279680000000  0.5599500000000  0.6069560000000 1.0
C      1  0.3767340000000  0.4842420000000  0.4738100000000 1.0
C      1  0.5686910000000  0.4604450000000  0.4793310000000 1.0
C      1  0.5505510000000  0.5406240000000  0.5478040000000 1.0
C      1  0.5216770000000  0.4142070000000  0.5138210000000 1.0
C      1  0.4685150000000  0.5130870000000  0.3836010000000 1.0
C      1  0.5092850000000  0.4496580000000  0.3931180000000 1.0
C      1  0.4386530000000  0.4767260000000  0.3980940000000 1.0
C      1  0.5591250000000  0.6055480000000  0.5380620000000 1.0
C      1  0.5082060000000  0.4468590000000  0.6069620000000 1.0
C      1  0.5110810000000  0.4414290000000  0.5529870000000 1.0
C      1  0.4050720000000  0.5407130000000  0.4388630000000 1.0
C      1  0.6127990000000  0.4530800000000  0.4955870000000 1.0
C      1  0.4481880000000  0.5055790000000  0.5599200000000 1.0
C      1  0.4472800000000  0.5447160000000  0.4167830000000 1.0
C      1  0.4341800000000  0.5564880000000  0.5391370000000 1.0
C      1  0.4500530000000  0.5472060000000  0.5846310000000 1.0
C      1  0.5131450000000  0.6143120000000  0.5119760000000 1.0
C      1  0.4478910000000  0.3967620000000  0.5031470000000 1.0
C      1  0.4009150000000  0.4430440000000  0.4800900000000 1.0
C      1  0.4401380000000  0.4658650000000  0.5290980000000 1.0
C      1  0.5203420000000  0.3942630000000  0.4623090000000 1.0
C      1  0.5129450000000  0.4015240000000  0.5830080000000 1.0
C      1  0.4741630000000  0.5355790000000  0.4734780000000 1.0
C      1  0.5323470000000  0.3866220000000  0.5052880000000 1.0
C      1  0.5819000000000  0.5755270000000  0.4519650000000 1.0
C      1  0.5259490000000  0.4171760000000  0.5420000000000 1.0
C      1  0.5380510000000  0.4421170000000  0.3999170000000 1.0
C      1  0.6230360000000  0.5253610000000  0.5220080000000 1.0
C      1  0.4951160000000  0.6083090000000  0.4893130000000 1.0
C      1  0.3918940000000  0.4898010000000  0.4987050000000 1.0
C      1  0.4295920000000  0.4924280000000  0.5396330000000 1.0
C      1  0.5667130000000  0.4397040000000  0.5114360000000 1.0
C      1  0.4454800000000  0.5360590000000  0.4823740000000 1.0
C      1  0.4198220000000  0.5783180000000  0.5255620000000 1.0
C      1  0.5646750000000  0.4831860000000  0.5163870000000 1.0
C      1  0.4833810000000  0.5425890000000  0.5499320000000 1.0
C      1  0.4420110000000  0.5044050000000  0.3943560000000 1.0
C      1  0.5078290000000  0.4906550000000  0.5070740000000 1.0
C      1  0.5084090000000  0.5556790000000  0.4476870000000 1.0
C      1  0.4809250000000  0.4703260000000  0.4631100000000 1.0
C      1  0.5817120000000  0.4892370000000  0.4397900000000 1.0
C      1  0.4741270000000  0.4651880000000  0.5755460000000 1.0
C      1  0.4527130000000  0.5859450000000  0.4744350000000 1.0
C      1  0.5519220000000  0.4604070000000  0.5957320000000 1.0
C      1  0.4116630000000  0.5641890000000  0.5020000000000 1.0
C      1  0.5663590000000  0.5289720000000  0.3973730000000 1.0
C      1  0.5664190000000  0.5170070000000  0.5019000000000 1.0
C      1  0.4646160000000  0.5125690000000  0.5171090000000 1.0
C      1  0.5305720000000  0.4898350000000  0.4099400000000 1.0
C      1  0.5241090000000  0.4578310000000  0.4512800000000 1.0
C      1  0.4714700000000  0.5725940000000  0.5111820000000 1.0
C      1  0.4973160000000  0.4855780000000  0.5646260000000 1.0
C      1  0.5382610000000  0.5250360000000  0.5081060000000 1.0
C      1  0.5395260000000  0.5162900000000  0.3934160000000 1.0
C      1  0.4991770000000  0.6113830000000  0.5372040000000 1.0
C      1  0.5978330000000  0.4567320000000  0.4719130000000 1.0
C      1  0.5204400000000  0.4643880000000  0.4981840000000 1.0
C      1  0.5553230000000  0.5606290000000  0.5718050000000 1.0
C      1  0.5186950000000  0.4301910000000  0.5839190000000 1.0
C      1  0.4848880000000  0.3763930000000  0.4895970000000 1.0
C      1  0.4775080000000  0.4859000000000  0.5102780000000 1.0
C      1  0.5981140000000  0.5172250000000  0.5327690000000 1.0
C      1  0.3915930000000  0.4625220000000  0.4618810000000 1.0
C      1  0.5494410000000  0.5805190000000  0.5029550000000 1.0
C      1  0.4730310000000  0.5342180000000  0.4249370000000 1.0
C      1  0.5220210000000  0.4890450000000  0.4432110000000 1.0
C      1  0.5045200000000  0.4553590000000  0.4749170000000 1.0
C      1  0.5128530000000  0.4329370000000  0.4361500000000 1.0
C      1  0.5634290000000  0.4293320000000  0.5619800000000 1.0
C      1  0.5957720000000  0.5836050000000  0.4766650000000 1.0
C      1  0.5202360000000  0.5220400000000  0.5639150000000 1.0
C      1  0.5431200000000  0.6094730000000  0.5115050000000 1.0
C      1  0.4327180000000  0.4559700000000  0.4410710000000 1.0
C      1  0.5591360000000  0.5012540000000  0.5647000000000 1.0
C      1  0.4588900000000  0.5598360000000  0.5588740000000 1.0
C      1  0.4636810000000  0.4758200000000  0.4860650000000 1.0
C      1  0.5048040000000  0.6139370000000  0.4628460000000 1.0
C      1  0.6044790000000  0.5465660000000  0.4838560000000 1.0
C      1  0.4821460000000  0.4598840000000  0.6045920000000 1.0
C      1  0.5485290000000  0.4339230000000  0.5852340000000 1.0
C      1  0.4307520000000  0.4476980000000  0.5760000000000 1.0
C      1  0.4045080000000  0.4853990000000  0.5686050000000 1.0
C      1  0.5397500000000  0.5055040000000  0.4622730000000 1.0
C      1  0.5108650000000  0.4928520000000  0.5945580000000 1.0
C      1  0.5899020000000  0.4685650000000  0.5502230000000 1.0
C      1  0.4105220000000  0.4728060000000  0.4430600000000 1.0
C      1  0.4886530000000  0.5987050000000  0.4397770000000 1.0
C      1  0.4868030000000  0.4884570000000  0.6136560000000 1.0
C      1  0.3845220000000  0.4720760000000  0.5218840000000 1.0
C      1  0.5433820000000  0.4117140000000  0.4706860000000 1.0
C      1  0.4295460000000  0.5203930000000  0.4184760000000 1.0
C      1  0.4381780000000  0.4998240000000  0.4420260000000 1.0
C      1  0.4414130000000  0.5702990000000  0.4309050000000 1.0
C      1  0.5512240000000  0.4680240000000  0.4066890000000 1.0
C      1  0.5628610000000  0.4932910000000  0.4793210000000 1.0
C      1  0.4357160000000  0.4218170000000  0.5114660000000 1.0
C      1  0.5147340000000  0.6032690000000  0.5607330000000 1.0
C      1  0.5819950000000  0.4848140000000  0.5742340000000 1.0
C      1  0.4723870000000  0.5318190000000  0.5968060000000 1.0
C      1  0.5242500000000  0.5084780000000  0.5278490000000 1.0
C      1  0.4924550000000  0.4961730000000  0.4542780000000 1.0
C      1  0.4223370000000  0.4913540000000  0.4923450000000 1.0
C      1  0.5585310000000  0.3962140000000  0.4921210000000 1.0
C      1  0.4920720000000  0.4292620000000  0.4805810000000 1.0
C      1  0.5167810000000  0.5543470000000  0.4770050000000 1.0
C      1  0.4881710000000  0.5289390000000  0.4000930000000 1.0
C      1  0.6065600000000  0.4984220000000  0.4861530000000 1.0
C      1  0.4746080000000  0.4054400000000  0.4389120000000 1.0
C      1  0.5136550000000  0.3755430000000  0.4840580000000 1.0
C      1  0.5926040000000  0.4873690000000  0.5273700000000 1.0
C      1  0.4920480000000  0.4391320000000  0.4155790000000 1.0
C      1  0.4696350000000  0.5869580000000  0.5620890000000 1.0
C      1  0.5710270000000  0.5151270000000  0.4326600000000 1.0
C      1  0.5477320000000  0.5439390000000  0.5954790000000 1.0
C      1  0.5374300000000  0.4207940000000  0.4228890000000 1.0
C      1  0.4082190000000  0.4316670000000  0.5047700000000 1.0
C      1  0.4225060000000  0.4469970000000  0.5466160000000 1.0
C      1  0.5776300000000  0.4714620000000  0.5990040000000 1.0
C      1  0.3757840000000  0.5067590000000  0.5363920000000 1.0
C      1  0.4636320000000  0.5039570000000  0.6049590000000 1.0
C      1  0.5438150000000  0.4884390000000  0.5404530000000 1.0
C      1  0.4269660000000  0.5118690000000  0.4690370000000 1.0
C      1  0.4512700000000  0.3900610000000  0.4752300000000 1.0
C      1  0.4307870000000  0.5640190000000  0.4774810000000 1.0
C      1  0.5063900000000  0.5526450000000  0.5283540000000 1.0
C      1  0.5536760000000  0.5401280000000  0.4381840000000 1.0
C      1  0.5350580000000  0.5626410000000  0.5315930000000 1.0
C      1  0.4511480000000  0.5490790000000  0.5146250000000 1.0
C      1  0.5064860000000  0.4789950000000  0.3962210000000 1.0
C      1  0.5238380000000  0.5242860000000  0.4814030000000 1.0
C      1  0.4383040000000  0.4228350000000  0.5405350000000 1.0
C      1  0.5196650000000  0.4703560000000  0.5502520000000 1.0
C      1  0.5829180000000  0.5692140000000  0.5737760000000 1.0
C      1  0.4708280000000  0.5052670000000  0.4341470000000 1.0
C      1  0.5769260000000  0.5391680000000  0.4822580000000 1.0
C      1  0.5395700000000  0.5874320000000  0.5526540000000 1.0
C      1  0.4704030000000  0.4661620000000  0.5319780000000 1.0
END
