TITL C-951335-1172-346 4.32390396509259e-06 125000 -659.525079368512 0 0 106 (C1) n - 1
REM
REM in /home/bkarasulu/work/CARBON/AIRSS/Generating-Clusters/EDIP-Nigel-Params/with-SteepDescent/Only-C1/SD-CG/HFTN-CG
REM
REM
REM
REM
REM
REM ./C.cell (11c1c37f851c82e70ff6c80c92926a4b)
REM
REM compiler GCC version 9.2.1 20190827 (Red Hat 9.2.1-1)
REM options -cpp -mtune=generic -march=x86-64 -g -O0 -fpre-include=/usr/include/finclude/math-vector-fortran.h
REM seed 1181479997 -1873862685 1302378914 696248916 -1446183764 -1836915847 -1695257400 33204430 1348429990 1173145991 1390648953 891222788 169944677 1758017481 -1718914201 1160972381 -1591355693 1709141552 1187776382 66763297 1549864344 319737535 1678407595 158641218 -1527351789 -1106312658 -13585896 1941504270 1438033123 1369677532 -14920736 -998891418 1038817759
REM
CELL 1.54180   50.00000   50.00000   50.00000   90.00000   90.00000   90.00000
LATT -1
SFAC C  
C      1  0.5657870000000  0.4912720000000  0.5166230000000 1.0
C      1  0.5020730000000  0.5199360000000  0.5384950000000 1.0
C      1  0.4256910000000  0.5133400000000  0.5447820000000 1.0
C      1  0.4897060000000  0.4176360000000  0.4972880000000 1.0
C      1  0.4949040000000  0.5037580000000  0.4897590000000 1.0
C      1  0.4508870000000  0.5376010000000  0.4466650000000 1.0
C      1  0.5228320000000  0.5206850000000  0.4143490000000 1.0
C      1  0.5847550000000  0.5131700000000  0.5109170000000 1.0
C      1  0.5691310000000  0.5565500000000  0.5207170000000 1.0
C      1  0.4957070000000  0.5545090000000  0.4403550000000 1.0
C      1  0.5660030000000  0.5507860000000  0.4924920000000 1.0
C      1  0.4234020000000  0.4732950000000  0.5001570000000 1.0
C      1  0.5546690000000  0.5743330000000  0.4780790000000 1.0
C      1  0.5433790000000  0.5376000000000  0.4514900000000 1.0
C      1  0.4998730000000  0.5127700000000  0.3980680000000 1.0
C      1  0.4781990000000  0.4771610000000  0.4227060000000 1.0
C      1  0.5442540000000  0.5610000000000  0.5348210000000 1.0
C      1  0.5186070000000  0.4463570000000  0.4256000000000 1.0
C      1  0.4959710000000  0.4828000000000  0.5825220000000 1.0
C      1  0.5234270000000  0.4911080000000  0.5808600000000 1.0
C      1  0.4648470000000  0.5785190000000  0.4727760000000 1.0
C      1  0.5392270000000  0.4372980000000  0.4444940000000 1.0
C      1  0.4641990000000  0.4136680000000  0.5438820000000 1.0
C      1  0.4746540000000  0.5025460000000  0.5771700000000 1.0
C      1  0.4478260000000  0.5453310000000  0.5184720000000 1.0
C      1  0.5539500000000  0.4977590000000  0.5440010000000 1.0
C      1  0.4921030000000  0.4825210000000  0.5072130000000 1.0
C      1  0.4479500000000  0.4752490000000  0.4185010000000 1.0
C      1  0.4765640000000  0.5265080000000  0.4054810000000 1.0
C      1  0.4463070000000  0.4945330000000  0.5014780000000 1.0
C      1  0.4921560000000  0.5769020000000  0.4591580000000 1.0
C      1  0.4533030000000  0.5535900000000  0.5649660000000 1.0
C      1  0.5063960000000  0.5900980000000  0.5388310000000 1.0
C      1  0.5830710000000  0.4671040000000  0.5186840000000 1.0
C      1  0.5236040000000  0.4969070000000  0.5374950000000 1.0
C      1  0.4644060000000  0.4541530000000  0.5256300000000 1.0
C      1  0.4486460000000  0.4837510000000  0.5773540000000 1.0
C      1  0.5329770000000  0.4965350000000  0.4294430000000 1.0
C      1  0.4714020000000  0.5863400000000  0.5006810000000 1.0
C      1  0.5354650000000  0.4174040000000  0.4637890000000 1.0
C      1  0.4940930000000  0.4196600000000  0.5418760000000 1.0
C      1  0.5299880000000  0.5300240000000  0.4771810000000 1.0
C      1  0.5705020000000  0.4698250000000  0.4699770000000 1.0
C      1  0.4919110000000  0.5280350000000  0.5050200000000 1.0
C      1  0.5163040000000  0.4511790000000  0.4871430000000 1.0
C      1  0.5227810000000  0.5472800000000  0.4294900000000 1.0
C      1  0.4868930000000  0.4580130000000  0.5716110000000 1.0
C      1  0.5403250000000  0.4680190000000  0.5743750000000 1.0
C      1  0.4671960000000  0.4852610000000  0.5227910000000 1.0
C      1  0.4482820000000  0.4400340000000  0.5488340000000 1.0
C      1  0.4410130000000  0.4269300000000  0.5004390000000 1.0
C      1  0.4269840000000  0.4916420000000  0.5618100000000 1.0
C      1  0.4724000000000  0.5432890000000  0.4275220000000 1.0
C      1  0.4339560000000  0.4986050000000  0.4242820000000 1.0
C      1  0.5247920000000  0.4720610000000  0.4110440000000 1.0
C      1  0.4617540000000  0.4088610000000  0.5134730000000 1.0
C      1  0.4594670000000  0.5788290000000  0.5496740000000 1.0
C      1  0.5578840000000  0.5110290000000  0.4423240000000 1.0
C      1  0.4505630000000  0.5303470000000  0.5447550000000 1.0
C      1  0.4407400000000  0.5102800000000  0.4488260000000 1.0
C      1  0.4873690000000  0.5823020000000  0.5574280000000 1.0
C      1  0.4438750000000  0.4542930000000  0.4392090000000 1.0
C      1  0.5282880000000  0.4234130000000  0.4907340000000 1.0
C      1  0.5171720000000  0.4743370000000  0.5204700000000 1.0
C      1  0.4804420000000  0.4484170000000  0.4320250000000 1.0
C      1  0.4545040000000  0.5742190000000  0.5211540000000 1.0
C      1  0.5633720000000  0.5244860000000  0.5542980000000 1.0
C      1  0.5598820000000  0.4550310000000  0.4490530000000 1.0
C      1  0.4272540000000  0.4476840000000  0.5168700000000 1.0
C      1  0.4985900000000  0.4830300000000  0.4004350000000 1.0
C      1  0.5313090000000  0.5890850000000  0.4945710000000 1.0
C      1  0.5051190000000  0.5744640000000  0.4876270000000 1.0
C      1  0.4431280000000  0.4654030000000  0.4675500000000 1.0
C      1  0.4930780000000  0.4402220000000  0.5194020000000 1.0
C      1  0.4224630000000  0.5516440000000  0.4804430000000 1.0
C      1  0.4566190000000  0.4443000000000  0.4834360000000 1.0
C      1  0.5218840000000  0.5015680000000  0.4786130000000 1.0
C      1  0.5511400000000  0.4364260000000  0.5375210000000 1.0
C      1  0.5749010000000  0.4536780000000  0.5441040000000 1.0
C      1  0.5305710000000  0.5851700000000  0.5255410000000 1.0
C      1  0.5050310000000  0.4373650000000  0.5622820000000 1.0
C      1  0.4209190000000  0.5402350000000  0.5063420000000 1.0
C      1  0.5819950000000  0.5335890000000  0.5327880000000 1.0
C      1  0.5161060000000  0.5263710000000  0.5682780000000 1.0
C      1  0.5414720000000  0.5442220000000  0.5597240000000 1.0
C      1  0.4994070000000  0.4500650000000  0.4594480000000 1.0
C      1  0.5782280000000  0.5235440000000  0.4848440000000 1.0
C      1  0.5144540000000  0.4909880000000  0.4524370000000 1.0
C      1  0.4796480000000  0.4312070000000  0.4725190000000 1.0
C      1  0.5104380000000  0.5455880000000  0.4916940000000 1.0
C      1  0.4582290000000  0.4560400000000  0.5722340000000 1.0
C      1  0.4851680000000  0.4897350000000  0.4488220000000 1.0
C      1  0.5301750000000  0.4492350000000  0.5543920000000 1.0
C      1  0.4589430000000  0.4932370000000  0.4668190000000 1.0
C      1  0.4774440000000  0.5541250000000  0.5814370000000 1.0
C      1  0.4738870000000  0.5088930000000  0.5461310000000 1.0
C      1  0.4510830000000  0.5510270000000  0.4733310000000 1.0
C      1  0.4906370000000  0.5293240000000  0.5857390000000 1.0
C      1  0.4641090000000  0.5347360000000  0.4970350000000 1.0
C      1  0.5690300000000  0.5003260000000  0.4672050000000 1.0
C      1  0.5651090000000  0.4759270000000  0.5620960000000 1.0
C      1  0.5378790000000  0.4806050000000  0.4970120000000 1.0
C      1  0.5517960000000  0.4336190000000  0.5072720000000 1.0
C      1  0.5495920000000  0.5665230000000  0.4505130000000 1.0
C      1  0.5721320000000  0.4528560000000  0.4954210000000 1.0
C      1  0.4199930000000  0.5098600000000  0.5150070000000 1.0
END
