TITL C-950528-5794-388 -4.63212246604761e-07 125000 -45.5237092006358 0 0 9 (C1) n - 1
REM
REM in /home/bkarasulu/work/CARBON/AIRSS/Generating-Clusters/EDIP-Nigel-Params/with-SteepDescent/Only-C1/SD-CG/HFTN-CG
REM
REM
REM
REM
REM
REM ./C.cell (11c1c37f851c82e70ff6c80c92926a4b)
REM
REM compiler GCC version 9.2.1 20190827 (Red Hat 9.2.1-1)
REM options -cpp -mtune=generic -march=x86-64 -g -O0 -fpre-include=/usr/include/finclude/math-vector-fortran.h
REM seed -660875358 -66765883 -1140184715 -2024147949 -812621507 108378988 -858007541 -1406071461 1253655487 1741133655 2048729177 -1199405123 -1685874446 -1739020677 1423567285 -456129752 -1892158734 -1340804855 -1177843174 1774838674 -664290493 -750017472 -17705772 1258368136 -492299513 -1028315153 1544920099 1926256517 -1207908891 1636964475 -773766260 -738832642 -25729345
REM
CELL 1.54180   50.00000   50.00000   50.00000   90.00000   90.00000   90.00000
LATT -1
SFAC C  
C      1  0.4681970000000  0.4981820000000  0.4655850000000 1.0
C      1  0.4879660000000  0.4902730000000  0.4812190000000 1.0
C      1  0.4849640000000  0.5305590000000  0.5120910000000 1.0
C      1  0.5158280000000  0.4469450000000  0.4691760000000 1.0
C      1  0.5000960000000  0.5340070000000  0.5359510000000 1.0
C      1  0.4986800000000  0.5086450000000  0.5002810000000 1.0
C      1  0.5029810000000  0.4686230000000  0.4737480000000 1.0
C      1  0.5181370000000  0.5028430000000  0.5204650000000 1.0
C      1  0.5231490000000  0.5199230000000  0.5414830000000 1.0
END
