TITL C-950521-2237-680 -4.74717776491698e-07 125000 -71.8157719118981 0 0 14 (C1) n - 1
REM
REM in /home/bkarasulu/work/CARBON/AIRSS/Generating-Clusters/EDIP-Nigel-Params/with-SteepDescent/Only-C1/SD-CG/HFTN-CG
REM
REM
REM
REM
REM
REM ./C.cell (11c1c37f851c82e70ff6c80c92926a4b)
REM
REM compiler GCC version 9.2.1 20190827 (Red Hat 9.2.1-1)
REM options -cpp -mtune=generic -march=x86-64 -g -O0 -fpre-include=/usr/include/finclude/math-vector-fortran.h
REM seed -564168395 -1228177179 1510978782 -216972372 172158308 1573844610 -880538033 -1434778713 813630580 -1443428999 -794964302 -164639322 1334384320 2017140927 11230143 -1584321465 300101316 -1030352213 -1030958549 559995188 -722936847 -1250343224 -1933676456 -1671564599 1442843870 114817649 208634654 569281313 1451707749 -1499259775 956110078 1352681383 -146614458
REM
CELL 1.54180   50.00000   50.00000   50.00000   90.00000   90.00000   90.00000
LATT -1
SFAC C  
C      1  0.4863820000000  0.4608590000000  0.4618220000000 1.0
C      1  0.5172340000000  0.5370270000000  0.5033540000000 1.0
C      1  0.5342210000000  0.4765040000000  0.4962190000000 1.0
C      1  0.4936930000000  0.5289670000000  0.4914370000000 1.0
C      1  0.4597520000000  0.5061500000000  0.5618120000000 1.0
C      1  0.5100790000000  0.4876730000000  0.5097360000000 1.0
C      1  0.4607640000000  0.4672450000000  0.4666820000000 1.0
C      1  0.4640720000000  0.5079790000000  0.5366620000000 1.0
C      1  0.4801260000000  0.4879110000000  0.4675500000000 1.0
C      1  0.5270620000000  0.5140130000000  0.5165960000000 1.0
C      1  0.4878250000000  0.5004640000000  0.4936610000000 1.0
C      1  0.4653770000000  0.5105460000000  0.5095850000000 1.0
C      1  0.5620590000000  0.5145900000000  0.4826430000000 1.0
C      1  0.5513550000000  0.5000720000000  0.5022410000000 1.0
END
