TITL C-950534-5965-411 -1.90560826170662e-06 125000 -1251.92589311671 0 0 198 (C1) n - 1
REM
REM in /home/bkarasulu/work/CARBON/AIRSS/Generating-Clusters/EDIP-Nigel-Params/with-SteepDescent/Only-C1/SD-CG/HFTN-CG
REM
REM
REM
REM
REM
REM ./C.cell (11c1c37f851c82e70ff6c80c92926a4b)
REM
REM compiler GCC version 9.2.1 20190827 (Red Hat 9.2.1-1)
REM options -cpp -mtune=generic -march=x86-64 -g -O0 -fpre-include=/usr/include/finclude/math-vector-fortran.h
REM seed -146508157 -312812144 106844551 632791242 1703782339 -1833378475 -1995229732 1562506070 1876278811 1570147256 -1195345018 -1389065402 1507752070 -122321042 -1135155174 1336633955 -2138862042 -1779400209 977973285 -1625479614 839252197 -1690524657 1807996285 1678407699 426265536 -384442293 1522604106 1691519719 227281369 1860465847 -303089730 -57481382 -780744783
REM
CELL 1.54180   50.00000   50.00000   50.00000   90.00000   90.00000   90.00000
LATT -1
SFAC C  
C      1  0.4421530000000  0.4713180000000  0.6036960000000 1.0
C      1  0.5118640000000  0.4246220000000  0.5235540000000 1.0
C      1  0.5304920000000  0.5558870000000  0.5871240000000 1.0
C      1  0.3984160000000  0.4852080000000  0.5237160000000 1.0
C      1  0.4981740000000  0.4510800000000  0.5906220000000 1.0
C      1  0.5774900000000  0.5299200000000  0.5929980000000 1.0
C      1  0.4569130000000  0.4776250000000  0.4553660000000 1.0
C      1  0.4749990000000  0.5397360000000  0.4595630000000 1.0
C      1  0.3996400000000  0.5342710000000  0.5187770000000 1.0
C      1  0.5495910000000  0.4101670000000  0.4589920000000 1.0
C      1  0.5114590000000  0.3857240000000  0.5198060000000 1.0
C      1  0.5059640000000  0.5741970000000  0.4777810000000 1.0
C      1  0.5715200000000  0.4410090000000  0.4131430000000 1.0
C      1  0.4636620000000  0.4307150000000  0.5087910000000 1.0
C      1  0.4941140000000  0.4022830000000  0.4813200000000 1.0
C      1  0.5404350000000  0.3932390000000  0.5326800000000 1.0
C      1  0.5050970000000  0.5582480000000  0.6236220000000 1.0
C      1  0.5202190000000  0.4739860000000  0.3731460000000 1.0
C      1  0.5711040000000  0.4306210000000  0.4594150000000 1.0
C      1  0.4274480000000  0.4142950000000  0.5350060000000 1.0
C      1  0.5969320000000  0.4599400000000  0.4923070000000 1.0
C      1  0.5164180000000  0.4709290000000  0.5493420000000 1.0
C      1  0.5810130000000  0.5814580000000  0.4725570000000 1.0
C      1  0.3989740000000  0.4941480000000  0.4546810000000 1.0
C      1  0.4178340000000  0.4241180000000  0.4871660000000 1.0
C      1  0.4816680000000  0.4921470000000  0.4208570000000 1.0
C      1  0.4626240000000  0.5381520000000  0.4116030000000 1.0
C      1  0.5580720000000  0.3999630000000  0.5094290000000 1.0
C      1  0.5958020000000  0.4680110000000  0.4331090000000 1.0
C      1  0.4803610000000  0.3869160000000  0.5227200000000 1.0
C      1  0.6164820000000  0.4714740000000  0.4739930000000 1.0
C      1  0.4811200000000  0.4793060000000  0.4729500000000 1.0
C      1  0.4219790000000  0.5110900000000  0.5709500000000 1.0
C      1  0.4519650000000  0.5415290000000  0.4775280000000 1.0
C      1  0.4743960000000  0.4194320000000  0.4449150000000 1.0
C      1  0.4056200000000  0.5235910000000  0.4674610000000 1.0
C      1  0.5105260000000  0.4932240000000  0.4332590000000 1.0
C      1  0.3903600000000  0.4753790000000  0.4759330000000 1.0
C      1  0.5544430000000  0.4846960000000  0.5187200000000 1.0
C      1  0.4834320000000  0.5525440000000  0.3996050000000 1.0
C      1  0.4107200000000  0.4835440000000  0.4291840000000 1.0
C      1  0.4916960000000  0.4282890000000  0.4989710000000 1.0
C      1  0.5096700000000  0.5035090000000  0.3769730000000 1.0
C      1  0.4266560000000  0.4182450000000  0.4604250000000 1.0
C      1  0.5498450000000  0.4735990000000  0.4424810000000 1.0
C      1  0.5429800000000  0.4698660000000  0.3915830000000 1.0
C      1  0.4739510000000  0.4400600000000  0.4245040000000 1.0
C      1  0.4647700000000  0.4978070000000  0.5713330000000 1.0
C      1  0.4277260000000  0.4589380000000  0.4273110000000 1.0
C      1  0.4291010000000  0.4930090000000  0.5247090000000 1.0
C      1  0.5840880000000  0.5483340000000  0.5094750000000 1.0
C      1  0.5174490000000  0.4111960000000  0.5725620000000 1.0
C      1  0.4064110000000  0.5534230000000  0.4566700000000 1.0
C      1  0.4980730000000  0.4216790000000  0.5519490000000 1.0
C      1  0.4701530000000  0.5212950000000  0.4351680000000 1.0
C      1  0.5375600000000  0.5123020000000  0.6156430000000 1.0
C      1  0.5224620000000  0.4433560000000  0.4679160000000 1.0
C      1  0.4876250000000  0.4488170000000  0.5626170000000 1.0
C      1  0.5938640000000  0.5558790000000  0.4812190000000 1.0
C      1  0.5452400000000  0.4642820000000  0.5384830000000 1.0
C      1  0.5866630000000  0.4291690000000  0.5572090000000 1.0
C      1  0.4350050000000  0.5187520000000  0.5971240000000 1.0
C      1  0.5110290000000  0.5491980000000  0.3967360000000 1.0
C      1  0.5543840000000  0.5132550000000  0.5274710000000 1.0
C      1  0.5565830000000  0.5634860000000  0.5490210000000 1.0
C      1  0.5569790000000  0.5339880000000  0.5044490000000 1.0
C      1  0.4580260000000  0.4649020000000  0.4275030000000 1.0
C      1  0.4547010000000  0.4441990000000  0.5631340000000 1.0
C      1  0.4942000000000  0.4629150000000  0.3854560000000 1.0
C      1  0.6078360000000  0.4546730000000  0.5202810000000 1.0
C      1  0.5914120000000  0.4961690000000  0.4305850000000 1.0
C      1  0.5996160000000  0.5122890000000  0.4534240000000 1.0
C      1  0.4842400000000  0.5671960000000  0.4556950000000 1.0
C      1  0.4417130000000  0.5990640000000  0.5086050000000 1.0
C      1  0.4850890000000  0.5957950000000  0.5355450000000 1.0
C      1  0.4275190000000  0.5058100000000  0.4224480000000 1.0
C      1  0.5164830000000  0.3851880000000  0.4907550000000 1.0
C      1  0.5188130000000  0.5366740000000  0.6076230000000 1.0
C      1  0.4979470000000  0.4464750000000  0.4096370000000 1.0
C      1  0.3915790000000  0.5216040000000  0.4939060000000 1.0
C      1  0.4811470000000  0.6203850000000  0.4906110000000 1.0
C      1  0.6117280000000  0.5105080000000  0.5012310000000 1.0
C      1  0.5479330000000  0.4446730000000  0.5894880000000 1.0
C      1  0.3981600000000  0.5725390000000  0.4750860000000 1.0
C      1  0.6109280000000  0.4749690000000  0.5390690000000 1.0
C      1  0.5277840000000  0.5208410000000  0.5421820000000 1.0
C      1  0.5521540000000  0.4923240000000  0.4710640000000 1.0
C      1  0.4524100000000  0.5610490000000  0.5467520000000 1.0
C      1  0.5580960000000  0.5242690000000  0.4712660000000 1.0
C      1  0.5332310000000  0.6011460000000  0.4820740000000 1.0
C      1  0.5155030000000  0.5803080000000  0.4358250000000 1.0
C      1  0.4322150000000  0.5617010000000  0.4434770000000 1.0
C      1  0.4846770000000  0.5226710000000  0.5070530000000 1.0
C      1  0.5633820000000  0.5072540000000  0.6025930000000 1.0
C      1  0.4556150000000  0.6088160000000  0.4841510000000 1.0
C      1  0.4414880000000  0.4971020000000  0.4959260000000 1.0
C      1  0.5283580000000  0.5674770000000  0.4112440000000 1.0
C      1  0.3864210000000  0.4968680000000  0.5489320000000 1.0
C      1  0.4822850000000  0.5509780000000  0.5545290000000 1.0
C      1  0.4961520000000  0.6070160000000  0.5109640000000 1.0
C      1  0.4564380000000  0.5888570000000  0.5332000000000 1.0
C      1  0.4835310000000  0.4914910000000  0.3902120000000 1.0
C      1  0.4375720000000  0.4671140000000  0.4893350000000 1.0
C      1  0.5260430000000  0.4966200000000  0.4869970000000 1.0
C      1  0.3846840000000  0.4940950000000  0.4987020000000 1.0
C      1  0.5542470000000  0.5258370000000  0.3986630000000 1.0
C      1  0.5020290000000  0.5750930000000  0.5513400000000 1.0
C      1  0.5398930000000  0.4389930000000  0.5206390000000 1.0
C      1  0.5404500000000  0.4883880000000  0.4160590000000 1.0
C      1  0.5782500000000  0.4208780000000  0.5083990000000 1.0
C      1  0.5839920000000  0.5329040000000  0.5656050000000 1.0
C      1  0.4993050000000  0.4087800000000  0.4528090000000 1.0
C      1  0.5404640000000  0.5998830000000  0.5289130000000 1.0
C      1  0.5475610000000  0.4416180000000  0.3986430000000 1.0
C      1  0.5241720000000  0.4582510000000  0.4425850000000 1.0
C      1  0.4095530000000  0.4538990000000  0.4910730000000 1.0
C      1  0.4534740000000  0.4070320000000  0.4614330000000 1.0
C      1  0.4945460000000  0.5255040000000  0.5953340000000 1.0
C      1  0.5114220000000  0.5779820000000  0.5804130000000 1.0
C      1  0.5128100000000  0.6100380000000  0.4435520000000 1.0
C      1  0.4191510000000  0.4357900000000  0.4401020000000 1.0
C      1  0.3903350000000  0.5270090000000  0.5452750000000 1.0
C      1  0.4778330000000  0.5474820000000  0.5857690000000 1.0
C      1  0.6002800000000  0.5260550000000  0.5210890000000 1.0
C      1  0.5607160000000  0.5911800000000  0.4903230000000 1.0
C      1  0.4865300000000  0.6189990000000  0.4541670000000 1.0
C      1  0.4937680000000  0.5004830000000  0.5811550000000 1.0
C      1  0.5365220000000  0.5671500000000  0.4549620000000 1.0
C      1  0.4756820000000  0.4024080000000  0.5469620000000 1.0
C      1  0.4531740000000  0.4962990000000  0.5985690000000 1.0
C      1  0.5383320000000  0.5361230000000  0.4505840000000 1.0
C      1  0.4102160000000  0.5599670000000  0.5188900000000 1.0
C      1  0.4353060000000  0.5176880000000  0.4724070000000 1.0
C      1  0.5793680000000  0.5704800000000  0.5309860000000 1.0
C      1  0.5621690000000  0.4262160000000  0.5705340000000 1.0
C      1  0.4499400000000  0.4150620000000  0.5547450000000 1.0
C      1  0.5467430000000  0.4472540000000  0.4916020000000 1.0
C      1  0.4140810000000  0.6042060000000  0.5077620000000 1.0
C      1  0.4315870000000  0.5582860000000  0.5701010000000 1.0
C      1  0.5243570000000  0.5230390000000  0.3938320000000 1.0
C      1  0.4155130000000  0.5295410000000  0.4129280000000 1.0
C      1  0.4613920000000  0.5406220000000  0.5049530000000 1.0
C      1  0.4139220000000  0.4423690000000  0.5405980000000 1.0
C      1  0.4474780000000  0.5456440000000  0.5919100000000 1.0
C      1  0.5839480000000  0.5366350000000  0.4593030000000 1.0
C      1  0.4463430000000  0.5055900000000  0.4464650000000 1.0
C      1  0.5823710000000  0.5143450000000  0.5428620000000 1.0
C      1  0.4022110000000  0.5801530000000  0.5012920000000 1.0
C      1  0.5678420000000  0.5949530000000  0.5181800000000 1.0
C      1  0.5335480000000  0.5515550000000  0.5105270000000 1.0
C      1  0.5153450000000  0.5487630000000  0.4892150000000 1.0
C      1  0.5311190000000  0.5716620000000  0.5346580000000 1.0
C      1  0.4753300000000  0.4770980000000  0.5211040000000 1.0
C      1  0.5872670000000  0.4328120000000  0.4833810000000 1.0
C      1  0.4395810000000  0.4590170000000  0.5401380000000 1.0
C      1  0.5014190000000  0.4673790000000  0.5248850000000 1.0
C      1  0.5169590000000  0.4707500000000  0.5002570000000 1.0
C      1  0.4634010000000  0.3915960000000  0.4881720000000 1.0
C      1  0.5025630000000  0.4787110000000  0.6001930000000 1.0
C      1  0.5945320000000  0.4307770000000  0.5302850000000 1.0
C      1  0.6113010000000  0.4987620000000  0.4760790000000 1.0
C      1  0.4983650000000  0.4544720000000  0.4822170000000 1.0
C      1  0.5893770000000  0.4864060000000  0.5523540000000 1.0
C      1  0.4612950000000  0.6076150000000  0.4457060000000 1.0
C      1  0.4543250000000  0.4571370000000  0.5142300000000 1.0
C      1  0.5212370000000  0.4326130000000  0.5930370000000 1.0
C      1  0.5646400000000  0.4736060000000  0.4927090000000 1.0
C      1  0.4909550000000  0.5706690000000  0.6008960000000 1.0
C      1  0.5585670000000  0.5589770000000  0.5786820000000 1.0
C      1  0.5768290000000  0.5543390000000  0.4347750000000 1.0
C      1  0.4420830000000  0.5403020000000  0.5279510000000 1.0
C      1  0.5432870000000  0.4060840000000  0.5600050000000 1.0
C      1  0.4568690000000  0.5809740000000  0.4571580000000 1.0
C      1  0.4017340000000  0.4866820000000  0.5724370000000 1.0
C      1  0.5653490000000  0.5775530000000  0.4482560000000 1.0
C      1  0.5236810000000  0.4317520000000  0.4140710000000 1.0
C      1  0.5431020000000  0.3962090000000  0.4845990000000 1.0
C      1  0.5521150000000  0.4708830000000  0.6024650000000 1.0
C      1  0.5087920000000  0.5198520000000  0.4792220000000 1.0
C      1  0.5141090000000  0.4991110000000  0.5588000000000 1.0
C      1  0.5239870000000  0.6125770000000  0.5080360000000 1.0
C      1  0.5725770000000  0.4527510000000  0.4383480000000 1.0
C      1  0.4392810000000  0.4124780000000  0.5064660000000 1.0
C      1  0.4953870000000  0.5259190000000  0.5372000000000 1.0
C      1  0.5676580000000  0.4683000000000  0.5576540000000 1.0
C      1  0.4728430000000  0.4951830000000  0.4983250000000 1.0
C      1  0.5336400000000  0.6196030000000  0.4597820000000 1.0
C      1  0.3986590000000  0.4555960000000  0.5194970000000 1.0
C      1  0.4351480000000  0.4511600000000  0.5859640000000 1.0
C      1  0.5257030000000  0.4142780000000  0.4402230000000 1.0
C      1  0.5124840000000  0.5197690000000  0.4486680000000 1.0
C      1  0.5739570000000  0.5061430000000  0.4090370000000 1.0
C      1  0.4093770000000  0.4570450000000  0.5721570000000 1.0
C      1  0.4415360000000  0.5118840000000  0.5457240000000 1.0
C      1  0.5527430000000  0.5489900000000  0.4166570000000 1.0
C      1  0.4042290000000  0.5438150000000  0.5668850000000 1.0
C      1  0.4356070000000  0.5491540000000  0.4166760000000 1.0
C      1  0.5282640000000  0.4836370000000  0.6145250000000 1.0
END
