TITL C-951342-2639-628 -2.65608163211469e-06 125000 -951.900669484997 0 0 152 (C1) n - 1
REM
REM in /home/bkarasulu/work/CARBON/AIRSS/Generating-Clusters/EDIP-Nigel-Params/with-SteepDescent/Only-C1/SD-CG/HFTN-CG
REM
REM
REM
REM
REM
REM ./C.cell (11c1c37f851c82e70ff6c80c92926a4b)
REM
REM compiler GCC version 9.2.1 20190827 (Red Hat 9.2.1-1)
REM options -cpp -mtune=generic -march=x86-64 -g -O0 -fpre-include=/usr/include/finclude/math-vector-fortran.h
REM seed -1145305742 -202569614 372216485 932487547 497949505 -485471494 -1985648236 -1711074608 47552521 105433629 -848777181 -2042576200 100870162 1369450526 -1657170145 -336284449 552948424 1377115865 2085362782 1673797683 -574732977 168484512 -1564859662 -25456770 361910639 -1257912433 -1439537291 1948326737 152947463 2001523905 577654791 -630712484 1336574079
REM
CELL 1.54180   50.00000   50.00000   50.00000   90.00000   90.00000   90.00000
LATT -1
SFAC C  
C      1  0.4977100000000  0.4958870000000  0.5116120000000 1.0
C      1  0.4640460000000  0.4523190000000  0.4305000000000 1.0
C      1  0.4855710000000  0.6017840000000  0.5344410000000 1.0
C      1  0.4254960000000  0.4174910000000  0.5112310000000 1.0
C      1  0.4073260000000  0.5165910000000  0.4363680000000 1.0
C      1  0.5282710000000  0.4077930000000  0.5176960000000 1.0
C      1  0.5027370000000  0.3963980000000  0.5283760000000 1.0
C      1  0.5681070000000  0.5608680000000  0.5569250000000 1.0
C      1  0.5073510000000  0.4974850000000  0.6023560000000 1.0
C      1  0.4739840000000  0.5427070000000  0.4191940000000 1.0
C      1  0.5075890000000  0.4278860000000  0.4251080000000 1.0
C      1  0.5710450000000  0.5421250000000  0.4443750000000 1.0
C      1  0.4719530000000  0.4564800000000  0.5854800000000 1.0
C      1  0.4718400000000  0.4714690000000  0.5605110000000 1.0
C      1  0.5340820000000  0.4688670000000  0.4542590000000 1.0
C      1  0.4216150000000  0.5645460000000  0.4406790000000 1.0
C      1  0.4436800000000  0.4209310000000  0.4904110000000 1.0
C      1  0.4219810000000  0.5686450000000  0.5410280000000 1.0
C      1  0.4342000000000  0.5787000000000  0.4840200000000 1.0
C      1  0.4221570000000  0.5451900000000  0.5570510000000 1.0
C      1  0.5102740000000  0.5515830000000  0.5118330000000 1.0
C      1  0.4242640000000  0.4936140000000  0.4477200000000 1.0
C      1  0.5105750000000  0.3945720000000  0.4606120000000 1.0
C      1  0.4797770000000  0.4727350000000  0.5002360000000 1.0
C      1  0.5259630000000  0.5299630000000  0.5546790000000 1.0
C      1  0.4542920000000  0.5035410000000  0.4440060000000 1.0
C      1  0.5908740000000  0.4466540000000  0.5034870000000 1.0
C      1  0.5355760000000  0.4592660000000  0.5197890000000 1.0
C      1  0.4341700000000  0.4434460000000  0.4718030000000 1.0
C      1  0.4256610000000  0.5222290000000  0.5386870000000 1.0
C      1  0.5133440000000  0.5282750000000  0.4366320000000 1.0
C      1  0.4487090000000  0.5931060000000  0.5043130000000 1.0
C      1  0.4917820000000  0.5202730000000  0.4172120000000 1.0
C      1  0.6004190000000  0.4825000000000  0.4787450000000 1.0
C      1  0.5691290000000  0.5526020000000  0.4720670000000 1.0
C      1  0.5361760000000  0.4214110000000  0.5625020000000 1.0
C      1  0.4007690000000  0.5110230000000  0.5236040000000 1.0
C      1  0.5063820000000  0.5793070000000  0.4562870000000 1.0
C      1  0.5397470000000  0.5165340000000  0.5989920000000 1.0
C      1  0.4939090000000  0.4072860000000  0.4403200000000 1.0
C      1  0.4362340000000  0.4914400000000  0.5065890000000 1.0
C      1  0.4126050000000  0.4356340000000  0.5285970000000 1.0
C      1  0.5642990000000  0.4988630000000  0.5035450000000 1.0
C      1  0.4625020000000  0.5896340000000  0.5495890000000 1.0
C      1  0.4947840000000  0.4879740000000  0.4611540000000 1.0
C      1  0.5502830000000  0.5199880000000  0.5382340000000 1.0
C      1  0.5419940000000  0.4302400000000  0.4817390000000 1.0
C      1  0.5565090000000  0.5405820000000  0.5161660000000 1.0
C      1  0.5016040000000  0.5106340000000  0.5563740000000 1.0
C      1  0.5841310000000  0.4586150000000  0.4666710000000 1.0
C      1  0.4769120000000  0.4939610000000  0.4218990000000 1.0
C      1  0.5344010000000  0.5998570000000  0.5217100000000 1.0
C      1  0.5354290000000  0.4741540000000  0.4063680000000 1.0
C      1  0.4702750000000  0.4282790000000  0.5313310000000 1.0
C      1  0.5587330000000  0.4525230000000  0.5400210000000 1.0
C      1  0.5891570000000  0.5741330000000  0.5203130000000 1.0
C      1  0.4497150000000  0.4935000000000  0.5621510000000 1.0
C      1  0.5867570000000  0.5437900000000  0.5149910000000 1.0
C      1  0.4574520000000  0.4535950000000  0.5390730000000 1.0
C      1  0.5581810000000  0.5822170000000  0.4793240000000 1.0
C      1  0.4592400000000  0.4575760000000  0.4608570000000 1.0
C      1  0.5490880000000  0.4105360000000  0.5380740000000 1.0
C      1  0.5548760000000  0.5526380000000  0.4246380000000 1.0
C      1  0.4260840000000  0.5386250000000  0.4248650000000 1.0
C      1  0.5462600000000  0.4572170000000  0.4286300000000 1.0
C      1  0.4526240000000  0.5328370000000  0.4761150000000 1.0
C      1  0.4472060000000  0.5446640000000  0.5737470000000 1.0
C      1  0.4176930000000  0.4896450000000  0.4804620000000 1.0
C      1  0.4393550000000  0.5890150000000  0.5320460000000 1.0
C      1  0.4579310000000  0.5164430000000  0.5799270000000 1.0
C      1  0.5754600000000  0.5135170000000  0.4496870000000 1.0
C      1  0.5083180000000  0.5065290000000  0.4803980000000 1.0
C      1  0.4494570000000  0.4254820000000  0.4281110000000 1.0
C      1  0.5646280000000  0.5117620000000  0.5831450000000 1.0
C      1  0.4028520000000  0.5388780000000  0.4822460000000 1.0
C      1  0.5087610000000  0.4312920000000  0.5639040000000 1.0
C      1  0.5066960000000  0.4797360000000  0.5564040000000 1.0
C      1  0.4115540000000  0.4611280000000  0.4851060000000 1.0
C      1  0.5295040000000  0.5386340000000  0.5842390000000 1.0
C      1  0.5747420000000  0.4936070000000  0.4281900000000 1.0
C      1  0.4988910000000  0.4483770000000  0.5865460000000 1.0
C      1  0.4757210000000  0.5819670000000  0.4494380000000 1.0
C      1  0.5507320000000  0.4411960000000  0.5754440000000 1.0
C      1  0.5480720000000  0.5651120000000  0.5338570000000 1.0
C      1  0.4927270000000  0.4522970000000  0.4201160000000 1.0
C      1  0.5234070000000  0.4347860000000  0.5041560000000 1.0
C      1  0.5743930000000  0.4769420000000  0.5471170000000 1.0
C      1  0.4682880000000  0.5609210000000  0.5577760000000 1.0
C      1  0.4773160000000  0.5489450000000  0.4786020000000 1.0
C      1  0.5142050000000  0.5827620000000  0.5676670000000 1.0
C      1  0.5492070000000  0.4992840000000  0.4134680000000 1.0
C      1  0.5144230000000  0.4776820000000  0.5285880000000 1.0
C      1  0.4016250000000  0.4583740000000  0.5135050000000 1.0
C      1  0.5062920000000  0.4742790000000  0.4072650000000 1.0
C      1  0.4903890000000  0.4156310000000  0.5476200000000 1.0
C      1  0.5930100000000  0.5373870000000  0.4868130000000 1.0
C      1  0.4849620000000  0.5165560000000  0.5323370000000 1.0
C      1  0.4463660000000  0.5724610000000  0.4572620000000 1.0
C      1  0.4233460000000  0.4778770000000  0.5573610000000 1.0
C      1  0.4438980000000  0.5353380000000  0.5194420000000 1.0
C      1  0.4845980000000  0.3937900000000  0.5047990000000 1.0
C      1  0.5761670000000  0.4642320000000  0.4360380000000 1.0
C      1  0.4836140000000  0.5606700000000  0.5064940000000 1.0
C      1  0.6026440000000  0.4734570000000  0.5066200000000 1.0
C      1  0.4298490000000  0.4487740000000  0.5502070000000 1.0
C      1  0.5511310000000  0.4090270000000  0.4381240000000 1.0
C      1  0.5369750000000  0.4291690000000  0.4249730000000 1.0
C      1  0.5282550000000  0.5501000000000  0.4255970000000 1.0
C      1  0.4689300000000  0.4823950000000  0.4734080000000 1.0
C      1  0.3985660000000  0.5114560000000  0.4928590000000 1.0
C      1  0.3987680000000  0.5428980000000  0.4526660000000 1.0
C      1  0.5945020000000  0.5214540000000  0.5359850000000 1.0
C      1  0.4860070000000  0.5683520000000  0.4255380000000 1.0
C      1  0.5132550000000  0.5998790000000  0.5448340000000 1.0
C      1  0.5172050000000  0.4696730000000  0.5977930000000 1.0
C      1  0.5470530000000  0.5362850000000  0.4863290000000 1.0
C      1  0.5843570000000  0.5083670000000  0.4782670000000 1.0
C      1  0.5380700000000  0.4679100000000  0.5763250000000 1.0
C      1  0.4469810000000  0.4714500000000  0.4149620000000 1.0
C      1  0.4722050000000  0.4212500000000  0.5022290000000 1.0
C      1  0.4549800000000  0.4689560000000  0.5138460000000 1.0
C      1  0.4706810000000  0.5442640000000  0.5304330000000 1.0
C      1  0.4893800000000  0.5158390000000  0.5840810000000 1.0
C      1  0.4857860000000  0.5928080000000  0.5060270000000 1.0
C      1  0.4932910000000  0.5639550000000  0.5735970000000 1.0
C      1  0.5279610000000  0.5913540000000  0.4737030000000 1.0
C      1  0.5534930000000  0.4574060000000  0.4751310000000 1.0
C      1  0.4657880000000  0.4053430000000  0.4390770000000 1.0
C      1  0.5156160000000  0.6012490000000  0.4984110000000 1.0
C      1  0.4980600000000  0.3836440000000  0.4828380000000 1.0
C      1  0.4078010000000  0.4825010000000  0.5312060000000 1.0
C      1  0.5727060000000  0.5296560000000  0.5575830000000 1.0
C      1  0.5024020000000  0.5350330000000  0.4685610000000 1.0
C      1  0.4290200000000  0.5497250000000  0.4910840000000 1.0
C      1  0.4950010000000  0.4440990000000  0.4907260000000 1.0
C      1  0.5336530000000  0.5042890000000  0.4411050000000 1.0
C      1  0.4525550000000  0.5334100000000  0.4373200000000 1.0
C      1  0.5679730000000  0.5906970000000  0.5060980000000 1.0
C      1  0.4541600000000  0.5139810000000  0.5006060000000 1.0
C      1  0.5497550000000  0.4732260000000  0.4990200000000 1.0
C      1  0.5761810000000  0.4332280000000  0.5252580000000 1.0
C      1  0.4241730000000  0.4372170000000  0.4429110000000 1.0
C      1  0.5057580000000  0.4605800000000  0.4616480000000 1.0
C      1  0.5394770000000  0.5076060000000  0.4743410000000 1.0
C      1  0.5898270000000  0.5766630000000  0.5484220000000 1.0
C      1  0.5381370000000  0.4067010000000  0.4631340000000 1.0
C      1  0.5615510000000  0.4855390000000  0.5716860000000 1.0
C      1  0.5864960000000  0.4931140000000  0.5251200000000 1.0
C      1  0.5218450000000  0.5494960000000  0.4853470000000 1.0
C      1  0.5010620000000  0.5426540000000  0.5907400000000 1.0
C      1  0.4217880000000  0.4669920000000  0.4305650000000 1.0
C      1  0.5204200000000  0.5565550000000  0.5401660000000 1.0
END
