TITL C-950522-5749-115 -7.24998516601734e-07 125000 -275.190777344507 0 0 46 (C1) n - 1
REM
REM in /home/bkarasulu/work/CARBON/AIRSS/Generating-Clusters/EDIP-Nigel-Params/with-SteepDescent/Only-C1/SD-CG/HFTN-CG
REM
REM
REM
REM
REM
REM ./C.cell (11c1c37f851c82e70ff6c80c92926a4b)
REM
REM compiler GCC version 9.2.1 20190827 (Red Hat 9.2.1-1)
REM options -cpp -mtune=generic -march=x86-64 -g -O0 -fpre-include=/usr/include/finclude/math-vector-fortran.h
REM seed 525478387 669716793 -177683811 -1248829474 1261966469 1696069448 1374881334 850741068 -1873350736 641656471 -166750369 -1542445898 -1215723388 342783319 1077923894 731146675 1584244852 1935140062 1779576047 411230814 46133334 -954940382 -1503247490 -1087591012 1314336501 -2136090144 -205627457 1321940236 -1539789797 1878848361 1670765863 -2037619303 -1329375212
REM
CELL 1.54180   50.00000   50.00000   50.00000   90.00000   90.00000   90.00000
LATT -1
SFAC C  
C      1  0.4625230000000  0.4697080000000  0.4780150000000 1.0
C      1  0.5027930000000  0.4420150000000  0.4884740000000 1.0
C      1  0.5504570000000  0.4786610000000  0.4940410000000 1.0
C      1  0.4793980000000  0.5520460000000  0.5446180000000 1.0
C      1  0.5026340000000  0.4673350000000  0.5091810000000 1.0
C      1  0.5329020000000  0.4582230000000  0.5078510000000 1.0
C      1  0.5381080000000  0.5403370000000  0.5325760000000 1.0
C      1  0.5669220000000  0.4963490000000  0.5371430000000 1.0
C      1  0.4839890000000  0.5544500000000  0.4456510000000 1.0
C      1  0.5345620000000  0.4585460000000  0.5383700000000 1.0
C      1  0.4990280000000  0.4914350000000  0.4902220000000 1.0
C      1  0.4832350000000  0.4350630000000  0.5097960000000 1.0
C      1  0.5319110000000  0.5004400000000  0.4535220000000 1.0
C      1  0.4702170000000  0.5295860000000  0.4384630000000 1.0
C      1  0.4548630000000  0.5172620000000  0.4600990000000 1.0
C      1  0.5495410000000  0.4793810000000  0.5517790000000 1.0
C      1  0.4898490000000  0.5252470000000  0.5387770000000 1.0
C      1  0.4479880000000  0.4664170000000  0.5192990000000 1.0
C      1  0.4689790000000  0.4809530000000  0.5337690000000 1.0
C      1  0.5005460000000  0.5043460000000  0.5596980000000 1.0
C      1  0.5280960000000  0.5059420000000  0.5684420000000 1.0
C      1  0.4842470000000  0.4522810000000  0.4668250000000 1.0
C      1  0.5212520000000  0.5115620000000  0.4966160000000 1.0
C      1  0.5137350000000  0.5297030000000  0.5195950000000 1.0
C      1  0.4571800000000  0.5284020000000  0.4871730000000 1.0
C      1  0.4712920000000  0.5614500000000  0.5201650000000 1.0
C      1  0.5466870000000  0.5232860000000  0.5548200000000 1.0
C      1  0.5032160000000  0.4915360000000  0.4587270000000 1.0
C      1  0.4538250000000  0.4875220000000  0.4550660000000 1.0
C      1  0.4843080000000  0.5065320000000  0.4284260000000 1.0
C      1  0.4903690000000  0.4606390000000  0.4400970000000 1.0
C      1  0.4676260000000  0.5545950000000  0.4931800000000 1.0
C      1  0.4364520000000  0.4860520000000  0.5014890000000 1.0
C      1  0.4653740000000  0.5088520000000  0.5302380000000 1.0
C      1  0.5487600000000  0.4826350000000  0.4665070000000 1.0
C      1  0.4709930000000  0.4809530000000  0.4311530000000 1.0
C      1  0.4462620000000  0.5125440000000  0.5085360000000 1.0
C      1  0.5712810000000  0.5247020000000  0.4986260000000 1.0
C      1  0.4564490000000  0.4429490000000  0.5054880000000 1.0
C      1  0.5619130000000  0.5001710000000  0.5093450000000 1.0
C      1  0.4831840000000  0.5661220000000  0.4720480000000 1.0
C      1  0.5288100000000  0.5260870000000  0.4687900000000 1.0
C      1  0.4983990000000  0.5311650000000  0.4720890000000 1.0
C      1  0.5094890000000  0.4553160000000  0.5507370000000 1.0
C      1  0.5585800000000  0.5440780000000  0.5133470000000 1.0
C      1  0.4917760000000  0.4771230000000  0.5511310000000 1.0
END
