TITL C-950528-5794-206 -3.39331035794885e-07 125000 -856.766149870704 0 0 137 (C1) n - 1
REM
REM in /home/bkarasulu/work/CARBON/AIRSS/Generating-Clusters/EDIP-Nigel-Params/with-SteepDescent/Only-C1/SD-CG/HFTN-CG
REM
REM
REM
REM
REM
REM ./C.cell (11c1c37f851c82e70ff6c80c92926a4b)
REM
REM compiler GCC version 9.2.1 20190827 (Red Hat 9.2.1-1)
REM options -cpp -mtune=generic -march=x86-64 -g -O0 -fpre-include=/usr/include/finclude/math-vector-fortran.h
REM seed 1988925347 1371579335 -2146547293 1173101692 -552556795 -90163469 192656678 -1682247403 -1683494952 2135701047 -2008002268 65624822 -787311093 -727525026 2055877275 1545124779 1858525097 -857793773 315973524 -202605527 1448708722 1614784783 -1405515710 1133648717 1840671171 -894277661 -2082204153 -403973595 -713776822 -1816924963 -70801858 681822042 -479025486
REM
CELL 1.54180   50.00000   50.00000   50.00000   90.00000   90.00000   90.00000
LATT -1
SFAC C  
C      1  0.5404180000000  0.4678940000000  0.5667220000000 1.0
C      1  0.5049760000000  0.3990750000000  0.4734710000000 1.0
C      1  0.4944440000000  0.5904100000000  0.5553230000000 1.0
C      1  0.5349880000000  0.6078580000000  0.4773320000000 1.0
C      1  0.4363430000000  0.4853160000000  0.5182530000000 1.0
C      1  0.4476260000000  0.4239700000000  0.4496940000000 1.0
C      1  0.5144930000000  0.5105300000000  0.5572190000000 1.0
C      1  0.4953210000000  0.5648910000000  0.4335010000000 1.0
C      1  0.5773500000000  0.4980280000000  0.5403010000000 1.0
C      1  0.4793930000000  0.4815980000000  0.4759740000000 1.0
C      1  0.5237990000000  0.4974710000000  0.4623480000000 1.0
C      1  0.4778630000000  0.4986370000000  0.4422470000000 1.0
C      1  0.4370370000000  0.5584800000000  0.5336820000000 1.0
C      1  0.5307250000000  0.5190260000000  0.5811080000000 1.0
C      1  0.5816870000000  0.5195020000000  0.4457480000000 1.0
C      1  0.4854120000000  0.6096770000000  0.5106280000000 1.0
C      1  0.4747740000000  0.5363710000000  0.5387300000000 1.0
C      1  0.4316410000000  0.5541260000000  0.5045880000000 1.0
C      1  0.4917310000000  0.4953220000000  0.6072670000000 1.0
C      1  0.5541820000000  0.5808940000000  0.5068460000000 1.0
C      1  0.4827060000000  0.5725140000000  0.5736200000000 1.0
C      1  0.4955500000000  0.4075870000000  0.4456330000000 1.0
C      1  0.4434260000000  0.4717730000000  0.4329320000000 1.0
C      1  0.5471770000000  0.5168290000000  0.4728470000000 1.0
C      1  0.4650010000000  0.5058380000000  0.5220820000000 1.0
C      1  0.4691390000000  0.5550040000000  0.4276190000000 1.0
C      1  0.4693570000000  0.5299960000000  0.4800710000000 1.0
C      1  0.5043290000000  0.5331120000000  0.5412490000000 1.0
C      1  0.4524110000000  0.5152150000000  0.4371400000000 1.0
C      1  0.5223520000000  0.5901590000000  0.5576200000000 1.0
C      1  0.4811890000000  0.5888820000000  0.5288700000000 1.0
C      1  0.4910870000000  0.4629790000000  0.5701340000000 1.0
C      1  0.4083320000000  0.5017230000000  0.4526450000000 1.0
C      1  0.4320780000000  0.5552920000000  0.4583460000000 1.0
C      1  0.4894810000000  0.5429680000000  0.5977110000000 1.0
C      1  0.4311800000000  0.4305510000000  0.4934310000000 1.0
C      1  0.5357830000000  0.4059950000000  0.4742920000000 1.0
C      1  0.4664600000000  0.4565490000000  0.4892430000000 1.0
C      1  0.5957260000000  0.5343060000000  0.4647140000000 1.0
C      1  0.4876670000000  0.4883260000000  0.4148510000000 1.0
C      1  0.5790050000000  0.4457930000000  0.4748460000000 1.0
C      1  0.4620770000000  0.5372610000000  0.5898710000000 1.0
C      1  0.4107680000000  0.4911390000000  0.5326660000000 1.0
C      1  0.5179650000000  0.4221790000000  0.4324010000000 1.0
C      1  0.5101650000000  0.5122670000000  0.4962680000000 1.0
C      1  0.5597780000000  0.5700160000000  0.5332270000000 1.0
C      1  0.5009180000000  0.5850900000000  0.4527530000000 1.0
C      1  0.5077400000000  0.4744570000000  0.4731470000000 1.0
C      1  0.5562360000000  0.5320120000000  0.4385850000000 1.0
C      1  0.4743660000000  0.4267190000000  0.4400490000000 1.0
C      1  0.5133880000000  0.4459550000000  0.4770330000000 1.0
C      1  0.4795800000000  0.5067280000000  0.4943290000000 1.0
C      1  0.4321600000000  0.4839000000000  0.4893430000000 1.0
C      1  0.5684240000000  0.5147240000000  0.4986420000000 1.0
C      1  0.5131940000000  0.4727820000000  0.4172670000000 1.0
C      1  0.5070890000000  0.4440220000000  0.4148090000000 1.0
C      1  0.5030300000000  0.4052410000000  0.5641480000000 1.0
C      1  0.4233290000000  0.5098530000000  0.4766310000000 1.0
C      1  0.4727530000000  0.5609010000000  0.5181620000000 1.0
C      1  0.5135810000000  0.3999140000000  0.5377710000000 1.0
C      1  0.4648310000000  0.4678760000000  0.4126600000000 1.0
C      1  0.5407680000000  0.5692680000000  0.5550800000000 1.0
C      1  0.5454230000000  0.4180240000000  0.4998170000000 1.0
C      1  0.5724010000000  0.4313440000000  0.5009760000000 1.0
C      1  0.4450840000000  0.5283440000000  0.4632010000000 1.0
C      1  0.5332950000000  0.4310290000000  0.4564540000000 1.0
C      1  0.4802040000000  0.6034090000000  0.4607610000000 1.0
C      1  0.5405640000000  0.6051740000000  0.5036620000000 1.0
C      1  0.4542950000000  0.5111370000000  0.5834790000000 1.0
C      1  0.5386760000000  0.4854760000000  0.4230260000000 1.0
C      1  0.4148540000000  0.5298900000000  0.4999380000000 1.0
C      1  0.4535770000000  0.5937760000000  0.4567530000000 1.0
C      1  0.5889450000000  0.5508980000000  0.4862750000000 1.0
C      1  0.5689530000000  0.4539110000000  0.5230930000000 1.0
C      1  0.4196030000000  0.4854650000000  0.5610170000000 1.0
C      1  0.5299980000000  0.4446000000000  0.5019330000000 1.0
C      1  0.5810670000000  0.4905700000000  0.4470690000000 1.0
C      1  0.5931410000000  0.5405980000000  0.5130290000000 1.0
C      1  0.4711870000000  0.4572220000000  0.5200890000000 1.0
C      1  0.5653830000000  0.5680140000000  0.4826930000000 1.0
C      1  0.5419560000000  0.4218260000000  0.5513140000000 1.0
C      1  0.5751410000000  0.5461950000000  0.5350680000000 1.0
C      1  0.5169040000000  0.5295740000000  0.4092020000000 1.0
C      1  0.5740440000000  0.5059080000000  0.5674100000000 1.0
C      1  0.5444940000000  0.4711220000000  0.4975440000000 1.0
C      1  0.4904580000000  0.5159700000000  0.4007250000000 1.0
C      1  0.4631150000000  0.4891400000000  0.6008640000000 1.0
C      1  0.4684440000000  0.3946100000000  0.4860250000000 1.0
C      1  0.5462080000000  0.5462740000000  0.5742860000000 1.0
C      1  0.5881560000000  0.4767280000000  0.5245220000000 1.0
C      1  0.4345390000000  0.5718030000000  0.4818810000000 1.0
C      1  0.4778680000000  0.4411900000000  0.4152540000000 1.0
C      1  0.4669890000000  0.5335630000000  0.4074930000000 1.0
C      1  0.4856710000000  0.4311360000000  0.4824280000000 1.0
C      1  0.4468410000000  0.5711880000000  0.4386880000000 1.0
C      1  0.4435990000000  0.4554080000000  0.5325110000000 1.0
C      1  0.5882330000000  0.4900210000000  0.4982590000000 1.0
C      1  0.4821280000000  0.4828350000000  0.5317990000000 1.0
C      1  0.4291070000000  0.4971940000000  0.4333880000000 1.0
C      1  0.4263500000000  0.5332210000000  0.5468850000000 1.0
C      1  0.5013720000000  0.5165230000000  0.4530680000000 1.0
C      1  0.4619360000000  0.5533240000000  0.5645190000000 1.0
C      1  0.5494160000000  0.4943780000000  0.5796150000000 1.0
C      1  0.4331630000000  0.4290530000000  0.5223500000000 1.0
C      1  0.4907650000000  0.4362130000000  0.5262270000000 1.0
C      1  0.5301350000000  0.5429930000000  0.4723450000000 1.0
C      1  0.5481820000000  0.5139510000000  0.5214190000000 1.0
C      1  0.5599140000000  0.4448380000000  0.4503790000000 1.0
C      1  0.4288810000000  0.4560220000000  0.4780640000000 1.0
C      1  0.5132390000000  0.4791720000000  0.5341440000000 1.0
C      1  0.4915620000000  0.4937940000000  0.5686620000000 1.0
C      1  0.5285490000000  0.4930540000000  0.5119950000000 1.0
C      1  0.5415860000000  0.5144590000000  0.4177140000000 1.0
C      1  0.4089210000000  0.5200890000000  0.5275360000000 1.0
C      1  0.4842410000000  0.6167790000000  0.4847830000000 1.0
C      1  0.5469030000000  0.5642330000000  0.4584310000000 1.0
C      1  0.4478490000000  0.4060390000000  0.5285010000000 1.0
C      1  0.5068070000000  0.5199270000000  0.6011450000000 1.0
C      1  0.5171660000000  0.5367080000000  0.5144300000000 1.0
C      1  0.4630520000000  0.4633100000000  0.5835300000000 1.0
C      1  0.4693800000000  0.3932330000000  0.5158580000000 1.0
C      1  0.5165480000000  0.4490330000000  0.5283730000000 1.0
C      1  0.5292130000000  0.5893480000000  0.4573610000000 1.0
C      1  0.5708290000000  0.4748850000000  0.4802690000000 1.0
C      1  0.5232450000000  0.4230850000000  0.5736310000000 1.0
C      1  0.4918970000000  0.5478460000000  0.4738910000000 1.0
C      1  0.5138370000000  0.5426290000000  0.4368970000000 1.0
C      1  0.5175690000000  0.4524450000000  0.5791660000000 1.0
C      1  0.4323710000000  0.4497340000000  0.4489200000000 1.0
C      1  0.5715270000000  0.5355670000000  0.5631190000000 1.0
C      1  0.5603640000000  0.4724130000000  0.4376010000000 1.0
C      1  0.4394700000000  0.4621500000000  0.5627540000000 1.0
C      1  0.4989720000000  0.5562050000000  0.5008390000000 1.0
C      1  0.4460920000000  0.4119140000000  0.4764350000000 1.0
C      1  0.4313830000000  0.5114010000000  0.5667190000000 1.0
C      1  0.5555080000000  0.4475780000000  0.5497520000000 1.0
C      1  0.4954760000000  0.4091210000000  0.5150250000000 1.0
END
