TITL C-950528-5794-396 -3.28460300506177e-06 125000 -327.282853032422 0 0 55 (C1) n - 1
REM
REM in /home/bkarasulu/work/CARBON/AIRSS/Generating-Clusters/EDIP-Nigel-Params/with-SteepDescent/Only-C1/SD-CG/HFTN-CG
REM
REM
REM
REM
REM
REM ./C.cell (11c1c37f851c82e70ff6c80c92926a4b)
REM
REM compiler GCC version 9.2.1 20190827 (Red Hat 9.2.1-1)
REM options -cpp -mtune=generic -march=x86-64 -g -O0 -fpre-include=/usr/include/finclude/math-vector-fortran.h
REM seed -1043392076 1074184504 1350951811 507739999 -46182848 -1065626482 -1907011235 1084416658 -968650407 1706132526 1166551208 -674180398 -336101527 -274862566 1652167494 -1355112151 1463547770 -1675220467 978624708 -1595334067 112878914 314100743 931241879 -1703778056 1328487162 -2067723434 -47863093 -928063697 -777710733 -1556096333 1039911472 2145845433 59822633
REM
CELL 1.54180   50.00000   50.00000   50.00000   90.00000   90.00000   90.00000
LATT -1
SFAC C  
C      1  0.5074760000000  0.4317550000000  0.4943570000000 1.0
C      1  0.4795680000000  0.5742200000000  0.5210110000000 1.0
C      1  0.4880280000000  0.4568950000000  0.5399430000000 1.0
C      1  0.4803780000000  0.5002880000000  0.4847240000000 1.0
C      1  0.4739740000000  0.5670390000000  0.4938510000000 1.0
C      1  0.5452000000000  0.4565300000000  0.5457080000000 1.0
C      1  0.4978880000000  0.5554600000000  0.4835850000000 1.0
C      1  0.4804130000000  0.5261040000000  0.5195310000000 1.0
C      1  0.5076090000000  0.5074330000000  0.4770770000000 1.0
C      1  0.5677900000000  0.4664550000000  0.5317330000000 1.0
C      1  0.5730700000000  0.4585590000000  0.5052440000000 1.0
C      1  0.5333130000000  0.4306180000000  0.4857080000000 1.0
C      1  0.5723120000000  0.5124560000000  0.5112970000000 1.0
C      1  0.5423570000000  0.5414860000000  0.4673370000000 1.0
C      1  0.4396970000000  0.5127030000000  0.5376020000000 1.0
C      1  0.4662630000000  0.5032840000000  0.5338820000000 1.0
C      1  0.4819970000000  0.5478100000000  0.5404250000000 1.0
C      1  0.4241690000000  0.4729220000000  0.4585900000000 1.0
C      1  0.5538760000000  0.5008710000000  0.4896640000000 1.0
C      1  0.4541790000000  0.5288000000000  0.4916790000000 1.0
C      1  0.4808650000000  0.4758810000000  0.5034900000000 1.0
C      1  0.5249590000000  0.5040900000000  0.4992990000000 1.0
C      1  0.4743960000000  0.4393860000000  0.5228490000000 1.0
C      1  0.5378180000000  0.5294830000000  0.5394610000000 1.0
C      1  0.4159080000000  0.5007020000000  0.4978840000000 1.0
C      1  0.4933480000000  0.5307280000000  0.5624020000000 1.0
C      1  0.5586380000000  0.5171670000000  0.4646540000000 1.0
C      1  0.4643940000000  0.4467300000000  0.4740460000000 1.0
C      1  0.4844920000000  0.5035750000000  0.5573450000000 1.0
C      1  0.5718700000000  0.4955330000000  0.5365570000000 1.0
C      1  0.5304150000000  0.4796780000000  0.5522640000000 1.0
C      1  0.4177840000000  0.4757350000000  0.5109400000000 1.0
C      1  0.4663530000000  0.4963850000000  0.4582800000000 1.0
C      1  0.4455110000000  0.5173890000000  0.4640010000000 1.0
C      1  0.5171660000000  0.5535800000000  0.5061680000000 1.0
C      1  0.4982250000000  0.5300630000000  0.4390230000000 1.0
C      1  0.4521240000000  0.4692220000000  0.4574470000000 1.0
C      1  0.5382690000000  0.4545930000000  0.4715380000000 1.0
C      1  0.5110000000000  0.5344260000000  0.4648980000000 1.0
C      1  0.4877390000000  0.5035090000000  0.4374630000000 1.0
C      1  0.4456390000000  0.4707590000000  0.5116370000000 1.0
C      1  0.5081150000000  0.5729690000000  0.5268990000000 1.0
C      1  0.4927500000000  0.4539050000000  0.4824570000000 1.0
C      1  0.5070310000000  0.4832430000000  0.4402540000000 1.0
C      1  0.5575390000000  0.5054360000000  0.4407380000000 1.0
C      1  0.5012560000000  0.4803930000000  0.5496190000000 1.0
C      1  0.5149830000000  0.5252500000000  0.5184780000000 1.0
C      1  0.5598170000000  0.5388260000000  0.5192550000000 1.0
C      1  0.4325580000000  0.5210290000000  0.5111710000000 1.0
C      1  0.5456560000000  0.5542330000000  0.4958020000000 1.0
C      1  0.5476600000000  0.5039790000000  0.5522080000000 1.0
C      1  0.5123170000000  0.4660250000000  0.4622910000000 1.0
C      1  0.4216680000000  0.4997070000000  0.4685630000000 1.0
C      1  0.5590750000000  0.4713200000000  0.4845910000000 1.0
C      1  0.4531050000000  0.4433790000000  0.5030780000000 1.0
END
