TITL C-950531-5884-285 -3.28411671365063e-06 125000 -443.690866938023 0 0 72 (C1) n - 1
REM
REM in /home/bkarasulu/work/CARBON/AIRSS/Generating-Clusters/EDIP-Nigel-Params/with-SteepDescent/Only-C1/SD-CG/HFTN-CG
REM
REM
REM
REM
REM
REM ./C.cell (11c1c37f851c82e70ff6c80c92926a4b)
REM
REM compiler GCC version 9.2.1 20190827 (Red Hat 9.2.1-1)
REM options -cpp -mtune=generic -march=x86-64 -g -O0 -fpre-include=/usr/include/finclude/math-vector-fortran.h
REM seed 2022005005 1544679569 971246347 -1179437170 -245569604 -742706641 921713918 -441960699 -1362504709 -1833692642 -1623543733 1770431114 -1855264874 -1844178138 -246284351 -1639530985 -1770647410 1635526884 -1634639038 -796259902 -1480675204 114759178 -1380346759 809380763 720488235 2071231853 1160777311 -1133779109 451784697 1206220755 779994378 1019525886 1393035639
REM
CELL 1.54180   50.00000   50.00000   50.00000   90.00000   90.00000   90.00000
LATT -1
SFAC C  
C      1  0.5600030000000  0.5291460000000  0.4686100000000 1.0
C      1  0.5619690000000  0.5258280000000  0.5260640000000 1.0
C      1  0.5925210000000  0.4902250000000  0.4761540000000 1.0
C      1  0.4841520000000  0.5251540000000  0.5149300000000 1.0
C      1  0.5335420000000  0.5216740000000  0.5599760000000 1.0
C      1  0.5534590000000  0.5026860000000  0.5086400000000 1.0
C      1  0.4758120000000  0.5508640000000  0.5309080000000 1.0
C      1  0.5418410000000  0.4619220000000  0.5428150000000 1.0
C      1  0.4408670000000  0.5738000000000  0.5092310000000 1.0
C      1  0.5584930000000  0.4578900000000  0.4941820000000 1.0
C      1  0.5495880000000  0.4849340000000  0.4521000000000 1.0
C      1  0.4915480000000  0.4240070000000  0.4775450000000 1.0
C      1  0.4872460000000  0.5434320000000  0.5582800000000 1.0
C      1  0.4754350000000  0.4976220000000  0.4324070000000 1.0
C      1  0.5215070000000  0.5543580000000  0.5248610000000 1.0
C      1  0.5347740000000  0.4692430000000  0.4323960000000 1.0
C      1  0.5507440000000  0.5531040000000  0.4842630000000 1.0
C      1  0.5049810000000  0.5732690000000  0.4672040000000 1.0
C      1  0.4974780000000  0.4938200000000  0.4809280000000 1.0
C      1  0.5572480000000  0.4740880000000  0.5193780000000 1.0
C      1  0.4388810000000  0.4822940000000  0.5372120000000 1.0
C      1  0.4818100000000  0.4733950000000  0.4967360000000 1.0
C      1  0.4887640000000  0.5031860000000  0.5351140000000 1.0
C      1  0.4482610000000  0.4947620000000  0.4436830000000 1.0
C      1  0.5143400000000  0.4515360000000  0.4428180000000 1.0
C      1  0.5216100000000  0.4996910000000  0.5751430000000 1.0
C      1  0.4820910000000  0.5526320000000  0.4353060000000 1.0
C      1  0.5416290000000  0.5128980000000  0.4521960000000 1.0
C      1  0.4367430000000  0.5051820000000  0.5189630000000 1.0
C      1  0.5318230000000  0.5704300000000  0.4730700000000 1.0
C      1  0.5508260000000  0.5515070000000  0.5146760000000 1.0
C      1  0.4967860000000  0.5056990000000  0.5863280000000 1.0
C      1  0.4920280000000  0.5240990000000  0.4311360000000 1.0
C      1  0.4813790000000  0.5138540000000  0.5632180000000 1.0
C      1  0.4983940000000  0.4858590000000  0.4494550000000 1.0
C      1  0.5735090000000  0.5093250000000  0.4864750000000 1.0
C      1  0.4557580000000  0.5724680000000  0.4855200000000 1.0
C      1  0.4384990000000  0.4956820000000  0.4916200000000 1.0
C      1  0.4520280000000  0.4685870000000  0.4937680000000 1.0
C      1  0.4756000000000  0.5401620000000  0.4632940000000 1.0
C      1  0.5242570000000  0.5057990000000  0.4981370000000 1.0
C      1  0.4319380000000  0.5313090000000  0.5272270000000 1.0
C      1  0.5119860000000  0.5301810000000  0.5088420000000 1.0
C      1  0.5002770000000  0.4533820000000  0.5714100000000 1.0
C      1  0.4479310000000  0.5508420000000  0.4676050000000 1.0
C      1  0.4660190000000  0.4304860000000  0.4677870000000 1.0
C      1  0.4430070000000  0.5125910000000  0.4673280000000 1.0
C      1  0.5352420000000  0.4340760000000  0.5385060000000 1.0
C      1  0.4593930000000  0.4387810000000  0.5392650000000 1.0
C      1  0.5228340000000  0.4723300000000  0.5643520000000 1.0
C      1  0.4854310000000  0.5740670000000  0.4892940000000 1.0
C      1  0.4422670000000  0.4571980000000  0.5217000000000 1.0
C      1  0.5222740000000  0.5175200000000  0.4302090000000 1.0
C      1  0.5349820000000  0.4405710000000  0.4893900000000 1.0
C      1  0.4703240000000  0.4547650000000  0.5641600000000 1.0
C      1  0.4757750000000  0.4190660000000  0.5259640000000 1.0
C      1  0.4983590000000  0.5745630000000  0.4400460000000 1.0
C      1  0.4769390000000  0.5160760000000  0.4854910000000 1.0
C      1  0.4590030000000  0.4822230000000  0.5587960000000 1.0
C      1  0.5607140000000  0.5223910000000  0.5538410000000 1.0
C      1  0.5212270000000  0.4908520000000  0.4184990000000 1.0
C      1  0.5159020000000  0.4368580000000  0.4672490000000 1.0
C      1  0.4960760000000  0.4172530000000  0.5059740000000 1.0
C      1  0.4812160000000  0.4750770000000  0.5268460000000 1.0
C      1  0.5173380000000  0.5458810000000  0.5542280000000 1.0
C      1  0.4943010000000  0.5717480000000  0.5173800000000 1.0
C      1  0.4473750000000  0.4511430000000  0.4700100000000 1.0
C      1  0.4421870000000  0.4676240000000  0.4482500000000 1.0
C      1  0.5008600000000  0.4507020000000  0.5336280000000 1.0
C      1  0.4462330000000  0.5549900000000  0.5289080000000 1.0
C      1  0.5698630000000  0.4735200000000  0.4708040000000 1.0
C      1  0.5245010000000  0.4258200000000  0.5122680000000 1.0
END
