TITL C-950535-5962-286 0.000443512490485655 125000 -691.014028366563 0 0 111 (C1) n - 1
REM
REM in /home/bkarasulu/work/CARBON/AIRSS/Generating-Clusters/EDIP-Nigel-Params/with-SteepDescent/Only-C1/SD-CG/HFTN-CG
REM
REM
REM
REM
REM
REM ./C.cell (11c1c37f851c82e70ff6c80c92926a4b)
REM
REM compiler GCC version 9.2.1 20190827 (Red Hat 9.2.1-1)
REM options -cpp -mtune=generic -march=x86-64 -g -O0 -fpre-include=/usr/include/finclude/math-vector-fortran.h
REM seed 459641033 1606657807 1918569493 1929295260 1213576032 1457123111 -284246198 1422016891 -1651719658 -216885725 -654864925 -1832829491 1970309102 476499491 655478789 549115830 -1278086809 734938410 2078415650 1263892881 -84879917 -38615054 -376674732 -375883600 -1661076820 -830486675 -1143898547 754359578 -470023174 149815377 -1262013175 -1428993292 90740532
REM
CELL 1.54180   50.00000   50.00000   50.00000   90.00000   90.00000   90.00000
LATT -1
SFAC C  
C      1  0.4498730000000  0.5075140000000  0.4879410000000 1.0
C      1  0.4759520000000  0.4956010000000  0.5056870000000 1.0
C      1  0.5441670000000  0.4424660000000  0.5551070000000 1.0
C      1  0.4654080000000  0.5303270000000  0.4750190000000 1.0
C      1  0.5093600000000  0.4062920000000  0.5167690000000 1.0
C      1  0.4216000000000  0.4571320000000  0.4702600000000 1.0
C      1  0.5254950000000  0.4353960000000  0.4320830000000 1.0
C      1  0.4921560000000  0.4499150000000  0.5229180000000 1.0
C      1  0.5138550000000  0.4260800000000  0.4597520000000 1.0
C      1  0.5737990000000  0.4385110000000  0.4874020000000 1.0
C      1  0.4425010000000  0.5728680000000  0.5154670000000 1.0
C      1  0.5718990000000  0.4784130000000  0.5382870000000 1.0
C      1  0.4849860000000  0.5535360000000  0.5501520000000 1.0
C      1  0.4333390000000  0.5465260000000  0.5252830000000 1.0
C      1  0.4942350000000  0.4724960000000  0.4694640000000 1.0
C      1  0.5540750000000  0.5371340000000  0.5777150000000 1.0
C      1  0.4625360000000  0.4196430000000  0.5124820000000 1.0
C      1  0.4863770000000  0.4163210000000  0.4688680000000 1.0
C      1  0.5479630000000  0.5144310000000  0.5115560000000 1.0
C      1  0.4837510000000  0.5897580000000  0.4452800000000 1.0
C      1  0.4774950000000  0.4693120000000  0.5594050000000 1.0
C      1  0.4311630000000  0.4544670000000  0.5493080000000 1.0
C      1  0.5089860000000  0.5392740000000  0.4751140000000 1.0
C      1  0.5200050000000  0.5303020000000  0.5469060000000 1.0
C      1  0.4908600000000  0.5184760000000  0.4664140000000 1.0
C      1  0.5959270000000  0.5266740000000  0.5562100000000 1.0
C      1  0.5846690000000  0.4882230000000  0.4861090000000 1.0
C      1  0.4424670000000  0.5031270000000  0.5487390000000 1.0
C      1  0.5203870000000  0.5913030000000  0.5284000000000 1.0
C      1  0.5335270000000  0.5399410000000  0.5201020000000 1.0
C      1  0.4685320000000  0.5678280000000  0.4427950000000 1.0
C      1  0.4677060000000  0.4658970000000  0.5098140000000 1.0
C      1  0.5949060000000  0.5299100000000  0.5078540000000 1.0
C      1  0.5235300000000  0.5355480000000  0.4274140000000 1.0
C      1  0.4638770000000  0.4351850000000  0.4608240000000 1.0
C      1  0.4776070000000  0.6064600000000  0.4882380000000 1.0
C      1  0.5053230000000  0.5882750000000  0.5518230000000 1.0
C      1  0.4505450000000  0.6017510000000  0.4829330000000 1.0
C      1  0.4710440000000  0.4986350000000  0.5547450000000 1.0
C      1  0.5477270000000  0.5844840000000  0.4785860000000 1.0
C      1  0.4850790000000  0.5383330000000  0.5235030000000 1.0
C      1  0.4647290000000  0.4571950000000  0.4311050000000 1.0
C      1  0.4362290000000  0.4237970000000  0.5003430000000 1.0
C      1  0.5503820000000  0.4899290000000  0.4416490000000 1.0
C      1  0.5168670000000  0.4473910000000  0.5016800000000 1.0
C      1  0.5541720000000  0.5192770000000  0.4445960000000 1.0
C      1  0.5352340000000  0.4115550000000  0.4750810000000 1.0
C      1  0.5282540000000  0.5473150000000  0.4542430000000 1.0
C      1  0.5670930000000  0.5321650000000  0.4678460000000 1.0
C      1  0.4647330000000  0.5410330000000  0.5680610000000 1.0
C      1  0.4867810000000  0.4687300000000  0.4153420000000 1.0
C      1  0.4185340000000  0.4433650000000  0.5140760000000 1.0
C      1  0.5619110000000  0.5609670000000  0.4681340000000 1.0
C      1  0.4453100000000  0.5272090000000  0.4329800000000 1.0
C      1  0.4683500000000  0.4606820000000  0.4779490000000 1.0
C      1  0.4318870000000  0.5841300000000  0.4921590000000 1.0
C      1  0.4135420000000  0.5334930000000  0.5104200000000 1.0
C      1  0.5741770000000  0.5164200000000  0.4928100000000 1.0
C      1  0.4530500000000  0.5468670000000  0.4529690000000 1.0
C      1  0.5310220000000  0.4856810000000  0.4212210000000 1.0
C      1  0.4518690000000  0.4814140000000  0.4411130000000 1.0
C      1  0.5326670000000  0.4207910000000  0.5034750000000 1.0
C      1  0.5267180000000  0.5398870000000  0.5750310000000 1.0
C      1  0.5085680000000  0.5147300000000  0.5831540000000 1.0
C      1  0.5571280000000  0.5930340000000  0.5034490000000 1.0
C      1  0.5686730000000  0.5231000000000  0.5587580000000 1.0
C      1  0.5134250000000  0.5087760000000  0.4204440000000 1.0
C      1  0.4691880000000  0.5852110000000  0.5194300000000 1.0
C      1  0.4041890000000  0.4604890000000  0.4937750000000 1.0
C      1  0.5169600000000  0.4547250000000  0.4719750000000 1.0
C      1  0.5276020000000  0.4939930000000  0.5007030000000 1.0
C      1  0.5611980000000  0.4217540000000  0.4647880000000 1.0
C      1  0.4245240000000  0.4823930000000  0.5558890000000 1.0
C      1  0.4782890000000  0.5160110000000  0.5782360000000 1.0
C      1  0.4782290000000  0.5823710000000  0.5470480000000 1.0
C      1  0.4398890000000  0.5328060000000  0.5513260000000 1.0
C      1  0.5536860000000  0.4405860000000  0.4422180000000 1.0
C      1  0.4186170000000  0.5143330000000  0.4662690000000 1.0
C      1  0.4989760000000  0.4961150000000  0.4856460000000 1.0
C      1  0.5607500000000  0.4306650000000  0.5130740000000 1.0
C      1  0.6058430000000  0.4786570000000  0.5019010000000 1.0
C      1  0.5536020000000  0.4549510000000  0.5308480000000 1.0
C      1  0.5288370000000  0.4688420000000  0.5173580000000 1.0
C      1  0.4671390000000  0.5066860000000  0.4378000000000 1.0
C      1  0.4357510000000  0.4302920000000  0.4714730000000 1.0
C      1  0.4066110000000  0.5133560000000  0.4923980000000 1.0
C      1  0.5033640000000  0.4627980000000  0.5708180000000 1.0
C      1  0.5246320000000  0.4992060000000  0.5478980000000 1.0
C      1  0.4851810000000  0.4085610000000  0.4979510000000 1.0
C      1  0.5475860000000  0.5967350000000  0.5281850000000 1.0
C      1  0.4370700000000  0.4688940000000  0.5213930000000 1.0
C      1  0.5661090000000  0.4664410000000  0.4815550000000 1.0
C      1  0.4446150000000  0.4782700000000  0.4690880000000 1.0
C      1  0.4191170000000  0.5179660000000  0.4384890000000 1.0
C      1  0.5165790000000  0.4397690000000  0.5581550000000 1.0
C      1  0.5206430000000  0.4869370000000  0.5746370000000 1.0
C      1  0.5472050000000  0.4654040000000  0.4591720000000 1.0
C      1  0.5174670000000  0.5824690000000  0.4782700000000 1.0
C      1  0.5001990000000  0.4179800000000  0.5438920000000 1.0
C      1  0.5052990000000  0.5791010000000  0.5058660000000 1.0
C      1  0.4856310000000  0.4995290000000  0.4152500000000 1.0
C      1  0.5082800000000  0.5482330000000  0.5054070000000 1.0
C      1  0.4027840000000  0.4873790000000  0.5015110000000 1.0
C      1  0.4697060000000  0.4230020000000  0.5415450000000 1.0
C      1  0.5142170000000  0.4619880000000  0.4243140000000 1.0
C      1  0.5989370000000  0.4866270000000  0.5281140000000 1.0
C      1  0.4854540000000  0.5092130000000  0.5300080000000 1.0
C      1  0.4588410000000  0.4469860000000  0.5563410000000 1.0
C      1  0.4968990000000  0.6003560000000  0.4674440000000 1.0
C      1  0.6028800000000  0.5160510000000  0.5311730000000 1.0
C      1  0.5554320000000  0.5031740000000  0.5405550000000 1.0
END
