TITL C-951343-2256-323 -3.43217873769324e-06 125000 -804.319163684687 0 0 129 (C1) n - 1
REM
REM in /home/bkarasulu/work/CARBON/AIRSS/Generating-Clusters/EDIP-Nigel-Params/with-SteepDescent/Only-C1/SD-CG/HFTN-CG
REM
REM
REM
REM
REM
REM ./C.cell (11c1c37f851c82e70ff6c80c92926a4b)
REM
REM compiler GCC version 9.2.1 20190827 (Red Hat 9.2.1-1)
REM options -cpp -mtune=generic -march=x86-64 -g -O0 -fpre-include=/usr/include/finclude/math-vector-fortran.h
REM seed -686773438 1911485433 1696776265 -215018384 -422599608 397982364 1520864631 261146350 -1908129078 957401120 1277221139 1415524605 401387310 -1184499823 -840324148 190929738 -6903673 102843112 -418600373 449079599 78877797 1374482843 -310048832 1525186292 -56961038 -66814600 408321139 791021086 2071937467 -843625133 1918777981 945652807 -1267473186
REM
CELL 1.54180   50.00000   50.00000   50.00000   90.00000   90.00000   90.00000
LATT -1
SFAC C  
C      1  0.4972970000000  0.5672920000000  0.5686470000000 1.0
C      1  0.5663490000000  0.4191470000000  0.4886730000000 1.0
C      1  0.4638980000000  0.4905190000000  0.4154880000000 1.0
C      1  0.4280920000000  0.5802000000000  0.4738900000000 1.0
C      1  0.4889760000000  0.5208430000000  0.5409480000000 1.0
C      1  0.4967080000000  0.5870500000000  0.5068620000000 1.0
C      1  0.4034530000000  0.4492570000000  0.4893060000000 1.0
C      1  0.4670550000000  0.5375410000000  0.5232560000000 1.0
C      1  0.5569950000000  0.5472020000000  0.4620310000000 1.0
C      1  0.5889900000000  0.5159370000000  0.4921700000000 1.0
C      1  0.4212510000000  0.4413970000000  0.5416210000000 1.0
C      1  0.5179850000000  0.5440170000000  0.4200240000000 1.0
C      1  0.3974650000000  0.5207490000000  0.5147430000000 1.0
C      1  0.5535920000000  0.4409810000000  0.5571040000000 1.0
C      1  0.5327650000000  0.5931310000000  0.4703430000000 1.0
C      1  0.5062520000000  0.4218020000000  0.4261200000000 1.0
C      1  0.4746130000000  0.4653630000000  0.4258490000000 1.0
C      1  0.4948960000000  0.4054710000000  0.4703140000000 1.0
C      1  0.4594850000000  0.4262730000000  0.4496130000000 1.0
C      1  0.5527830000000  0.5705650000000  0.5125630000000 1.0
C      1  0.5372920000000  0.5184300000000  0.4972660000000 1.0
C      1  0.4252750000000  0.4599940000000  0.4370980000000 1.0
C      1  0.5414660000000  0.4734640000000  0.4639010000000 1.0
C      1  0.5254290000000  0.4940510000000  0.5610050000000 1.0
C      1  0.5097790000000  0.4909500000000  0.3975160000000 1.0
C      1  0.4194860000000  0.4680430000000  0.5493410000000 1.0
C      1  0.4530650000000  0.5685730000000  0.5166320000000 1.0
C      1  0.4118190000000  0.5640220000000  0.4908170000000 1.0
C      1  0.5138430000000  0.4767180000000  0.5406020000000 1.0
C      1  0.4423600000000  0.5327750000000  0.4329860000000 1.0
C      1  0.5746920000000  0.4813760000000  0.5303110000000 1.0
C      1  0.4378560000000  0.5379590000000  0.4790300000000 1.0
C      1  0.3941040000000  0.4931320000000  0.5136640000000 1.0
C      1  0.5237420000000  0.5437010000000  0.5122580000000 1.0
C      1  0.5224090000000  0.4029880000000  0.4804270000000 1.0
C      1  0.5128590000000  0.5486170000000  0.4661250000000 1.0
C      1  0.5210240000000  0.5197110000000  0.4604040000000 1.0
C      1  0.4427930000000  0.5218590000000  0.5335650000000 1.0
C      1  0.4971490000000  0.4721730000000  0.4464410000000 1.0
C      1  0.4892580000000  0.5889820000000  0.5508480000000 1.0
C      1  0.4851030000000  0.4558050000000  0.5707850000000 1.0
C      1  0.4532610000000  0.5835430000000  0.4875590000000 1.0
C      1  0.5289250000000  0.4379610000000  0.4281790000000 1.0
C      1  0.5756310000000  0.5562500000000  0.5211860000000 1.0
C      1  0.5469710000000  0.4158760000000  0.4688890000000 1.0
C      1  0.4676170000000  0.4454750000000  0.5263740000000 1.0
C      1  0.4887930000000  0.4896450000000  0.5326260000000 1.0
C      1  0.5665650000000  0.4548760000000  0.4641840000000 1.0
C      1  0.5831250000000  0.5348030000000  0.5376170000000 1.0
C      1  0.5232920000000  0.5677110000000  0.5807110000000 1.0
C      1  0.4515830000000  0.4497290000000  0.4353160000000 1.0
C      1  0.4602540000000  0.5830500000000  0.5430980000000 1.0
C      1  0.4868270000000  0.5512350000000  0.4799170000000 1.0
C      1  0.5877490000000  0.4661690000000  0.4829570000000 1.0
C      1  0.4233510000000  0.5612990000000  0.5169470000000 1.0
C      1  0.5521170000000  0.5047470000000  0.5948400000000 1.0
C      1  0.4706980000000  0.4803640000000  0.4796870000000 1.0
C      1  0.5157140000000  0.4803580000000  0.4930640000000 1.0
C      1  0.4864390000000  0.5056290000000  0.4020870000000 1.0
C      1  0.5390150000000  0.5147150000000  0.5452000000000 1.0
C      1  0.5351620000000  0.5798340000000  0.5356560000000 1.0
C      1  0.4874560000000  0.4180080000000  0.4462440000000 1.0
C      1  0.5587260000000  0.4976470000000  0.4581340000000 1.0
C      1  0.5224410000000  0.5906750000000  0.4440970000000 1.0
C      1  0.4689100000000  0.5446670000000  0.4266420000000 1.0
C      1  0.5631730000000  0.5280790000000  0.5584980000000 1.0
C      1  0.5005510000000  0.4722380000000  0.5902940000000 1.0
C      1  0.5105810000000  0.5955880000000  0.5305350000000 1.0
C      1  0.5717720000000  0.4323090000000  0.5126300000000 1.0
C      1  0.5969880000000  0.4922900000000  0.4796260000000 1.0
C      1  0.4886680000000  0.4880670000000  0.5027240000000 1.0
C      1  0.4282950000000  0.4820360000000  0.4557860000000 1.0
C      1  0.4767700000000  0.5215010000000  0.5695060000000 1.0
C      1  0.5000170000000  0.5041400000000  0.5877360000000 1.0
C      1  0.4450240000000  0.4810540000000  0.5573250000000 1.0
C      1  0.5312860000000  0.4848390000000  0.4142040000000 1.0
C      1  0.4476950000000  0.4218230000000  0.4768040000000 1.0
C      1  0.5724030000000  0.5206860000000  0.5841350000000 1.0
C      1  0.4480340000000  0.5103360000000  0.5603850000000 1.0
C      1  0.5170620000000  0.5326830000000  0.5383630000000 1.0
C      1  0.4285620000000  0.5474060000000  0.4537180000000 1.0
C      1  0.4172300000000  0.5352920000000  0.5287350000000 1.0
C      1  0.5253680000000  0.4665180000000  0.4371370000000 1.0
C      1  0.5434500000000  0.5675650000000  0.4813070000000 1.0
C      1  0.5617900000000  0.5220090000000  0.4784740000000 1.0
C      1  0.3987520000000  0.4776370000000  0.4890130000000 1.0
C      1  0.5312350000000  0.4736540000000  0.5177280000000 1.0
C      1  0.5302840000000  0.4396050000000  0.5017640000000 1.0
C      1  0.4325210000000  0.4455090000000  0.4915660000000 1.0
C      1  0.5763570000000  0.4878400000000  0.4340410000000 1.0
C      1  0.5514640000000  0.4282150000000  0.5318660000000 1.0
C      1  0.4778380000000  0.5705690000000  0.4380680000000 1.0
C      1  0.5281540000000  0.5461810000000  0.5974060000000 1.0
C      1  0.3977740000000  0.4816690000000  0.5386670000000 1.0
C      1  0.4761860000000  0.5773970000000  0.4688020000000 1.0
C      1  0.4393330000000  0.4407060000000  0.5205700000000 1.0
C      1  0.4965950000000  0.4299950000000  0.5632770000000 1.0
C      1  0.4707000000000  0.5059040000000  0.4624040000000 1.0
C      1  0.4658280000000  0.5293860000000  0.4801560000000 1.0
C      1  0.4743490000000  0.5512800000000  0.5768910000000 1.0
C      1  0.4905540000000  0.4045930000000  0.5179440000000 1.0
C      1  0.5458740000000  0.4808110000000  0.5779640000000 1.0
C      1  0.5407860000000  0.5311270000000  0.4358780000000 1.0
C      1  0.5085600000000  0.5651240000000  0.4399950000000 1.0
C      1  0.5315530000000  0.4366960000000  0.5758780000000 1.0
C      1  0.5028600000000  0.5987810000000  0.4770560000000 1.0
C      1  0.5758660000000  0.4579650000000  0.4360030000000 1.0
C      1  0.4924790000000  0.5258350000000  0.4225010000000 1.0
C      1  0.4758770000000  0.4134390000000  0.4915580000000 1.0
C      1  0.5530570000000  0.4270850000000  0.4409710000000 1.0
C      1  0.4493280000000  0.5037310000000  0.4402680000000 1.0
C      1  0.5194440000000  0.4072750000000  0.5103880000000 1.0
C      1  0.5529740000000  0.5043580000000  0.4201240000000 1.0
C      1  0.5659000000000  0.4681360000000  0.5580230000000 1.0
C      1  0.4810640000000  0.4222660000000  0.5396610000000 1.0
C      1  0.5258670000000  0.5184440000000  0.5984530000000 1.0
C      1  0.4795950000000  0.4451300000000  0.4955810000000 1.0
C      1  0.4958140000000  0.5567150000000  0.5068040000000 1.0
C      1  0.5899850000000  0.5110140000000  0.5215860000000 1.0
C      1  0.5060980000000  0.4540990000000  0.4803630000000 1.0
C      1  0.5426040000000  0.5783620000000  0.5631400000000 1.0
C      1  0.5475310000000  0.4989790000000  0.5201440000000 1.0
C      1  0.4705250000000  0.4688210000000  0.5473400000000 1.0
C      1  0.5284280000000  0.4606920000000  0.5921230000000 1.0
C      1  0.4529710000000  0.5660880000000  0.5650990000000 1.0
C      1  0.4020990000000  0.4915580000000  0.4644760000000 1.0
C      1  0.5807610000000  0.4596580000000  0.5100310000000 1.0
C      1  0.4422070000000  0.4725420000000  0.4813580000000 1.0
C      1  0.4969220000000  0.5063400000000  0.4473540000000 1.0
END
