TITL C-950522-5749-150 -5.12476716843189e-07 125000 -1073.95826960201 0 0 171 (C1) n - 1
REM
REM in /home/bkarasulu/work/CARBON/AIRSS/Generating-Clusters/EDIP-Nigel-Params/with-SteepDescent/Only-C1/SD-CG/HFTN-CG
REM
REM
REM
REM
REM
REM ./C.cell (11c1c37f851c82e70ff6c80c92926a4b)
REM
REM compiler GCC version 9.2.1 20190827 (Red Hat 9.2.1-1)
REM options -cpp -mtune=generic -march=x86-64 -g -O0 -fpre-include=/usr/include/finclude/math-vector-fortran.h
REM seed 2069640788 1320776257 -1382489262 1494418060 1713780494 -1296960759 966331089 533540304 -1697926423 -1425838526 -1220058743 -1374897885 -1436672066 351240119 727000008 -1709353263 -823018525 51233472 -1346043944 -1370121115 -1147822942 2010500871 373801923 -779366595 1827406365 86786602 -129326271 -419706340 1206457141 167348817 -1025594744 -1292183600 -1903584809
REM
CELL 1.54180   50.00000   50.00000   50.00000   90.00000   90.00000   90.00000
LATT -1
SFAC C  
C      1  0.4685580000000  0.5880250000000  0.5289680000000 1.0
C      1  0.5509250000000  0.5553490000000  0.5719540000000 1.0
C      1  0.4729720000000  0.4654520000000  0.5166650000000 1.0
C      1  0.5513860000000  0.4925900000000  0.4767360000000 1.0
C      1  0.5450660000000  0.4473880000000  0.5027960000000 1.0
C      1  0.5152870000000  0.4865690000000  0.5097160000000 1.0
C      1  0.5309940000000  0.4732650000000  0.4901280000000 1.0
C      1  0.4972290000000  0.4403020000000  0.4309060000000 1.0
C      1  0.4336610000000  0.5019520000000  0.5881730000000 1.0
C      1  0.4972380000000  0.5279260000000  0.5227850000000 1.0
C      1  0.5336320000000  0.4281210000000  0.4799180000000 1.0
C      1  0.4334830000000  0.4640970000000  0.4170710000000 1.0
C      1  0.5867990000000  0.4445780000000  0.5281660000000 1.0
C      1  0.5742010000000  0.5701200000000  0.5610660000000 1.0
C      1  0.5936720000000  0.4903460000000  0.5118960000000 1.0
C      1  0.4166640000000  0.5902480000000  0.5038030000000 1.0
C      1  0.4772420000000  0.5514630000000  0.5188480000000 1.0
C      1  0.5148010000000  0.5211640000000  0.4710350000000 1.0
C      1  0.4437530000000  0.5733360000000  0.5422540000000 1.0
C      1  0.5380100000000  0.4449540000000  0.5553780000000 1.0
C      1  0.5075730000000  0.4935340000000  0.5588530000000 1.0
C      1  0.4953300000000  0.4006590000000  0.5388550000000 1.0
C      1  0.5014020000000  0.5681570000000  0.4811690000000 1.0
C      1  0.4961890000000  0.3951700000000  0.4510210000000 1.0
C      1  0.4391820000000  0.4914900000000  0.4867630000000 1.0
C      1  0.5074600000000  0.4649610000000  0.4710290000000 1.0
C      1  0.5387880000000  0.4650160000000  0.4066670000000 1.0
C      1  0.3952340000000  0.4812550000000  0.5258090000000 1.0
C      1  0.5254390000000  0.5127130000000  0.5824940000000 1.0
C      1  0.4642790000000  0.4918050000000  0.5311170000000 1.0
C      1  0.5453350000000  0.5966580000000  0.4634000000000 1.0
C      1  0.5828060000000  0.4305360000000  0.4823860000000 1.0
C      1  0.4110240000000  0.4843200000000  0.4495690000000 1.0
C      1  0.4405550000000  0.4848180000000  0.4390930000000 1.0
C      1  0.4030270000000  0.5268670000000  0.5259480000000 1.0
C      1  0.5013260000000  0.5689010000000  0.5630420000000 1.0
C      1  0.4865690000000  0.5088460000000  0.5430830000000 1.0
C      1  0.4791770000000  0.4198460000000  0.4460130000000 1.0
C      1  0.4671180000000  0.5812500000000  0.4429610000000 1.0
C      1  0.4003420000000  0.5032660000000  0.5428070000000 1.0
C      1  0.5163920000000  0.4844320000000  0.4034880000000 1.0
C      1  0.4596550000000  0.5497430000000  0.4034910000000 1.0
C      1  0.4304970000000  0.4358590000000  0.4511080000000 1.0
C      1  0.4463830000000  0.5053200000000  0.5113930000000 1.0
C      1  0.5630560000000  0.4761450000000  0.4156250000000 1.0
C      1  0.4925570000000  0.5898300000000  0.4613280000000 1.0
C      1  0.5927170000000  0.4723410000000  0.5365520000000 1.0
C      1  0.5891740000000  0.5551390000000  0.5291130000000 1.0
C      1  0.5402990000000  0.4960720000000  0.6043640000000 1.0
C      1  0.4493910000000  0.5555100000000  0.4496180000000 1.0
C      1  0.5000610000000  0.4279600000000  0.5840170000000 1.0
C      1  0.4978100000000  0.4472790000000  0.5185120000000 1.0
C      1  0.4359750000000  0.4516280000000  0.5449980000000 1.0
C      1  0.4437970000000  0.5689110000000  0.5709040000000 1.0
C      1  0.4489900000000  0.4767390000000  0.5559580000000 1.0
C      1  0.4504300000000  0.4222580000000  0.4320770000000 1.0
C      1  0.5752960000000  0.4510130000000  0.5021650000000 1.0
C      1  0.4434880000000  0.4038010000000  0.5340120000000 1.0
C      1  0.5635870000000  0.5742830000000  0.4545170000000 1.0
C      1  0.5709240000000  0.4456860000000  0.4585850000000 1.0
C      1  0.4851420000000  0.4888330000000  0.4663960000000 1.0
C      1  0.4580180000000  0.5078950000000  0.4266710000000 1.0
C      1  0.4507690000000  0.4451490000000  0.5202550000000 1.0
C      1  0.4338000000000  0.5879370000000  0.4630620000000 1.0
C      1  0.5861900000000  0.5840940000000  0.4964610000000 1.0
C      1  0.4958500000000  0.3895750000000  0.4810620000000 1.0
C      1  0.5917740000000  0.5279970000000  0.5450670000000 1.0
C      1  0.4563370000000  0.4216840000000  0.5788280000000 1.0
C      1  0.5282340000000  0.5605620000000  0.5534020000000 1.0
C      1  0.4915420000000  0.5926910000000  0.5471590000000 1.0
C      1  0.4267550000000  0.5414670000000  0.4873630000000 1.0
C      1  0.4534060000000  0.4440140000000  0.4122050000000 1.0
C      1  0.4787720000000  0.4568350000000  0.4164700000000 1.0
C      1  0.6064920000000  0.5153250000000  0.5216350000000 1.0
C      1  0.4814900000000  0.5107440000000  0.6024650000000 1.0
C      1  0.4412530000000  0.4748070000000  0.5938800000000 1.0
C      1  0.4593770000000  0.5493530000000  0.5841430000000 1.0
C      1  0.5396580000000  0.4274910000000  0.5288180000000 1.0
C      1  0.5520170000000  0.5264960000000  0.5744810000000 1.0
C      1  0.5487460000000  0.4690000000000  0.5417080000000 1.0
C      1  0.5864670000000  0.5373910000000  0.4823210000000 1.0
C      1  0.4694140000000  0.4646500000000  0.5933910000000 1.0
C      1  0.3958380000000  0.4741280000000  0.4983880000000 1.0
C      1  0.3854750000000  0.5258200000000  0.5035380000000 1.0
C      1  0.5737830000000  0.6089640000000  0.5233410000000 1.0
C      1  0.6048520000000  0.5406590000000  0.5051350000000 1.0
C      1  0.5284070000000  0.4901140000000  0.5356100000000 1.0
C      1  0.5257140000000  0.5386020000000  0.5304030000000 1.0
C      1  0.4556480000000  0.4771310000000  0.4660280000000 1.0
C      1  0.4850900000000  0.5080930000000  0.4411960000000 1.0
C      1  0.4771840000000  0.5277730000000  0.3916650000000 1.0
C      1  0.4315850000000  0.5308590000000  0.5160370000000 1.0
C      1  0.6166150000000  0.5005810000000  0.4699600000000 1.0
C      1  0.5420960000000  0.5943870000000  0.4938900000000 1.0
C      1  0.5245200000000  0.5686880000000  0.4314030000000 1.0
C      1  0.5807450000000  0.4859250000000  0.4354370000000 1.0
C      1  0.5196990000000  0.5940880000000  0.4463860000000 1.0
C      1  0.4386710000000  0.6058440000000  0.4895410000000 1.0
C      1  0.4884000000000  0.4820730000000  0.6062850000000 1.0
C      1  0.5716820000000  0.4826640000000  0.5551300000000 1.0
C      1  0.5352030000000  0.4720270000000  0.6184670000000 1.0
C      1  0.4709050000000  0.3901270000000  0.4968440000000 1.0
C      1  0.4485850000000  0.4477070000000  0.4720400000000 1.0
C      1  0.5760340000000  0.4758110000000  0.4636890000000 1.0
C      1  0.4978140000000  0.5262860000000  0.4146240000000 1.0
C      1  0.4964750000000  0.4072380000000  0.5657680000000 1.0
C      1  0.4296030000000  0.4079970000000  0.5082240000000 1.0
C      1  0.5369390000000  0.5852150000000  0.5420570000000 1.0
C      1  0.4876480000000  0.4779180000000  0.3989730000000 1.0
C      1  0.5693350000000  0.4054910000000  0.4965670000000 1.0
C      1  0.4321230000000  0.4497350000000  0.4970710000000 1.0
C      1  0.4195920000000  0.5829710000000  0.5308060000000 1.0
C      1  0.4049560000000  0.4237780000000  0.5064560000000 1.0
C      1  0.4459830000000  0.5363360000000  0.4261600000000 1.0
C      1  0.5640950000000  0.5929760000000  0.5458400000000 1.0
C      1  0.5154370000000  0.4723140000000  0.5971970000000 1.0
C      1  0.3943610000000  0.4458510000000  0.4916240000000 1.0
C      1  0.5029690000000  0.5292280000000  0.5950700000000 1.0
C      1  0.4782970000000  0.4401880000000  0.5474940000000 1.0
C      1  0.4504570000000  0.5474670000000  0.5310510000000 1.0
C      1  0.4165150000000  0.5034200000000  0.5659440000000 1.0
C      1  0.5601720000000  0.5707760000000  0.5078780000000 1.0
C      1  0.4837530000000  0.6104980000000  0.4804270000000 1.0
C      1  0.4153410000000  0.5693370000000  0.4820160000000 1.0
C      1  0.5008780000000  0.5548660000000  0.4230550000000 1.0
C      1  0.5422870000000  0.4373940000000  0.4529960000000 1.0
C      1  0.4798550000000  0.4677480000000  0.5648570000000 1.0
C      1  0.5148320000000  0.4109580000000  0.5194980000000 1.0
C      1  0.5207690000000  0.3979440000000  0.4372630000000 1.0
C      1  0.5453680000000  0.5224450000000  0.4110350000000 1.0
C      1  0.5002200000000  0.5086420000000  0.4962380000000 1.0
C      1  0.5259790000000  0.5481020000000  0.4743690000000 1.0
C      1  0.5458500000000  0.5147100000000  0.5301830000000 1.0
C      1  0.4774930000000  0.5706160000000  0.4164660000000 1.0
C      1  0.5431500000000  0.5535200000000  0.4486820000000 1.0
C      1  0.5667950000000  0.5131990000000  0.5521730000000 1.0
C      1  0.4723940000000  0.4278320000000  0.4746450000000 1.0
C      1  0.4546880000000  0.5420830000000  0.4747870000000 1.0
C      1  0.5192100000000  0.4555590000000  0.4455130000000 1.0
C      1  0.4470720000000  0.4011880000000  0.4859420000000 1.0
C      1  0.4740680000000  0.4353620000000  0.5955490000000 1.0
C      1  0.5212130000000  0.5127490000000  0.4028710000000 1.0
C      1  0.4761510000000  0.5547680000000  0.4903640000000 1.0
C      1  0.5140790000000  0.5870090000000  0.5021410000000 1.0
C      1  0.5353820000000  0.4365020000000  0.4089690000000 1.0
C      1  0.5815360000000  0.5149000000000  0.4390640000000 1.0
C      1  0.4703290000000  0.3932310000000  0.5261070000000 1.0
C      1  0.5525870000000  0.5249020000000  0.4383850000000 1.0
C      1  0.5202510000000  0.3901990000000  0.4980180000000 1.0
C      1  0.5178930000000  0.4494910000000  0.5768740000000 1.0
C      1  0.5654850000000  0.4127460000000  0.5253870000000 1.0
C      1  0.4992620000000  0.4382880000000  0.4881840000000 1.0
C      1  0.4662910000000  0.5002430000000  0.3972980000000 1.0
C      1  0.5399240000000  0.4175760000000  0.4304450000000 1.0
C      1  0.5500280000000  0.6196990000000  0.5091060000000 1.0
C      1  0.5992370000000  0.5210310000000  0.4614710000000 1.0
C      1  0.4390870000000  0.4237260000000  0.5568470000000 1.0
C      1  0.5357460000000  0.5065070000000  0.4560230000000 1.0
C      1  0.5277340000000  0.6271740000000  0.5261100000000 1.0
C      1  0.5454470000000  0.5447160000000  0.4978840000000 1.0
C      1  0.5155120000000  0.6004240000000  0.5299540000000 1.0
C      1  0.5432080000000  0.4000380000000  0.4825590000000 1.0
C      1  0.4882700000000  0.5519250000000  0.5825780000000 1.0
C      1  0.4079080000000  0.4547240000000  0.4423220000000 1.0
C      1  0.5998340000000  0.4822350000000  0.4831190000000 1.0
C      1  0.5856320000000  0.5667510000000  0.4726310000000 1.0
C      1  0.5616560000000  0.5165980000000  0.4967800000000 1.0
C      1  0.4559740000000  0.5207530000000  0.5915770000000 1.0
C      1  0.4030490000000  0.5219940000000  0.4817590000000 1.0
C      1  0.4653460000000  0.6055330000000  0.5020320000000 1.0
C      1  0.4107320000000  0.4930590000000  0.4788200000000 1.0
END
