TITL C-951336-9012-609 2.43321444729179e-06 125000 -682.894935087216 0 0 110 (C1) n - 1
REM
REM in /home/bkarasulu/work/CARBON/AIRSS/Generating-Clusters/EDIP-Nigel-Params/with-SteepDescent/Only-C1/SD-CG/HFTN-CG
REM
REM
REM
REM
REM
REM ./C.cell (11c1c37f851c82e70ff6c80c92926a4b)
REM
REM compiler GCC version 9.2.1 20190827 (Red Hat 9.2.1-1)
REM options -cpp -mtune=generic -march=x86-64 -g -O0 -fpre-include=/usr/include/finclude/math-vector-fortran.h
REM seed -795045251 1133115563 -1987335084 613317454 -1136339688 -22936809 -700094166 -351293175 -431020478 2019239581 854081762 -741359012 -1505929934 -1285130682 6532359 879239218 1801913018 -419385501 643263545 -1799832025 -2102961297 1320036898 -699946620 2023352011 -2096641240 102807495 -276932397 1653661994 1759778909 -1601778094 504450814 -495095232 72913067
REM
CELL 1.54180   50.00000   50.00000   50.00000   90.00000   90.00000   90.00000
LATT -1
SFAC C  
C      1  0.5109630000000  0.5166450000000  0.5826470000000 1.0
C      1  0.5069030000000  0.5623640000000  0.5583710000000 1.0
C      1  0.5178250000000  0.4472070000000  0.4985420000000 1.0
C      1  0.5452210000000  0.4456950000000  0.4332600000000 1.0
C      1  0.5177920000000  0.5354250000000  0.4172810000000 1.0
C      1  0.4823420000000  0.5792420000000  0.4540220000000 1.0
C      1  0.5440260000000  0.5124540000000  0.5428940000000 1.0
C      1  0.5381170000000  0.5594640000000  0.5615820000000 1.0
C      1  0.5179910000000  0.5812030000000  0.5134760000000 1.0
C      1  0.4224930000000  0.5493520000000  0.5223790000000 1.0
C      1  0.5687610000000  0.4390310000000  0.5162730000000 1.0
C      1  0.4825020000000  0.4777040000000  0.4580980000000 1.0
C      1  0.5885260000000  0.4523220000000  0.5018600000000 1.0
C      1  0.4988140000000  0.4671550000000  0.5860210000000 1.0
C      1  0.5616110000000  0.5327520000000  0.4845190000000 1.0
C      1  0.4781630000000  0.4946150000000  0.5428040000000 1.0
C      1  0.4638580000000  0.4590080000000  0.4419770000000 1.0
C      1  0.4103100000000  0.5108870000000  0.4534700000000 1.0
C      1  0.5245750000000  0.4950650000000  0.5261220000000 1.0
C      1  0.4747460000000  0.4766850000000  0.4867040000000 1.0
C      1  0.5293760000000  0.4876210000000  0.4192700000000 1.0
C      1  0.4570760000000  0.4323010000000  0.5314960000000 1.0
C      1  0.5087220000000  0.4627320000000  0.4561960000000 1.0
C      1  0.5789390000000  0.5269990000000  0.5085300000000 1.0
C      1  0.5279840000000  0.4717030000000  0.4802990000000 1.0
C      1  0.4595770000000  0.5081710000000  0.5225150000000 1.0
C      1  0.4446900000000  0.5574360000000  0.4736060000000 1.0
C      1  0.4927560000000  0.5824790000000  0.5286930000000 1.0
C      1  0.4286300000000  0.4995420000000  0.5245650000000 1.0
C      1  0.4187710000000  0.5275000000000  0.5637060000000 1.0
C      1  0.5727660000000  0.4992700000000  0.5424800000000 1.0
C      1  0.5100640000000  0.4146850000000  0.4794780000000 1.0
C      1  0.4997390000000  0.5551950000000  0.4518470000000 1.0
C      1  0.5249480000000  0.5625250000000  0.4679710000000 1.0
C      1  0.4677390000000  0.5376370000000  0.5234570000000 1.0
C      1  0.4303150000000  0.4412420000000  0.4745510000000 1.0
C      1  0.5558280000000  0.4529030000000  0.5374070000000 1.0
C      1  0.4682680000000  0.4993200000000  0.5729610000000 1.0
C      1  0.4792100000000  0.4421900000000  0.5506150000000 1.0
C      1  0.5822000000000  0.4592200000000  0.4759090000000 1.0
C      1  0.4023120000000  0.5093390000000  0.4806390000000 1.0
C      1  0.4546970000000  0.4277880000000  0.4782970000000 1.0
C      1  0.4862160000000  0.4954210000000  0.4048830000000 1.0
C      1  0.4145650000000  0.5243130000000  0.5358670000000 1.0
C      1  0.5176330000000  0.4616430000000  0.4262650000000 1.0
C      1  0.4531110000000  0.5083180000000  0.4304120000000 1.0
C      1  0.5473840000000  0.5550510000000  0.5344310000000 1.0
C      1  0.5730000000000  0.5541330000000  0.4640450000000 1.0
C      1  0.4172740000000  0.4917770000000  0.4978290000000 1.0
C      1  0.4423960000000  0.5431210000000  0.5646600000000 1.0
C      1  0.5464370000000  0.4248950000000  0.4521590000000 1.0
C      1  0.5171920000000  0.5875870000000  0.4844770000000 1.0
C      1  0.4990740000000  0.4343280000000  0.4604790000000 1.0
C      1  0.5792090000000  0.5312080000000  0.5599250000000 1.0
C      1  0.5738070000000  0.5429850000000  0.5328970000000 1.0
C      1  0.5229340000000  0.4615540000000  0.5687900000000 1.0
C      1  0.4530610000000  0.5290270000000  0.4700020000000 1.0
C      1  0.5573110000000  0.4724820000000  0.4713860000000 1.0
C      1  0.5249870000000  0.5529690000000  0.5155840000000 1.0
C      1  0.5391110000000  0.5101880000000  0.5743240000000 1.0
C      1  0.5552660000000  0.5372800000000  0.5770280000000 1.0
C      1  0.4980380000000  0.5560370000000  0.4135710000000 1.0
C      1  0.5035910000000  0.5114010000000  0.5400050000000 1.0
C      1  0.5844540000000  0.5000240000000  0.5156730000000 1.0
C      1  0.5530490000000  0.4220460000000  0.5007100000000 1.0
C      1  0.4351220000000  0.4894910000000  0.4732510000000 1.0
C      1  0.5487110000000  0.5635670000000  0.4485750000000 1.0
C      1  0.4942100000000  0.5392750000000  0.5731200000000 1.0
C      1  0.5119590000000  0.5078380000000  0.4107580000000 1.0
C      1  0.4874310000000  0.4564170000000  0.5048750000000 1.0
C      1  0.5643070000000  0.4674440000000  0.4422880000000 1.0
C      1  0.5555160000000  0.4927060000000  0.4287020000000 1.0
C      1  0.4368560000000  0.4631970000000  0.4581720000000 1.0
C      1  0.4356500000000  0.4499140000000  0.5301240000000 1.0
C      1  0.5310620000000  0.5404430000000  0.4885290000000 1.0
C      1  0.4855780000000  0.5287610000000  0.4621450000000 1.0
C      1  0.5134950000000  0.4194730000000  0.5249610000000 1.0
C      1  0.4924610000000  0.4951950000000  0.5888730000000 1.0
C      1  0.4858770000000  0.4660240000000  0.4152780000000 1.0
C      1  0.4517000000000  0.4756170000000  0.5814380000000 1.0
C      1  0.5469370000000  0.4791350000000  0.5766950000000 1.0
C      1  0.4351550000000  0.5237120000000  0.4464220000000 1.0
C      1  0.4743760000000  0.5838450000000  0.5052760000000 1.0
C      1  0.5666960000000  0.4726480000000  0.5554610000000 1.0
C      1  0.4713060000000  0.4301350000000  0.5047050000000 1.0
C      1  0.5620350000000  0.5200500000000  0.4353740000000 1.0
C      1  0.5441510000000  0.5416010000000  0.4285900000000 1.0
C      1  0.5251070000000  0.4323680000000  0.5694250000000 1.0
C      1  0.4711290000000  0.4323560000000  0.4541870000000 1.0
C      1  0.4274560000000  0.4734540000000  0.5681310000000 1.0
C      1  0.4623260000000  0.5249620000000  0.4089710000000 1.0
C      1  0.4884120000000  0.5921010000000  0.4805090000000 1.0
C      1  0.5216920000000  0.4979180000000  0.4956330000000 1.0
C      1  0.5828460000000  0.5289920000000  0.4523090000000 1.0
C      1  0.4727550000000  0.4536860000000  0.5785410000000 1.0
C      1  0.5195010000000  0.4668030000000  0.5373140000000 1.0
C      1  0.4890330000000  0.4656280000000  0.5340550000000 1.0
C      1  0.4698560000000  0.5038110000000  0.4949630000000 1.0
C      1  0.4992510000000  0.5183980000000  0.4903260000000 1.0
C      1  0.4818490000000  0.5050060000000  0.4426470000000 1.0
C      1  0.4658430000000  0.5297000000000  0.5763820000000 1.0
C      1  0.4259540000000  0.4737150000000  0.5406440000000 1.0
C      1  0.4475790000000  0.5546940000000  0.5371700000000 1.0
C      1  0.4700240000000  0.5512740000000  0.4195590000000 1.0
C      1  0.4478880000000  0.5695840000000  0.5014300000000 1.0
C      1  0.4979610000000  0.5386660000000  0.5291200000000 1.0
C      1  0.5042900000000  0.4247980000000  0.5513720000000 1.0
C      1  0.5394390000000  0.4148440000000  0.4774220000000 1.0
C      1  0.4944960000000  0.4108350000000  0.5053810000000 1.0
C      1  0.4554760000000  0.5700580000000  0.4487060000000 1.0
END
