TITL C-951341-1326-694 -2.1321922863229e-06 125000 -337.878027663362 0 0 56 (C1) n - 1
REM
REM in /home/bkarasulu/work/CARBON/AIRSS/Generating-Clusters/EDIP-Nigel-Params/with-SteepDescent/Only-C1/SD-CG/HFTN-CG
REM
REM
REM
REM
REM
REM ./C.cell (11c1c37f851c82e70ff6c80c92926a4b)
REM
REM compiler GCC version 9.2.1 20190827 (Red Hat 9.2.1-1)
REM options -cpp -mtune=generic -march=x86-64 -g -O0 -fpre-include=/usr/include/finclude/math-vector-fortran.h
REM seed -1385725617 -1110911506 -548566420 -717002870 1054141144 -931813920 2146383965 1964449655 -1846015833 -885391309 231033209 237748154 1957875217 290393962 -1801218491 -1851211379 -906813461 -456040812 -344367442 -1667052107 1365658173 609808388 1041066820 -1323151318 26330559 705342228 1542575081 1783468371 1828351429 -567129129 1046037129 1284511810 156143055
REM
CELL 1.54180   50.00000   50.00000   50.00000   90.00000   90.00000   90.00000
LATT -1
SFAC C  
C      1  0.4566670000000  0.5380660000000  0.5393690000000 1.0
C      1  0.5026430000000  0.5126220000000  0.5698110000000 1.0
C      1  0.5457140000000  0.4741090000000  0.5039260000000 1.0
C      1  0.4683450000000  0.5417010000000  0.4635180000000 1.0
C      1  0.4482920000000  0.4981240000000  0.4752390000000 1.0
C      1  0.4509040000000  0.4598870000000  0.4416230000000 1.0
C      1  0.4910780000000  0.4393190000000  0.4642260000000 1.0
C      1  0.4586990000000  0.4893440000000  0.5424810000000 1.0
C      1  0.5251670000000  0.4359100000000  0.5136430000000 1.0
C      1  0.4629700000000  0.5375570000000  0.5099390000000 1.0
C      1  0.5127760000000  0.5603230000000  0.5681460000000 1.0
C      1  0.5066970000000  0.5062840000000  0.4783390000000 1.0
C      1  0.5312700000000  0.4917340000000  0.4638660000000 1.0
C      1  0.4503780000000  0.4523510000000  0.4878790000000 1.0
C      1  0.4613310000000  0.4432500000000  0.4636720000000 1.0
C      1  0.5139300000000  0.4633810000000  0.4272760000000 1.0
C      1  0.5272650000000  0.5347830000000  0.4333900000000 1.0
C      1  0.4672510000000  0.5612170000000  0.5522000000000 1.0
C      1  0.4883050000000  0.4809200000000  0.4802820000000 1.0
C      1  0.5512910000000  0.4474810000000  0.5149530000000 1.0
C      1  0.4820160000000  0.4800280000000  0.4486600000000 1.0
C      1  0.4483540000000  0.4788040000000  0.4966120000000 1.0
C      1  0.4671870000000  0.5145850000000  0.5538840000000 1.0
C      1  0.4833650000000  0.5645750000000  0.4757680000000 1.0
C      1  0.5160200000000  0.4859620000000  0.5663260000000 1.0
C      1  0.5489860000000  0.5335050000000  0.4785470000000 1.0
C      1  0.4779010000000  0.5619830000000  0.5048390000000 1.0
C      1  0.4526860000000  0.5266870000000  0.4835750000000 1.0
C      1  0.5053270000000  0.4548800000000  0.4864630000000 1.0
C      1  0.4802210000000  0.4303570000000  0.5341720000000 1.0
C      1  0.4437090000000  0.4868260000000  0.4488370000000 1.0
C      1  0.4881450000000  0.5072370000000  0.4348000000000 1.0
C      1  0.5230420000000  0.5343990000000  0.5692670000000 1.0
C      1  0.5393300000000  0.5237230000000  0.5474420000000 1.0
C      1  0.5153660000000  0.5108310000000  0.4225540000000 1.0
C      1  0.4943060000000  0.5263600000000  0.4572830000000 1.0
C      1  0.4594030000000  0.4667650000000  0.5585120000000 1.0
C      1  0.5659430000000  0.4975620000000  0.4977720000000 1.0
C      1  0.5021850000000  0.4422900000000  0.4389700000000 1.0
C      1  0.5316680000000  0.5473150000000  0.4587670000000 1.0
C      1  0.5321480000000  0.4662960000000  0.4785620000000 1.0
C      1  0.4708190000000  0.4416570000000  0.5585730000000 1.0
C      1  0.5108640000000  0.5638060000000  0.4683410000000 1.0
C      1  0.4691470000000  0.4858950000000  0.5155510000000 1.0
C      1  0.5005620000000  0.5575200000000  0.5231620000000 1.0
C      1  0.4942910000000  0.5693600000000  0.5493200000000 1.0
C      1  0.5567950000000  0.5061110000000  0.4696320000000 1.0
C      1  0.5032550000000  0.4620160000000  0.5546890000000 1.0
C      1  0.5033950000000  0.4461350000000  0.5294490000000 1.0
C      1  0.5600330000000  0.5265440000000  0.5084080000000 1.0
C      1  0.4979000000000  0.5269330000000  0.5344670000000 1.0
C      1  0.5624410000000  0.5346770000000  0.5355660000000 1.0
C      1  0.5033620000000  0.5042370000000  0.5129580000000 1.0
C      1  0.5367690000000  0.4944750000000  0.5475390000000 1.0
C      1  0.5276720000000  0.4868780000000  0.4341330000000 1.0
C      1  0.5244110000000  0.4844190000000  0.5228210000000 1.0
END
