TITL C-950526-5686-675 -2.5905812503638e-07 125000 -740.224495895718 0 0 121 (C1) n - 1
REM
REM in /home/bkarasulu/work/CARBON/AIRSS/Generating-Clusters/EDIP-Nigel-Params/with-SteepDescent/Only-C1/SD-CG/HFTN-CG
REM
REM
REM
REM
REM
REM ./C.cell (11c1c37f851c82e70ff6c80c92926a4b)
REM
REM compiler GCC version 9.2.1 20190827 (Red Hat 9.2.1-1)
REM options -cpp -mtune=generic -march=x86-64 -g -O0 -fpre-include=/usr/include/finclude/math-vector-fortran.h
REM seed 2100253944 -1902186012 1023072033 -1965834435 2102792813 200961710 55327158 210970397 -1646860529 -1584618203 1996714091 -513297900 308948805 2106192303 1780288664 930377882 1749163184 -1570667774 277725134 1918412127 -358071488 -1507096461 -1478660332 -1984010110 1525693091 -1190035805 -1738013332 -565116314 1679333322 40620983 -791776408 -1009510169 -1423812173
REM
CELL 1.54180   50.00000   50.00000   50.00000   90.00000   90.00000   90.00000
LATT -1
SFAC C  
C      1  0.5254720000000  0.5783800000000  0.4489520000000 1.0
C      1  0.4293200000000  0.4721230000000  0.4787310000000 1.0
C      1  0.5740230000000  0.5025520000000  0.4375870000000 1.0
C      1  0.4790450000000  0.4485350000000  0.4807760000000 1.0
C      1  0.4950990000000  0.5443810000000  0.5527930000000 1.0
C      1  0.4430060000000  0.5417530000000  0.4395670000000 1.0
C      1  0.4616140000000  0.4191850000000  0.4628260000000 1.0
C      1  0.4413570000000  0.5593760000000  0.4625490000000 1.0
C      1  0.5550460000000  0.4996390000000  0.5754680000000 1.0
C      1  0.5021160000000  0.4998100000000  0.5317720000000 1.0
C      1  0.4800750000000  0.5991400000000  0.4809630000000 1.0
C      1  0.4468420000000  0.5524180000000  0.5431870000000 1.0
C      1  0.5014830000000  0.4522740000000  0.5053660000000 1.0
C      1  0.4572370000000  0.4664660000000  0.5645250000000 1.0
C      1  0.5430670000000  0.4154350000000  0.5260950000000 1.0
C      1  0.4910300000000  0.4187930000000  0.5431910000000 1.0
C      1  0.4664760000000  0.5067130000000  0.5424910000000 1.0
C      1  0.5374590000000  0.5794330000000  0.4759930000000 1.0
C      1  0.4942690000000  0.4016860000000  0.4985940000000 1.0
C      1  0.5547920000000  0.4577290000000  0.5466080000000 1.0
C      1  0.4720310000000  0.5365260000000  0.5354040000000 1.0
C      1  0.4645210000000  0.5454200000000  0.4201900000000 1.0
C      1  0.6033440000000  0.5325470000000  0.5146110000000 1.0
C      1  0.4653750000000  0.4380120000000  0.4404760000000 1.0
C      1  0.5252920000000  0.5166590000000  0.5364160000000 1.0
C      1  0.5066990000000  0.5541410000000  0.4999780000000 1.0
C      1  0.4945010000000  0.4697400000000  0.5958730000000 1.0
C      1  0.5677410000000  0.4854370000000  0.4823070000000 1.0
C      1  0.5582990000000  0.5075400000000  0.4132990000000 1.0
C      1  0.4256530000000  0.5326710000000  0.5322530000000 1.0
C      1  0.4705740000000  0.4835330000000  0.4678130000000 1.0
C      1  0.4281550000000  0.5581810000000  0.4891890000000 1.0
C      1  0.4446010000000  0.5239290000000  0.5773470000000 1.0
C      1  0.5612920000000  0.5475200000000  0.4564530000000 1.0
C      1  0.5759310000000  0.5147540000000  0.4833530000000 1.0
C      1  0.5378210000000  0.4851770000000  0.4885550000000 1.0
C      1  0.4368910000000  0.5092860000000  0.5522180000000 1.0
C      1  0.5063640000000  0.4606110000000  0.4177950000000 1.0
C      1  0.5124780000000  0.5431000000000  0.4713920000000 1.0
C      1  0.4043860000000  0.4574130000000  0.4705140000000 1.0
C      1  0.4102240000000  0.5099900000000  0.4910910000000 1.0
C      1  0.4905620000000  0.5754870000000  0.4662770000000 1.0
C      1  0.4256500000000  0.4661340000000  0.5275220000000 1.0
C      1  0.4700200000000  0.5227350000000  0.4053010000000 1.0
C      1  0.4183690000000  0.4535890000000  0.4459640000000 1.0
C      1  0.5490230000000  0.4585530000000  0.4439400000000 1.0
C      1  0.4778230000000  0.4333930000000  0.5663360000000 1.0
C      1  0.4099700000000  0.4806520000000  0.5011390000000 1.0
C      1  0.5906120000000  0.4933080000000  0.5390270000000 1.0
C      1  0.4710680000000  0.5137590000000  0.5859590000000 1.0
C      1  0.4306910000000  0.4794850000000  0.5545730000000 1.0
C      1  0.5428180000000  0.4087130000000  0.4971010000000 1.0
C      1  0.4978830000000  0.5822830000000  0.4386590000000 1.0
C      1  0.4713740000000  0.4961790000000  0.4137640000000 1.0
C      1  0.4770390000000  0.4874400000000  0.4978020000000 1.0
C      1  0.4726310000000  0.4586870000000  0.5370670000000 1.0
C      1  0.5186970000000  0.4275290000000  0.5373700000000 1.0
C      1  0.4446120000000  0.5521440000000  0.5725730000000 1.0
C      1  0.4109860000000  0.5102680000000  0.4621890000000 1.0
C      1  0.5269240000000  0.4502080000000  0.5547850000000 1.0
C      1  0.4828100000000  0.5665330000000  0.4213300000000 1.0
C      1  0.4974440000000  0.4424500000000  0.5869410000000 1.0
C      1  0.5029400000000  0.5713920000000  0.5469780000000 1.0
C      1  0.4792130000000  0.5423000000000  0.5057890000000 1.0
C      1  0.4755040000000  0.4849910000000  0.5799530000000 1.0
C      1  0.4355940000000  0.5132890000000  0.4459890000000 1.0
C      1  0.5462660000000  0.4340540000000  0.4599350000000 1.0
C      1  0.5248840000000  0.4389030000000  0.5818550000000 1.0
C      1  0.4345750000000  0.4376710000000  0.5275300000000 1.0
C      1  0.4980600000000  0.4889260000000  0.4251230000000 1.0
C      1  0.5938450000000  0.4849520000000  0.5110040000000 1.0
C      1  0.4643570000000  0.5346850000000  0.4811490000000 1.0
C      1  0.4932960000000  0.4382870000000  0.4314190000000 1.0
C      1  0.5348910000000  0.5349730000000  0.4522070000000 1.0
C      1  0.5464150000000  0.4834900000000  0.4012300000000 1.0
C      1  0.5080520000000  0.4144950000000  0.4344820000000 1.0
C      1  0.5512150000000  0.5563850000000  0.5560070000000 1.0
C      1  0.4481680000000  0.4889100000000  0.4298160000000 1.0
C      1  0.5368050000000  0.4603410000000  0.4166790000000 1.0
C      1  0.5216990000000  0.4181910000000  0.4587560000000 1.0
C      1  0.5267930000000  0.5439000000000  0.5217070000000 1.0
C      1  0.5805580000000  0.5254720000000  0.4558280000000 1.0
C      1  0.5976440000000  0.5219230000000  0.5414730000000 1.0
C      1  0.4489450000000  0.4540940000000  0.4919430000000 1.0
C      1  0.5551470000000  0.5291600000000  0.5060000000000 1.0
C      1  0.4805080000000  0.4205470000000  0.5152860000000 1.0
C      1  0.5180780000000  0.4803690000000  0.6072240000000 1.0
C      1  0.5516160000000  0.4378440000000  0.4897830000000 1.0
C      1  0.5179220000000  0.5068910000000  0.4111130000000 1.0
C      1  0.5698130000000  0.4776240000000  0.4529460000000 1.0
C      1  0.5462050000000  0.5365200000000  0.5767720000000 1.0
C      1  0.5220910000000  0.5257000000000  0.5902870000000 1.0
C      1  0.5175900000000  0.4016150000000  0.4828150000000 1.0
C      1  0.5764990000000  0.5537110000000  0.5426410000000 1.0
C      1  0.5316490000000  0.5744840000000  0.5441960000000 1.0
C      1  0.4969610000000  0.4921930000000  0.4555420000000 1.0
C      1  0.5777970000000  0.5497240000000  0.5128480000000 1.0
C      1  0.5291750000000  0.5301870000000  0.4242600000000 1.0
C      1  0.5621430000000  0.5643130000000  0.4803840000000 1.0
C      1  0.4262140000000  0.5313620000000  0.5032650000000 1.0
C      1  0.5288430000000  0.4579320000000  0.4929320000000 1.0
C      1  0.5489910000000  0.5038070000000  0.5269820000000 1.0
C      1  0.4499420000000  0.5097710000000  0.4724900000000 1.0
C      1  0.4603280000000  0.4833220000000  0.5220520000000 1.0
C      1  0.4381140000000  0.5826540000000  0.5042440000000 1.0
C      1  0.5161720000000  0.5048710000000  0.4764470000000 1.0
C      1  0.5626250000000  0.4876200000000  0.5483150000000 1.0
C      1  0.4965660000000  0.5968210000000  0.5047460000000 1.0
C      1  0.4997640000000  0.5034340000000  0.5021650000000 1.0
C      1  0.5023600000000  0.4685340000000  0.5352320000000 1.0
C      1  0.4535660000000  0.5783800000000  0.5293530000000 1.0
C      1  0.4497890000000  0.4169290000000  0.5137510000000 1.0
C      1  0.6018060000000  0.5094290000000  0.4965400000000 1.0
C      1  0.5236890000000  0.5892330000000  0.4992290000000 1.0
C      1  0.5625870000000  0.4378700000000  0.5266950000000 1.0
C      1  0.4839200000000  0.5814130000000  0.5262770000000 1.0
C      1  0.4944240000000  0.5342460000000  0.5809160000000 1.0
C      1  0.5281600000000  0.4975200000000  0.5876460000000 1.0
C      1  0.4527240000000  0.5998180000000  0.4873030000000 1.0
C      1  0.4427370000000  0.4241930000000  0.4848250000000 1.0
C      1  0.4457660000000  0.4607960000000  0.4394710000000 1.0
END
