TITL C-950532-2784-518 9.90149499980343e-07 125000 -224.026356556147 0 0 38 (C1) n - 1
REM
REM in /home/bkarasulu/work/CARBON/AIRSS/Generating-Clusters/EDIP-Nigel-Params/with-SteepDescent/Only-C1/SD-CG/HFTN-CG
REM
REM
REM
REM
REM
REM ./C.cell (11c1c37f851c82e70ff6c80c92926a4b)
REM
REM compiler GCC version 9.2.1 20190827 (Red Hat 9.2.1-1)
REM options -cpp -mtune=generic -march=x86-64 -g -O0 -fpre-include=/usr/include/finclude/math-vector-fortran.h
REM seed -1384938192 384177128 1570032630 -1491699640 -1731933804 -996183626 392962218 1929324280 414842850 -1623387665 1751648714 427115453 -622051284 139654146 -196262893 678499958 -1491281291 314715996 -480225129 1159362526 1385394886 -1092736456 1164119774 -317879544 1717638416 -1571783450 561251767 -760514929 2117456678 -902040162 -191892813 -1459019909 -687820913
REM
CELL 1.54180   50.00000   50.00000   50.00000   90.00000   90.00000   90.00000
LATT -1
SFAC C  
C      1  0.4622370000000  0.5446520000000  0.4765470000000 1.0
C      1  0.5152480000000  0.5158050000000  0.5140670000000 1.0
C      1  0.5342710000000  0.5522560000000  0.4877070000000 1.0
C      1  0.4528110000000  0.4800940000000  0.4909540000000 1.0
C      1  0.5358600000000  0.5130910000000  0.4671540000000 1.0
C      1  0.4883340000000  0.5134180000000  0.5302620000000 1.0
C      1  0.4404480000000  0.5157800000000  0.5183350000000 1.0
C      1  0.5609580000000  0.4991520000000  0.4645160000000 1.0
C      1  0.5102150000000  0.4820240000000  0.5612340000000 1.0
C      1  0.4656530000000  0.4748510000000  0.5511220000000 1.0
C      1  0.4785880000000  0.4999630000000  0.4536940000000 1.0
C      1  0.4857570000000  0.4955070000000  0.5539730000000 1.0
C      1  0.4781890000000  0.4525290000000  0.4602880000000 1.0
C      1  0.4446150000000  0.4570320000000  0.5044730000000 1.0
C      1  0.4768720000000  0.5235860000000  0.4681110000000 1.0
C      1  0.5113710000000  0.5026990000000  0.4829850000000 1.0
C      1  0.4699550000000  0.4441620000000  0.5105480000000 1.0
C      1  0.5171560000000  0.5637310000000  0.5298950000000 1.0
C      1  0.5101930000000  0.4608110000000  0.5414960000000 1.0
C      1  0.5049510000000  0.4606140000000  0.4493320000000 1.0
C      1  0.5139190000000  0.4722020000000  0.4927040000000 1.0
C      1  0.5703260000000  0.4766600000000  0.4777650000000 1.0
C      1  0.5630900000000  0.5016870000000  0.5182190000000 1.0
C      1  0.5227880000000  0.4534850000000  0.4712330000000 1.0
C      1  0.4697260000000  0.5504400000000  0.5029050000000 1.0
C      1  0.4886980000000  0.4431580000000  0.4869580000000 1.0
C      1  0.5277860000000  0.4699400000000  0.5191650000000 1.0
C      1  0.5794950000000  0.4936250000000  0.4977510000000 1.0
C      1  0.4979730000000  0.5826480000000  0.5291070000000 1.0
C      1  0.4645170000000  0.5296700000000  0.5230740000000 1.0
C      1  0.4809730000000  0.4556220000000  0.5357300000000 1.0
C      1  0.5370490000000  0.5408370000000  0.4636250000000 1.0
C      1  0.4784270000000  0.5754260000000  0.5120240000000 1.0
C      1  0.5261450000000  0.5439460000000  0.5127010000000 1.0
C      1  0.4323030000000  0.4942250000000  0.5034840000000 1.0
C      1  0.4621960000000  0.4777280000000  0.4636310000000 1.0
C      1  0.5366720000000  0.4974200000000  0.5259340000000 1.0
C      1  0.5042360000000  0.4895280000000  0.4472950000000 1.0
END
