TITL C-951345-2650-146 -4.01167690984403e-06 125000 -1209.64355360318 0 0 193 (C1) n - 1
REM
REM in /home/bkarasulu/work/CARBON/AIRSS/Generating-Clusters/EDIP-Nigel-Params/with-SteepDescent/Only-C1/SD-CG/HFTN-CG
REM
REM
REM
REM
REM
REM ./C.cell (11c1c37f851c82e70ff6c80c92926a4b)
REM
REM compiler GCC version 9.2.1 20190827 (Red Hat 9.2.1-1)
REM options -cpp -mtune=generic -march=x86-64 -g -O0 -fpre-include=/usr/include/finclude/math-vector-fortran.h
REM seed 841461453 -1544371401 -548571763 -45762011 -823659365 1233635409 2115526232 -335481523 1202564226 367355498 1133227230 -644085753 1904862710 1205265862 -1490014084 944370533 -398777197 -155232726 1755812868 1141293310 -1825566394 -2102122169 1725791476 2141409840 -333160334 -841077306 -1961564306 1747261587 1031397123 -439744084 300052017 -109785599 -530102315
REM
CELL 1.54180   50.00000   50.00000   50.00000   90.00000   90.00000   90.00000
LATT -1
SFAC C  
C      1  0.3951680000000  0.5278790000000  0.4619160000000 1.0
C      1  0.5038620000000  0.4528790000000  0.5063220000000 1.0
C      1  0.5521860000000  0.5524770000000  0.4682690000000 1.0
C      1  0.4241760000000  0.4670520000000  0.4691440000000 1.0
C      1  0.5385900000000  0.4663230000000  0.4744640000000 1.0
C      1  0.4587000000000  0.5467230000000  0.5427650000000 1.0
C      1  0.4678810000000  0.4711180000000  0.5776960000000 1.0
C      1  0.4795400000000  0.5779860000000  0.4406220000000 1.0
C      1  0.5378650000000  0.5719820000000  0.5429860000000 1.0
C      1  0.3990920000000  0.5115690000000  0.4953620000000 1.0
C      1  0.4282650000000  0.5045980000000  0.5341270000000 1.0
C      1  0.4313140000000  0.5677020000000  0.4494780000000 1.0
C      1  0.5237510000000  0.3871520000000  0.5089060000000 1.0
C      1  0.4520460000000  0.5887280000000  0.4490740000000 1.0
C      1  0.5596900000000  0.5514090000000  0.5880360000000 1.0
C      1  0.4900890000000  0.5936420000000  0.5329230000000 1.0
C      1  0.5632710000000  0.4084780000000  0.5340630000000 1.0
C      1  0.4915390000000  0.3893870000000  0.4639930000000 1.0
C      1  0.5540730000000  0.5237530000000  0.6051290000000 1.0
C      1  0.4728530000000  0.5020870000000  0.3847670000000 1.0
C      1  0.5858430000000  0.5473920000000  0.5719460000000 1.0
C      1  0.5368850000000  0.4291560000000  0.5656190000000 1.0
C      1  0.5304210000000  0.4976050000000  0.5126140000000 1.0
C      1  0.5750530000000  0.4370280000000  0.5342190000000 1.0
C      1  0.5546170000000  0.4929460000000  0.5288050000000 1.0
C      1  0.5398520000000  0.5241510000000  0.3890540000000 1.0
C      1  0.5034590000000  0.5948140000000  0.4422780000000 1.0
C      1  0.5555420000000  0.5690480000000  0.4275740000000 1.0
C      1  0.5688660000000  0.4374090000000  0.4593190000000 1.0
C      1  0.4497760000000  0.5627500000000  0.5863160000000 1.0
C      1  0.4795240000000  0.5574240000000  0.5241500000000 1.0
C      1  0.5336470000000  0.5670160000000  0.4895350000000 1.0
C      1  0.4654500000000  0.4725270000000  0.3842880000000 1.0
C      1  0.4830400000000  0.5184660000000  0.4291240000000 1.0
C      1  0.4987360000000  0.4065350000000  0.4173950000000 1.0
C      1  0.5811920000000  0.4960600000000  0.4936140000000 1.0
C      1  0.5465060000000  0.6027010000000  0.4679770000000 1.0
C      1  0.5317740000000  0.4671010000000  0.4005550000000 1.0
C      1  0.4540810000000  0.4173480000000  0.4405880000000 1.0
C      1  0.4124990000000  0.5595440000000  0.5555340000000 1.0
C      1  0.5055520000000  0.5916330000000  0.5810280000000 1.0
C      1  0.5189640000000  0.4365460000000  0.5245800000000 1.0
C      1  0.4956200000000  0.5077560000000  0.4029910000000 1.0
C      1  0.5870070000000  0.4732450000000  0.5634300000000 1.0
C      1  0.4962920000000  0.5358620000000  0.5115210000000 1.0
C      1  0.5807060000000  0.4950330000000  0.6041250000000 1.0
C      1  0.4797940000000  0.5564250000000  0.4726870000000 1.0
C      1  0.4563870000000  0.4110110000000  0.4855450000000 1.0
C      1  0.5336220000000  0.5270340000000  0.5544480000000 1.0
C      1  0.4984120000000  0.4283960000000  0.3990310000000 1.0
C      1  0.4624720000000  0.3960560000000  0.4603260000000 1.0
C      1  0.5960740000000  0.5460840000000  0.4673090000000 1.0
C      1  0.4423670000000  0.5404990000000  0.4907370000000 1.0
C      1  0.5367970000000  0.5177370000000  0.4908860000000 1.0
C      1  0.5655620000000  0.5862380000000  0.4508110000000 1.0
C      1  0.4112480000000  0.4131040000000  0.4657230000000 1.0
C      1  0.4779290000000  0.4637660000000  0.5143440000000 1.0
C      1  0.5498740000000  0.4631170000000  0.6022390000000 1.0
C      1  0.5059910000000  0.5314740000000  0.4474050000000 1.0
C      1  0.5130520000000  0.5300320000000  0.3929580000000 1.0
C      1  0.5040100000000  0.4451090000000  0.5962170000000 1.0
C      1  0.5841270000000  0.5311360000000  0.4466080000000 1.0
C      1  0.4965940000000  0.5607600000000  0.6027680000000 1.0
C      1  0.5853340000000  0.5726270000000  0.4685470000000 1.0
C      1  0.5062670000000  0.5009350000000  0.5932020000000 1.0
C      1  0.5019480000000  0.6089330000000  0.4890530000000 1.0
C      1  0.5204010000000  0.3865690000000  0.5422240000000 1.0
C      1  0.4283510000000  0.4759640000000  0.5444360000000 1.0
C      1  0.5515780000000  0.4240980000000  0.4402980000000 1.0
C      1  0.5332310000000  0.4402470000000  0.5937080000000 1.0
C      1  0.6037960000000  0.4531270000000  0.4973330000000 1.0
C      1  0.5087340000000  0.4436690000000  0.4384320000000 1.0
C      1  0.5102370000000  0.4320930000000  0.5524090000000 1.0
C      1  0.5527670000000  0.4488400000000  0.5500810000000 1.0
C      1  0.4420290000000  0.4582340000000  0.4187680000000 1.0
C      1  0.5993790000000  0.4524230000000  0.5449860000000 1.0
C      1  0.4854190000000  0.4265200000000  0.5814590000000 1.0
C      1  0.5008770000000  0.4352330000000  0.4837690000000 1.0
C      1  0.5943070000000  0.5505930000000  0.5230560000000 1.0
C      1  0.5449780000000  0.4024010000000  0.4793320000000 1.0
C      1  0.4441440000000  0.4794280000000  0.5928410000000 1.0
C      1  0.4203730000000  0.4772470000000  0.5737340000000 1.0
C      1  0.5366340000000  0.5535410000000  0.5676340000000 1.0
C      1  0.4965970000000  0.4037140000000  0.5524550000000 1.0
C      1  0.4273420000000  0.5893530000000  0.4934120000000 1.0
C      1  0.4986570000000  0.4953920000000  0.4800130000000 1.0
C      1  0.5493860000000  0.4783050000000  0.5547540000000 1.0
C      1  0.5665360000000  0.5424690000000  0.4271500000000 1.0
C      1  0.5001310000000  0.4952990000000  0.5451090000000 1.0
C      1  0.4635230000000  0.4415470000000  0.5684110000000 1.0
C      1  0.5064370000000  0.5485010000000  0.4869440000000 1.0
C      1  0.4269530000000  0.4113990000000  0.4889540000000 1.0
C      1  0.5282740000000  0.5071640000000  0.6138690000000 1.0
C      1  0.5248790000000  0.4392540000000  0.4039630000000 1.0
C      1  0.4290740000000  0.5086370000000  0.5028030000000 1.0
C      1  0.5655690000000  0.5245660000000  0.4905840000000 1.0
C      1  0.3780650000000  0.4933990000000  0.5338230000000 1.0
C      1  0.5174070000000  0.6007370000000  0.4662110000000 1.0
C      1  0.4415440000000  0.5401720000000  0.4430980000000 1.0
C      1  0.4270450000000  0.4284150000000  0.4480440000000 1.0
C      1  0.5085830000000  0.4739190000000  0.4392030000000 1.0
C      1  0.4741760000000  0.4409970000000  0.4420600000000 1.0
C      1  0.4180510000000  0.4972590000000  0.4278090000000 1.0
C      1  0.5077940000000  0.4813500000000  0.4105650000000 1.0
C      1  0.4832880000000  0.5112750000000  0.5016740000000 1.0
C      1  0.4769260000000  0.5185580000000  0.5962330000000 1.0
C      1  0.4394800000000  0.4820280000000  0.4897460000000 1.0
C      1  0.5673160000000  0.4228500000000  0.4834630000000 1.0
C      1  0.5760820000000  0.4446230000000  0.5037180000000 1.0
C      1  0.5566170000000  0.5211970000000  0.4109010000000 1.0
C      1  0.4536480000000  0.4271360000000  0.5439140000000 1.0
C      1  0.5075970000000  0.5549410000000  0.4074580000000 1.0
C      1  0.5796220000000  0.5196530000000  0.5616140000000 1.0
C      1  0.6124040000000  0.4672130000000  0.5216850000000 1.0
C      1  0.5991230000000  0.4994550000000  0.5536220000000 1.0
C      1  0.4145940000000  0.4557900000000  0.5279640000000 1.0
C      1  0.5652800000000  0.5073910000000  0.5836890000000 1.0
C      1  0.4165350000000  0.5230570000000  0.4427150000000 1.0
C      1  0.4920180000000  0.6020760000000  0.5598980000000 1.0
C      1  0.4273490000000  0.5002990000000  0.3988290000000 1.0
C      1  0.3841610000000  0.4885490000000  0.5069140000000 1.0
C      1  0.4411220000000  0.5700820000000  0.5488450000000 1.0
C      1  0.4856560000000  0.4805870000000  0.4577120000000 1.0
C      1  0.3949300000000  0.5520990000000  0.4800430000000 1.0
C      1  0.5297170000000  0.5729930000000  0.4145000000000 1.0
C      1  0.4623130000000  0.4629400000000  0.4910100000000 1.0
C      1  0.5907120000000  0.4856420000000  0.4665500000000 1.0
C      1  0.5191510000000  0.5599550000000  0.4497080000000 1.0
C      1  0.4491510000000  0.5084210000000  0.5985050000000 1.0
C      1  0.4969130000000  0.3885490000000  0.4941120000000 1.0
C      1  0.4718550000000  0.5474560000000  0.5992870000000 1.0
C      1  0.5528840000000  0.4720530000000  0.4195370000000 1.0
C      1  0.4931450000000  0.4725840000000  0.5946720000000 1.0
C      1  0.3977860000000  0.4716600000000  0.4347320000000 1.0
C      1  0.4782470000000  0.4913570000000  0.5232220000000 1.0
C      1  0.4717260000000  0.4054780000000  0.5356260000000 1.0
C      1  0.4278390000000  0.4300380000000  0.5294700000000 1.0
C      1  0.5091790000000  0.3994660000000  0.4429490000000 1.0
C      1  0.4151270000000  0.4465390000000  0.4276070000000 1.0
C      1  0.4718990000000  0.4384090000000  0.4754690000000 1.0
C      1  0.6135370000000  0.5282490000000  0.5144410000000 1.0
C      1  0.4494760000000  0.6005490000000  0.4762460000000 1.0
C      1  0.4238030000000  0.5498080000000  0.5827530000000 1.0
C      1  0.4590990000000  0.5338430000000  0.4668320000000 1.0
C      1  0.5621450000000  0.4710820000000  0.4972990000000 1.0
C      1  0.5384730000000  0.4816170000000  0.6205400000000 1.0
C      1  0.4074230000000  0.5040740000000  0.5747490000000 1.0
C      1  0.5181150000000  0.4764540000000  0.4950800000000 1.0
C      1  0.4658620000000  0.6047210000000  0.5200790000000 1.0
C      1  0.4503210000000  0.5194770000000  0.3941420000000 1.0
C      1  0.4011000000000  0.4647420000000  0.5018230000000 1.0
C      1  0.4716680000000  0.4966050000000  0.5583040000000 1.0
C      1  0.5517670000000  0.5979040000000  0.5463590000000 1.0
C      1  0.4796070000000  0.5613520000000  0.4156660000000 1.0
C      1  0.4409100000000  0.5889410000000  0.5218640000000 1.0
C      1  0.5112570000000  0.5639100000000  0.5788750000000 1.0
C      1  0.5416810000000  0.6093940000000  0.5194100000000 1.0
C      1  0.3907850000000  0.5391410000000  0.5085730000000 1.0
C      1  0.5348430000000  0.4859390000000  0.4506970000000 1.0
C      1  0.4486250000000  0.5189620000000  0.5522970000000 1.0
C      1  0.4369270000000  0.4726570000000  0.3920180000000 1.0
C      1  0.5207670000000  0.5115740000000  0.4654760000000 1.0
C      1  0.4008640000000  0.5386270000000  0.5372900000000 1.0
C      1  0.4730410000000  0.6071180000000  0.4922300000000 1.0
C      1  0.5908480000000  0.4568260000000  0.4613580000000 1.0
C      1  0.5123360000000  0.6055400000000  0.5156820000000 1.0
C      1  0.4611540000000  0.5373050000000  0.4185540000000 1.0
C      1  0.5221970000000  0.5004870000000  0.5641730000000 1.0
C      1  0.5249100000000  0.4386580000000  0.4648080000000 1.0
C      1  0.5664020000000  0.4965170000000  0.4218420000000 1.0
C      1  0.4725840000000  0.3977200000000  0.5074770000000 1.0
C      1  0.5590240000000  0.5207250000000  0.5399750000000 1.0
C      1  0.4776270000000  0.4500950000000  0.4041800000000 1.0
C      1  0.6123970000000  0.5332330000000  0.4865140000000 1.0
C      1  0.6051680000000  0.4984660000000  0.5238790000000 1.0
C      1  0.5547660000000  0.5993950000000  0.4954110000000 1.0
C      1  0.4166860000000  0.4094350000000  0.5143940000000 1.0
C      1  0.5942620000000  0.5661480000000  0.5498670000000 1.0
C      1  0.4315150000000  0.5213350000000  0.5781820000000 1.0
C      1  0.5385620000000  0.4151880000000  0.5153160000000 1.0
C      1  0.4224570000000  0.5631000000000  0.4787420000000 1.0
C      1  0.3930700000000  0.5122990000000  0.5496460000000 1.0
C      1  0.5472450000000  0.5612190000000  0.5165670000000 1.0
C      1  0.4410470000000  0.4809330000000  0.4401240000000 1.0
C      1  0.5790970000000  0.5904450000000  0.5490860000000 1.0
C      1  0.5446830000000  0.4000460000000  0.5561640000000 1.0
C      1  0.4670270000000  0.4968190000000  0.4441000000000 1.0
C      1  0.5378940000000  0.4003640000000  0.4498550000000 1.0
C      1  0.5791970000000  0.4671490000000  0.5946970000000 1.0
C      1  0.4626450000000  0.5652600000000  0.4998730000000 1.0
C      1  0.3950350000000  0.4713730000000  0.4642440000000 1.0
C      1  0.5669450000000  0.5393670000000  0.5177830000000 1.0
C      1  0.5837580000000  0.5028440000000  0.4440740000000 1.0
END
