TITL C-950536-5891-31 1.44356638369306e-06 125000 -816.376893679901 0 0 131 (C1) n - 1
REM
REM in /home/bkarasulu/work/CARBON/AIRSS/Generating-Clusters/EDIP-Nigel-Params/with-SteepDescent/Only-C1/SD-CG/HFTN-CG
REM
REM
REM
REM
REM
REM ./C.cell (11c1c37f851c82e70ff6c80c92926a4b)
REM
REM compiler GCC version 9.2.1 20190827 (Red Hat 9.2.1-1)
REM options -cpp -mtune=generic -march=x86-64 -g -O0 -fpre-include=/usr/include/finclude/math-vector-fortran.h
REM seed -1480468056 -458922738 -1287144523 -772488004 -532717957 1581560990 -731905172 390270896 -17442875 -1573883843 118228271 1955877999 -245296592 -1345887091 2007681801 -736964723 1381142589 2130269372 -1173682353 -1713858191 1823802098 -1193943490 -695961269 1565743071 859528428 -1892541079 -146990729 -1828601617 2146084445 798494933 -393659562 -1064179151 809641871
REM
CELL 1.54180   50.00000   50.00000   50.00000   90.00000   90.00000   90.00000
LATT -1
SFAC C  
C      1  0.4447170000000  0.4533670000000  0.5557610000000 1.0
C      1  0.4983420000000  0.5412420000000  0.6057270000000 1.0
C      1  0.4401910000000  0.5336710000000  0.5594520000000 1.0
C      1  0.4324140000000  0.4222090000000  0.5157980000000 1.0
C      1  0.5765930000000  0.5063360000000  0.5638090000000 1.0
C      1  0.5269910000000  0.4959480000000  0.5941320000000 1.0
C      1  0.5271440000000  0.4988220000000  0.5419650000000 1.0
C      1  0.4823200000000  0.4697920000000  0.5885700000000 1.0
C      1  0.5782890000000  0.4558280000000  0.5110630000000 1.0
C      1  0.4932680000000  0.4190640000000  0.4722590000000 1.0
C      1  0.5133460000000  0.5977080000000  0.4891500000000 1.0
C      1  0.5656370000000  0.5066140000000  0.4237700000000 1.0
C      1  0.5488880000000  0.4162080000000  0.4928670000000 1.0
C      1  0.5648930000000  0.5642390000000  0.5045560000000 1.0
C      1  0.5180010000000  0.5458040000000  0.5861390000000 1.0
C      1  0.4797710000000  0.5679630000000  0.5645540000000 1.0
C      1  0.5258700000000  0.4128200000000  0.5370530000000 1.0
C      1  0.3983190000000  0.5051090000000  0.4796520000000 1.0
C      1  0.5694440000000  0.4609340000000  0.4372960000000 1.0
C      1  0.5537600000000  0.5671060000000  0.5317090000000 1.0
C      1  0.4959740000000  0.5396260000000  0.4086460000000 1.0
C      1  0.4740240000000  0.4742520000000  0.4693940000000 1.0
C      1  0.4459310000000  0.5678580000000  0.5252820000000 1.0
C      1  0.5018100000000  0.5671590000000  0.4199750000000 1.0
C      1  0.4250820000000  0.5449870000000  0.4684500000000 1.0
C      1  0.4826500000000  0.6005600000000  0.5248290000000 1.0
C      1  0.4082540000000  0.5301450000000  0.4885040000000 1.0
C      1  0.4133000000000  0.4860710000000  0.4654620000000 1.0
C      1  0.4689900000000  0.5789890000000  0.5395790000000 1.0
C      1  0.5088970000000  0.5181810000000  0.4454880000000 1.0
C      1  0.5261220000000  0.5036040000000  0.5123760000000 1.0
C      1  0.5098060000000  0.4539180000000  0.4973100000000 1.0
C      1  0.5445710000000  0.4971710000000  0.4695750000000 1.0
C      1  0.4625640000000  0.4504860000000  0.5114910000000 1.0
C      1  0.5278760000000  0.4023200000000  0.5088060000000 1.0
C      1  0.5002750000000  0.4696470000000  0.4519700000000 1.0
C      1  0.4259470000000  0.4634040000000  0.4794970000000 1.0
C      1  0.5118980000000  0.5987480000000  0.5191010000000 1.0
C      1  0.5437690000000  0.4622330000000  0.4243730000000 1.0
C      1  0.4484040000000  0.5789400000000  0.4984850000000 1.0
C      1  0.5174150000000  0.5210990000000  0.4169610000000 1.0
C      1  0.4965300000000  0.5431840000000  0.4550880000000 1.0
C      1  0.4333440000000  0.5430410000000  0.5330800000000 1.0
C      1  0.4667510000000  0.4969370000000  0.4147640000000 1.0
C      1  0.4621710000000  0.4275610000000  0.5557530000000 1.0
C      1  0.4868720000000  0.4209130000000  0.5726440000000 1.0
C      1  0.5351220000000  0.4139590000000  0.4426170000000 1.0
C      1  0.4883640000000  0.4779990000000  0.4165100000000 1.0
C      1  0.5059350000000  0.5544880000000  0.4847200000000 1.0
C      1  0.5272830000000  0.5686350000000  0.4363110000000 1.0
C      1  0.4696640000000  0.5264230000000  0.4165430000000 1.0
C      1  0.5126630000000  0.4441540000000  0.4706380000000 1.0
C      1  0.5778100000000  0.4703450000000  0.5371890000000 1.0
C      1  0.4856060000000  0.4782240000000  0.5420870000000 1.0
C      1  0.4435110000000  0.5691290000000  0.4715540000000 1.0
C      1  0.5251480000000  0.5769790000000  0.5366300000000 1.0
C      1  0.5513210000000  0.4273240000000  0.5446260000000 1.0
C      1  0.4796170000000  0.5214640000000  0.5047260000000 1.0
C      1  0.5543290000000  0.4573410000000  0.5552480000000 1.0
C      1  0.5420180000000  0.5265680000000  0.5027610000000 1.0
C      1  0.5640720000000  0.5337820000000  0.4484090000000 1.0
C      1  0.4852070000000  0.5247720000000  0.5477830000000 1.0
C      1  0.4442070000000  0.5011060000000  0.5789340000000 1.0
C      1  0.4537780000000  0.4730950000000  0.5791230000000 1.0
C      1  0.5507310000000  0.5186380000000  0.5587590000000 1.0
C      1  0.5768690000000  0.5173960000000  0.5167820000000 1.0
C      1  0.4985490000000  0.5007260000000  0.5554140000000 1.0
C      1  0.4429860000000  0.4842500000000  0.4265210000000 1.0
C      1  0.4984230000000  0.4329650000000  0.4273150000000 1.0
C      1  0.4787800000000  0.5766260000000  0.4331680000000 1.0
C      1  0.4855810000000  0.6005410000000  0.4760420000000 1.0
C      1  0.5283630000000  0.4366170000000  0.4217510000000 1.0
C      1  0.5766590000000  0.4954220000000  0.4691040000000 1.0
C      1  0.4232860000000  0.4446750000000  0.5299340000000 1.0
C      1  0.4668050000000  0.5338980000000  0.4596910000000 1.0
C      1  0.5617400000000  0.5864130000000  0.4878780000000 1.0
C      1  0.5299180000000  0.4679070000000  0.5396940000000 1.0
C      1  0.5215700000000  0.5488200000000  0.5098350000000 1.0
C      1  0.5418350000000  0.4713890000000  0.5879480000000 1.0
C      1  0.4479650000000  0.4156090000000  0.4942270000000 1.0
C      1  0.4417530000000  0.4961020000000  0.5223180000000 1.0
C      1  0.4559670000000  0.5192190000000  0.5978030000000 1.0
C      1  0.4633750000000  0.4271620000000  0.4739430000000 1.0
C      1  0.5846850000000  0.4988490000000  0.5381860000000 1.0
C      1  0.4338170000000  0.5005060000000  0.4499540000000 1.0
C      1  0.4476630000000  0.5419510000000  0.4269230000000 1.0
C      1  0.4685360000000  0.5820970000000  0.4586980000000 1.0
C      1  0.5260920000000  0.4484410000000  0.5877510000000 1.0
C      1  0.5337980000000  0.4596570000000  0.5117960000000 1.0
C      1  0.4500620000000  0.4555170000000  0.4335390000000 1.0
C      1  0.4787340000000  0.4310060000000  0.5302440000000 1.0
C      1  0.5022980000000  0.4547480000000  0.5463180000000 1.0
C      1  0.4768290000000  0.4519490000000  0.4195160000000 1.0
C      1  0.4265970000000  0.5299740000000  0.4429330000000 1.0
C      1  0.5805480000000  0.4667340000000  0.4833630000000 1.0
C      1  0.5015810000000  0.5404720000000  0.5306070000000 1.0
C      1  0.4769480000000  0.5466940000000  0.4885240000000 1.0
C      1  0.4858730000000  0.4708840000000  0.4983040000000 1.0
C      1  0.5009790000000  0.4003650000000  0.4963500000000 1.0
C      1  0.5552720000000  0.5597800000000  0.4354790000000 1.0
C      1  0.5010150000000  0.5003040000000  0.4957610000000 1.0
C      1  0.4855660000000  0.4030180000000  0.5214180000000 1.0
C      1  0.4998070000000  0.4481540000000  0.5757970000000 1.0
C      1  0.4122310000000  0.5288030000000  0.5180770000000 1.0
C      1  0.4544040000000  0.5083820000000  0.4982640000000 1.0
C      1  0.5371430000000  0.5225870000000  0.5845440000000 1.0
C      1  0.5563120000000  0.5441500000000  0.5470590000000 1.0
C      1  0.4589630000000  0.5031280000000  0.4682040000000 1.0
C      1  0.5136450000000  0.4952980000000  0.4640610000000 1.0
C      1  0.4522910000000  0.4535210000000  0.4643170000000 1.0
C      1  0.4977710000000  0.4959380000000  0.5863660000000 1.0
C      1  0.5395670000000  0.5980940000000  0.4751120000000 1.0
C      1  0.5676490000000  0.4485730000000  0.4632840000000 1.0
C      1  0.4686700000000  0.5391230000000  0.5677450000000 1.0
C      1  0.5813300000000  0.4882450000000  0.4401660000000 1.0
C      1  0.5424020000000  0.4307620000000  0.4672210000000 1.0
C      1  0.5103140000000  0.5670430000000  0.5648160000000 1.0
C      1  0.5386300000000  0.5927980000000  0.4468610000000 1.0
C      1  0.5439080000000  0.5265380000000  0.4713340000000 1.0
C      1  0.5032010000000  0.4086760000000  0.4451950000000 1.0
C      1  0.4676480000000  0.6011100000000  0.4991850000000 1.0
C      1  0.5547460000000  0.4377070000000  0.5138280000000 1.0
C      1  0.5831780000000  0.5402060000000  0.4991610000000 1.0
C      1  0.5232100000000  0.4994490000000  0.3995200000000 1.0
C      1  0.5876750000000  0.5289220000000  0.4711860000000 1.0
C      1  0.4840110000000  0.5174940000000  0.6020510000000 1.0
C      1  0.5461990000000  0.4880700000000  0.4106980000000 1.0
C      1  0.4580340000000  0.4720610000000  0.5337880000000 1.0
C      1  0.5035910000000  0.4033030000000  0.5544130000000 1.0
C      1  0.4208130000000  0.4665880000000  0.5096500000000 1.0
C      1  0.4115290000000  0.5003500000000  0.5257300000000 1.0
END
