TITL C-950529-3362-77 2.88213074720952e-07 125000 -286.849448137032 0 0 48 (C1) n - 1
REM
REM in /home/bkarasulu/work/CARBON/AIRSS/Generating-Clusters/EDIP-Nigel-Params/with-SteepDescent/Only-C1/SD-CG/HFTN-CG
REM
REM
REM
REM
REM
REM ./C.cell (11c1c37f851c82e70ff6c80c92926a4b)
REM
REM compiler GCC version 9.2.1 20190827 (Red Hat 9.2.1-1)
REM options -cpp -mtune=generic -march=x86-64 -g -O0 -fpre-include=/usr/include/finclude/math-vector-fortran.h
REM seed 562748842 -1960754233 -325560559 -1941723395 -2144231686 -1136459224 -562848433 209537542 -440872393 -1082857506 -1900388986 1118975882 -1052309267 -2005752968 -987269625 -25886885 1818556732 417011708 -1479541651 1560200622 -1691255453 -1443734121 -625788406 -1447876937 1952124022 322652000 -1755538455 -510236189 -759390959 -1800309195 -750403522 -369272258 1574956760
REM
CELL 1.54180   50.00000   50.00000   50.00000   90.00000   90.00000   90.00000
LATT -1
SFAC C  
C      1  0.4521130000000  0.5215550000000  0.5242520000000 1.0
C      1  0.5461090000000  0.4635710000000  0.4717580000000 1.0
C      1  0.5102220000000  0.4971660000000  0.5366920000000 1.0
C      1  0.5562260000000  0.4542280000000  0.5182780000000 1.0
C      1  0.5087920000000  0.5672040000000  0.4951610000000 1.0
C      1  0.4705780000000  0.5653190000000  0.5272590000000 1.0
C      1  0.4410000000000  0.5114850000000  0.4516570000000 1.0
C      1  0.4961230000000  0.4293670000000  0.5493690000000 1.0
C      1  0.4566030000000  0.5437910000000  0.4854790000000 1.0
C      1  0.4601240000000  0.4540210000000  0.5248470000000 1.0
C      1  0.4984160000000  0.4548340000000  0.5617060000000 1.0
C      1  0.4604010000000  0.5249730000000  0.4381210000000 1.0
C      1  0.4913840000000  0.5549580000000  0.4727550000000 1.0
C      1  0.5247410000000  0.5192550000000  0.4617360000000 1.0
C      1  0.5054580000000  0.4872120000000  0.4882230000000 1.0
C      1  0.4844760000000  0.4880580000000  0.4667980000000 1.0
C      1  0.5489630000000  0.5409280000000  0.5078120000000 1.0
C      1  0.4957440000000  0.4936410000000  0.4391820000000 1.0
C      1  0.5199960000000  0.4722850000000  0.5514720000000 1.0
C      1  0.4678610000000  0.5179350000000  0.5473150000000 1.0
C      1  0.5546140000000  0.5221100000000  0.4617440000000 1.0
C      1  0.4519490000000  0.5487350000000  0.5140500000000 1.0
C      1  0.5055510000000  0.5398490000000  0.4510150000000 1.0
C      1  0.5609960000000  0.4706720000000  0.4962310000000 1.0
C      1  0.5116340000000  0.5399190000000  0.5415350000000 1.0
C      1  0.5235510000000  0.4874100000000  0.4358460000000 1.0
C      1  0.4711220000000  0.4615830000000  0.4723980000000 1.0
C      1  0.4981650000000  0.4306450000000  0.5004360000000 1.0
C      1  0.4945640000000  0.4429840000000  0.4742520000000 1.0
C      1  0.4951140000000  0.5176590000000  0.5538870000000 1.0
C      1  0.4455220000000  0.5007860000000  0.5034560000000 1.0
C      1  0.4640470000000  0.4757010000000  0.5043800000000 1.0
C      1  0.5416890000000  0.4586120000000  0.5404450000000 1.0
C      1  0.5521490000000  0.4971910000000  0.5021400000000 1.0
C      1  0.4440170000000  0.5181790000000  0.4788560000000 1.0
C      1  0.4958060000000  0.5527460000000  0.5190310000000 1.0
C      1  0.5469140000000  0.4858920000000  0.4519670000000 1.0
C      1  0.4511710000000  0.4623880000000  0.5502340000000 1.0
C      1  0.5341220000000  0.5262690000000  0.5289810000000 1.0
C      1  0.5193640000000  0.4603110000000  0.4870050000000 1.0
C      1  0.5627150000000  0.5211900000000  0.4900340000000 1.0
C      1  0.4833830000000  0.4354000000000  0.5247170000000 1.0
C      1  0.4882050000000  0.5224900000000  0.4335840000000 1.0
C      1  0.4908500000000  0.4887970000000  0.5132710000000 1.0
C      1  0.4890010000000  0.5283950000000  0.5006110000000 1.0
C      1  0.4732780000000  0.4669100000000  0.5652890000000 1.0
C      1  0.5191460000000  0.5135150000000  0.4903830000000 1.0
C      1  0.5360290000000  0.5618730000000  0.4943520000000 1.0
END
