TITL C-951338-5626-621 -2.484147144867e-06 125000 -844.314491754433 0 0 134 (C1) n - 1
REM
REM in /home/bkarasulu/work/CARBON/AIRSS/Generating-Clusters/EDIP-Nigel-Params/with-SteepDescent/Only-C1/SD-CG/HFTN-CG
REM
REM
REM
REM
REM
REM ./C.cell (11c1c37f851c82e70ff6c80c92926a4b)
REM
REM compiler GCC version 9.2.1 20190827 (Red Hat 9.2.1-1)
REM options -cpp -mtune=generic -march=x86-64 -g -O0 -fpre-include=/usr/include/finclude/math-vector-fortran.h
REM seed 1003007864 -876234912 1155266385 -1209672587 2141569822 -1954414061 -281907456 806474992 1158046228 -930533068 -247390293 513017886 2146033178 -2117908690 -1349511082 -1071243210 -2096400062 933342193 2122229578 -599652964 -535626105 -1631937827 -1024716339 -1762801404 628260098 610564263 2129198268 1282056258 -1586848803 -1802097708 -526981985 15803697 -822719655
REM
CELL 1.54180   50.00000   50.00000   50.00000   90.00000   90.00000   90.00000
LATT -1
SFAC C  
C      1  0.5438080000000  0.4749470000000  0.4590440000000 1.0
C      1  0.4537910000000  0.4550280000000  0.5314840000000 1.0
C      1  0.4855900000000  0.5113520000000  0.4478860000000 1.0
C      1  0.4615510000000  0.4978630000000  0.4625960000000 1.0
C      1  0.5889630000000  0.4672800000000  0.4914560000000 1.0
C      1  0.4730980000000  0.5673920000000  0.5622670000000 1.0
C      1  0.4990040000000  0.5553170000000  0.5764020000000 1.0
C      1  0.4217370000000  0.4604850000000  0.4406800000000 1.0
C      1  0.5607170000000  0.4476700000000  0.5394650000000 1.0
C      1  0.5048570000000  0.4977310000000  0.4273740000000 1.0
C      1  0.5122750000000  0.4201100000000  0.4561650000000 1.0
C      1  0.4801080000000  0.6081930000000  0.4772550000000 1.0
C      1  0.5183960000000  0.5796710000000  0.4827620000000 1.0
C      1  0.4489070000000  0.4225630000000  0.5011770000000 1.0
C      1  0.4731810000000  0.5495030000000  0.4962940000000 1.0
C      1  0.4257120000000  0.4474150000000  0.5285540000000 1.0
C      1  0.5062840000000  0.5258000000000  0.4670000000000 1.0
C      1  0.4195370000000  0.4499660000000  0.4681030000000 1.0
C      1  0.5339450000000  0.4905450000000  0.5355910000000 1.0
C      1  0.5871850000000  0.5612660000000  0.5391920000000 1.0
C      1  0.4572760000000  0.5223790000000  0.4863980000000 1.0
C      1  0.5821340000000  0.4848290000000  0.5151890000000 1.0
C      1  0.5255450000000  0.5799670000000  0.5608030000000 1.0
C      1  0.5437850000000  0.4722170000000  0.4086690000000 1.0
C      1  0.5471260000000  0.4384690000000  0.5635000000000 1.0
C      1  0.4744900000000  0.4326020000000  0.5719080000000 1.0
C      1  0.5112030000000  0.4568410000000  0.5854130000000 1.0
C      1  0.5651290000000  0.5756910000000  0.5262310000000 1.0
C      1  0.5084600000000  0.4743430000000  0.5501430000000 1.0
C      1  0.5576960000000  0.4340110000000  0.4682890000000 1.0
C      1  0.4895930000000  0.4767890000000  0.5901600000000 1.0
C      1  0.4815440000000  0.4018650000000  0.5289730000000 1.0
C      1  0.5300370000000  0.5010930000000  0.4483660000000 1.0
C      1  0.5480630000000  0.4866370000000  0.5818580000000 1.0
C      1  0.4570250000000  0.5323550000000  0.5836740000000 1.0
C      1  0.5092240000000  0.3962210000000  0.5119980000000 1.0
C      1  0.4350490000000  0.4935890000000  0.5630700000000 1.0
C      1  0.5529950000000  0.5688490000000  0.5562300000000 1.0
C      1  0.5466250000000  0.5405190000000  0.5630920000000 1.0
C      1  0.4523830000000  0.5726550000000  0.4982800000000 1.0
C      1  0.4963100000000  0.5559350000000  0.4738960000000 1.0
C      1  0.4882180000000  0.5394730000000  0.4134980000000 1.0
C      1  0.4900270000000  0.5790230000000  0.4424700000000 1.0
C      1  0.4816580000000  0.5884930000000  0.5451930000000 1.0
C      1  0.5414720000000  0.4697040000000  0.4888310000000 1.0
C      1  0.5044800000000  0.5169040000000  0.4956790000000 1.0
C      1  0.5476890000000  0.5724930000000  0.4756900000000 1.0
C      1  0.4863960000000  0.3912760000000  0.4909180000000 1.0
C      1  0.5630950000000  0.4450590000000  0.4414100000000 1.0
C      1  0.4853900000000  0.5299180000000  0.5888100000000 1.0
C      1  0.5040130000000  0.5564310000000  0.4309290000000 1.0
C      1  0.4001420000000  0.5125780000000  0.5119670000000 1.0
C      1  0.5640320000000  0.4887660000000  0.4194670000000 1.0
C      1  0.5973300000000  0.5131150000000  0.5166630000000 1.0
C      1  0.4460870000000  0.5203970000000  0.5588020000000 1.0
C      1  0.4873980000000  0.6084340000000  0.5059430000000 1.0
C      1  0.4235430000000  0.5329140000000  0.5184150000000 1.0
C      1  0.5854600000000  0.4848020000000  0.4670850000000 1.0
C      1  0.4157100000000  0.5175640000000  0.4645450000000 1.0
C      1  0.5068860000000  0.5490340000000  0.5323550000000 1.0
C      1  0.5503180000000  0.5541000000000  0.4519580000000 1.0
C      1  0.5983800000000  0.5274160000000  0.4903980000000 1.0
C      1  0.5382910000000  0.4500800000000  0.4257440000000 1.0
C      1  0.4067480000000  0.4637640000000  0.5155930000000 1.0
C      1  0.4716500000000  0.4698910000000  0.4726270000000 1.0
C      1  0.4087150000000  0.4846970000000  0.4352260000000 1.0
C      1  0.5327370000000  0.5558490000000  0.4278470000000 1.0
C      1  0.4088240000000  0.4900690000000  0.5555850000000 1.0
C      1  0.4755900000000  0.4398060000000  0.4961740000000 1.0
C      1  0.5014520000000  0.4679510000000  0.4663660000000 1.0
C      1  0.4495840000000  0.5473600000000  0.4474280000000 1.0
C      1  0.3986140000000  0.4882530000000  0.5298220000000 1.0
C      1  0.5046410000000  0.4443070000000  0.5386880000000 1.0
C      1  0.5408860000000  0.4585710000000  0.5855410000000 1.0
C      1  0.5365640000000  0.5312720000000  0.4116830000000 1.0
C      1  0.4106540000000  0.4705980000000  0.4879350000000 1.0
C      1  0.4630690000000  0.4238460000000  0.4570560000000 1.0
C      1  0.5690660000000  0.5303960000000  0.4490700000000 1.0
C      1  0.4492910000000  0.4652800000000  0.4350910000000 1.0
C      1  0.5133570000000  0.4671670000000  0.4936910000000 1.0
C      1  0.4263770000000  0.5559770000000  0.4970460000000 1.0
C      1  0.5530970000000  0.5129140000000  0.4903720000000 1.0
C      1  0.5070750000000  0.4408100000000  0.5080650000000 1.0
C      1  0.4646130000000  0.4415060000000  0.4338880000000 1.0
C      1  0.4669030000000  0.4611390000000  0.5787480000000 1.0
C      1  0.5119730000000  0.4479670000000  0.4435590000000 1.0
C      1  0.4348960000000  0.5380330000000  0.4728160000000 1.0
C      1  0.5037400000000  0.4907420000000  0.5111970000000 1.0
C      1  0.5774360000000  0.4717730000000  0.5419780000000 1.0
C      1  0.4269050000000  0.5425210000000  0.5499380000000 1.0
C      1  0.5024660000000  0.4284940000000  0.5806900000000 1.0
C      1  0.5171170000000  0.5361360000000  0.5587660000000 1.0
C      1  0.4656040000000  0.5178060000000  0.5353430000000 1.0
C      1  0.5092540000000  0.5195000000000  0.4067340000000 1.0
C      1  0.4575410000000  0.4752260000000  0.5544080000000 1.0
C      1  0.4644250000000  0.5266040000000  0.4290080000000 1.0
C      1  0.5517060000000  0.5133970000000  0.4309590000000 1.0
C      1  0.4383010000000  0.4258940000000  0.4735740000000 1.0
C      1  0.5039270000000  0.5970630000000  0.4621500000000 1.0
C      1  0.5132700000000  0.5937280000000  0.5097840000000 1.0
C      1  0.5477320000000  0.5361840000000  0.5056540000000 1.0
C      1  0.5212970000000  0.4247230000000  0.5568200000000 1.0
C      1  0.5631920000000  0.5608590000000  0.4993660000000 1.0
C      1  0.5523550000000  0.4895630000000  0.5073470000000 1.0
C      1  0.4979690000000  0.5038010000000  0.5819210000000 1.0
C      1  0.5194480000000  0.5395860000000  0.5075910000000 1.0
C      1  0.5085650000000  0.5793630000000  0.5364990000000 1.0
C      1  0.4562940000000  0.5895280000000  0.4737720000000 1.0
C      1  0.5286710000000  0.4184860000000  0.5033860000000 1.0
C      1  0.4658910000000  0.5974720000000  0.5229480000000 1.0
C      1  0.5906670000000  0.5543730000000  0.4920520000000 1.0
C      1  0.4871010000000  0.4098820000000  0.4666960000000 1.0
C      1  0.5589090000000  0.4306700000000  0.5155890000000 1.0
C      1  0.4816740000000  0.4915730000000  0.5426850000000 1.0
C      1  0.4861850000000  0.4782050000000  0.4140800000000 1.0
C      1  0.5742710000000  0.4402100000000  0.4916610000000 1.0
C      1  0.5256140000000  0.5030880000000  0.5867150000000 1.0
C      1  0.4900670000000  0.4500660000000  0.4231810000000 1.0
C      1  0.4663790000000  0.4682880000000  0.5049750000000 1.0
C      1  0.4763120000000  0.4321380000000  0.5418270000000 1.0
C      1  0.4291920000000  0.5037510000000  0.4425600000000 1.0
C      1  0.4437610000000  0.5638340000000  0.5663650000000 1.0
C      1  0.4037450000000  0.4997790000000  0.4850870000000 1.0
C      1  0.4626600000000  0.5730380000000  0.4509110000000 1.0
C      1  0.5780050000000  0.4720740000000  0.4405420000000 1.0
C      1  0.4599340000000  0.3961280000000  0.5076610000000 1.0
C      1  0.5884320000000  0.5315270000000  0.5394910000000 1.0
C      1  0.4585230000000  0.4892930000000  0.4195950000000 1.0
C      1  0.4791400000000  0.5430240000000  0.5258990000000 1.0
C      1  0.4468350000000  0.5138450000000  0.5127500000000 1.0
C      1  0.5581920000000  0.4920890000000  0.5548360000000 1.0
C      1  0.5659410000000  0.5206410000000  0.5540740000000 1.0
C      1  0.5349630000000  0.4166700000000  0.4739910000000 1.0
C      1  0.5776560000000  0.5140110000000  0.4733720000000 1.0
END
