TITL C-950524-1808-341 -1.56627098176002e-06 125000 -664.15752203534 0 0 106 (C1) n - 1
REM
REM in /home/bkarasulu/work/CARBON/AIRSS/Generating-Clusters/EDIP-Nigel-Params/with-SteepDescent/Only-C1/SD-CG/HFTN-CG
REM
REM
REM
REM
REM
REM ./C.cell (11c1c37f851c82e70ff6c80c92926a4b)
REM
REM compiler GCC version 9.2.1 20190827 (Red Hat 9.2.1-1)
REM options -cpp -mtune=generic -march=x86-64 -g -O0 -fpre-include=/usr/include/finclude/math-vector-fortran.h
REM seed 1090495954 -1948900546 691371356 1065207698 1241212128 1409609552 1986562011 824581970 -268562363 874722752 136032479 -1734700522 -2116483460 -795575061 -245201423 -953179568 -702857293 1174937382 955556496 1702992856 -1005028049 1337112645 -1692688709 2029800427 875567533 -471071256 -1781641364 -1335319662 1694041494 -646645716 -1155911943 -1651541724 -1705779092
REM
CELL 1.54180   50.00000   50.00000   50.00000   90.00000   90.00000   90.00000
LATT -1
SFAC C  
C      1  0.5869170000000  0.5162250000000  0.5180740000000 1.0
C      1  0.4614350000000  0.5735260000000  0.5311310000000 1.0
C      1  0.5281870000000  0.5822920000000  0.4673230000000 1.0
C      1  0.5205750000000  0.4975600000000  0.5190610000000 1.0
C      1  0.4799810000000  0.4370720000000  0.5161160000000 1.0
C      1  0.4872740000000  0.5853000000000  0.5212030000000 1.0
C      1  0.4191710000000  0.4827030000000  0.4679680000000 1.0
C      1  0.4564320000000  0.4413010000000  0.5580360000000 1.0
C      1  0.4178010000000  0.5284510000000  0.4452490000000 1.0
C      1  0.4936030000000  0.4970680000000  0.5660230000000 1.0
C      1  0.5722820000000  0.5412360000000  0.5117550000000 1.0
C      1  0.5110770000000  0.5665580000000  0.5238320000000 1.0
C      1  0.5273360000000  0.5225160000000  0.5054560000000 1.0
C      1  0.4565270000000  0.4698360000000  0.4380250000000 1.0
C      1  0.5050710000000  0.4216860000000  0.5147440000000 1.0
C      1  0.4729210000000  0.5075330000000  0.5894630000000 1.0
C      1  0.5519200000000  0.4364130000000  0.5204770000000 1.0
C      1  0.4392850000000  0.5756610000000  0.5121830000000 1.0
C      1  0.4917210000000  0.4983350000000  0.4733520000000 1.0
C      1  0.4926980000000  0.4420840000000  0.4683450000000 1.0
C      1  0.5698720000000  0.5035720000000  0.5647130000000 1.0
C      1  0.5888370000000  0.4939560000000  0.4985630000000 1.0
C      1  0.4288390000000  0.5515450000000  0.4559830000000 1.0
C      1  0.5724240000000  0.4553180000000  0.5298950000000 1.0
C      1  0.4474070000000  0.4218400000000  0.4860430000000 1.0
C      1  0.4832640000000  0.4564970000000  0.5553550000000 1.0
C      1  0.4247510000000  0.4549410000000  0.5091550000000 1.0
C      1  0.5887730000000  0.5098910000000  0.5451360000000 1.0
C      1  0.5151030000000  0.4481130000000  0.5562330000000 1.0
C      1  0.4416760000000  0.4752720000000  0.5662800000000 1.0
C      1  0.5278750000000  0.4755790000000  0.5012110000000 1.0
C      1  0.4401630000000  0.5280090000000  0.4289460000000 1.0
C      1  0.4782290000000  0.5279760000000  0.5135540000000 1.0
C      1  0.4601400000000  0.5433900000000  0.5339580000000 1.0
C      1  0.4515350000000  0.5224680000000  0.5760620000000 1.0
C      1  0.5023620000000  0.5474870000000  0.4682270000000 1.0
C      1  0.5340670000000  0.4275310000000  0.4733530000000 1.0
C      1  0.5571890000000  0.4569470000000  0.4378940000000 1.0
C      1  0.5336250000000  0.4688560000000  0.5671190000000 1.0
C      1  0.5250980000000  0.4337330000000  0.5323990000000 1.0
C      1  0.5603280000000  0.5323680000000  0.4634920000000 1.0
C      1  0.4349630000000  0.4271150000000  0.5135520000000 1.0
C      1  0.5067140000000  0.4366040000000  0.4267530000000 1.0
C      1  0.4698860000000  0.4426860000000  0.4885780000000 1.0
C      1  0.5363640000000  0.4995430000000  0.4161520000000 1.0
C      1  0.5840960000000  0.5181460000000  0.4549640000000 1.0
C      1  0.5428830000000  0.5480850000000  0.5551280000000 1.0
C      1  0.4496490000000  0.4795890000000  0.5171580000000 1.0
C      1  0.4766920000000  0.5507280000000  0.4530530000000 1.0
C      1  0.5014050000000  0.4618180000000  0.4118330000000 1.0
C      1  0.4164230000000  0.4566730000000  0.4799510000000 1.0
C      1  0.4318770000000  0.4344520000000  0.4643970000000 1.0
C      1  0.5043640000000  0.5426770000000  0.5037050000000 1.0
C      1  0.5769220000000  0.4674400000000  0.4586160000000 1.0
C      1  0.4578920000000  0.4261410000000  0.5330940000000 1.0
C      1  0.5034440000000  0.5924820000000  0.4754740000000 1.0
C      1  0.4482270000000  0.4831740000000  0.4641020000000 1.0
C      1  0.4785600000000  0.4740100000000  0.5295360000000 1.0
C      1  0.4235090000000  0.5519710000000  0.5127220000000 1.0
C      1  0.4537400000000  0.5536780000000  0.4723920000000 1.0
C      1  0.5457150000000  0.5723250000000  0.4885180000000 1.0
C      1  0.4958540000000  0.5410810000000  0.5673430000000 1.0
C      1  0.4821030000000  0.4283840000000  0.4437640000000 1.0
C      1  0.4580450000000  0.5278020000000  0.4894520000000 1.0
C      1  0.5042840000000  0.5301420000000  0.5922830000000 1.0
C      1  0.5286890000000  0.4766710000000  0.4525140000000 1.0
C      1  0.5628840000000  0.4748910000000  0.5683230000000 1.0
C      1  0.5770780000000  0.4505540000000  0.4829480000000 1.0
C      1  0.4657580000000  0.4763300000000  0.5831910000000 1.0
C      1  0.4062470000000  0.5092740000000  0.5621050000000 1.0
C      1  0.4605880000000  0.4709560000000  0.4892120000000 1.0
C      1  0.5149710000000  0.5563210000000  0.5520510000000 1.0
C      1  0.4410760000000  0.5099330000000  0.5291680000000 1.0
C      1  0.4846660000000  0.4779870000000  0.4309170000000 1.0
C      1  0.5281480000000  0.5133350000000  0.5891100000000 1.0
C      1  0.4863820000000  0.5074640000000  0.4237700000000 1.0
C      1  0.5835420000000  0.4947790000000  0.4697220000000 1.0
C      1  0.5116450000000  0.5186000000000  0.4633650000000 1.0
C      1  0.5172910000000  0.4875330000000  0.5810400000000 1.0
C      1  0.5411280000000  0.4855230000000  0.4776700000000 1.0
C      1  0.5374850000000  0.5147740000000  0.4779430000000 1.0
C      1  0.5138690000000  0.5124790000000  0.4336350000000 1.0
C      1  0.4649160000000  0.5090390000000  0.4669410000000 1.0
C      1  0.5330020000000  0.4389410000000  0.4450920000000 1.0
C      1  0.4174860000000  0.5252650000000  0.5193940000000 1.0
C      1  0.5474710000000  0.5219860000000  0.5684600000000 1.0
C      1  0.5271420000000  0.5645160000000  0.4448190000000 1.0
C      1  0.4546380000000  0.5799730000000  0.4874140000000 1.0
C      1  0.5392950000000  0.5769260000000  0.5166950000000 1.0
C      1  0.5445010000000  0.5282640000000  0.4156720000000 1.0
C      1  0.4815710000000  0.5919480000000  0.4933150000000 1.0
C      1  0.4534110000000  0.4407270000000  0.4399210000000 1.0
C      1  0.5807280000000  0.4562520000000  0.5566870000000 1.0
C      1  0.5668460000000  0.5521680000000  0.4848420000000 1.0
C      1  0.4346340000000  0.5039040000000  0.5588780000000 1.0
C      1  0.5119570000000  0.4155830000000  0.4868900000000 1.0
C      1  0.5242390000000  0.4767900000000  0.4038210000000 1.0
C      1  0.4934480000000  0.5002550000000  0.5319320000000 1.0
C      1  0.3982720000000  0.5211340000000  0.5390490000000 1.0
C      1  0.4676710000000  0.5418280000000  0.5617670000000 1.0
C      1  0.5584600000000  0.5589350000000  0.5318430000000 1.0
C      1  0.5883460000000  0.4653080000000  0.5067930000000 1.0
C      1  0.4672930000000  0.5241700000000  0.4402600000000 1.0
C      1  0.5477410000000  0.5452170000000  0.4391250000000 1.0
C      1  0.5492430000000  0.4446320000000  0.4919280000000 1.0
C      1  0.4988630000000  0.4734480000000  0.4578720000000 1.0
END
