TITL C-951338-5626-514 -6.47346209925038e-07 125000 -889.440540187855 0 0 140 (C1) n - 1
REM
REM in /home/bkarasulu/work/CARBON/AIRSS/Generating-Clusters/EDIP-Nigel-Params/with-SteepDescent/Only-C1/SD-CG/HFTN-CG
REM
REM
REM
REM
REM
REM ./C.cell (11c1c37f851c82e70ff6c80c92926a4b)
REM
REM compiler GCC version 9.2.1 20190827 (Red Hat 9.2.1-1)
REM options -cpp -mtune=generic -march=x86-64 -g -O0 -fpre-include=/usr/include/finclude/math-vector-fortran.h
REM seed -2030107219 491699485 532490075 -1127293802 -724598459 361495845 576884782 -532668624 -1350809882 954919976 -440144280 -655385854 -873536770 -1951378505 497963878 170110720 438087226 -679729855 1597318246 154213592 -894390826 1136121390 1963825398 521795619 1231583628 1311701502 -917248430 -7043324 -2019813956 174155563 1172457673 235811944 1202783516
REM
CELL 1.54180   50.00000   50.00000   50.00000   90.00000   90.00000   90.00000
LATT -1
SFAC C  
C      1  0.5428950000000  0.5209060000000  0.5216620000000 1.0
C      1  0.5404160000000  0.4756480000000  0.4301440000000 1.0
C      1  0.4903030000000  0.4243190000000  0.4358660000000 1.0
C      1  0.6055370000000  0.4888180000000  0.4763110000000 1.0
C      1  0.5473480000000  0.5619810000000  0.4342360000000 1.0
C      1  0.5179460000000  0.4031630000000  0.4834350000000 1.0
C      1  0.5353720000000  0.6117950000000  0.5099050000000 1.0
C      1  0.5023570000000  0.5362550000000  0.4062760000000 1.0
C      1  0.4704000000000  0.5445830000000  0.5705610000000 1.0
C      1  0.5970410000000  0.5171440000000  0.4820400000000 1.0
C      1  0.5336010000000  0.5087070000000  0.4653510000000 1.0
C      1  0.5600660000000  0.5715540000000  0.5208140000000 1.0
C      1  0.5123270000000  0.5583950000000  0.5310170000000 1.0
C      1  0.4796010000000  0.4415660000000  0.4130630000000 1.0
C      1  0.3975840000000  0.4586040000000  0.5285890000000 1.0
C      1  0.5441460000000  0.5577980000000  0.5696010000000 1.0
C      1  0.4556670000000  0.4759350000000  0.4646960000000 1.0
C      1  0.4532280000000  0.4695820000000  0.5577940000000 1.0
C      1  0.5473350000000  0.5413750000000  0.5002820000000 1.0
C      1  0.4771730000000  0.4581420000000  0.4742670000000 1.0
C      1  0.5772210000000  0.4501170000000  0.4655060000000 1.0
C      1  0.4594930000000  0.5361430000000  0.5209580000000 1.0
C      1  0.5191210000000  0.5306830000000  0.5353570000000 1.0
C      1  0.3973520000000  0.4887980000000  0.4901900000000 1.0
C      1  0.4564180000000  0.4999170000000  0.4813100000000 1.0
C      1  0.5309700000000  0.4928430000000  0.5154150000000 1.0
C      1  0.4157250000000  0.5329250000000  0.4869540000000 1.0
C      1  0.5038030000000  0.4710250000000  0.4678650000000 1.0
C      1  0.4375040000000  0.5704930000000  0.4768620000000 1.0
C      1  0.5932490000000  0.5335510000000  0.4579920000000 1.0
C      1  0.4857270000000  0.5772160000000  0.4769800000000 1.0
C      1  0.4988590000000  0.4628880000000  0.4076690000000 1.0
C      1  0.5420160000000  0.4584410000000  0.5793460000000 1.0
C      1  0.4993130000000  0.4660640000000  0.5413580000000 1.0
C      1  0.5043140000000  0.4403340000000  0.5070300000000 1.0
C      1  0.4166680000000  0.5213020000000  0.5391100000000 1.0
C      1  0.4527390000000  0.4048950000000  0.5240920000000 1.0
C      1  0.4778120000000  0.4553380000000  0.5042970000000 1.0
C      1  0.5686980000000  0.5256630000000  0.5396320000000 1.0
C      1  0.4628380000000  0.5853630000000  0.5175460000000 1.0
C      1  0.4000290000000  0.4854440000000  0.5187560000000 1.0
C      1  0.5345530000000  0.4019350000000  0.5076470000000 1.0
C      1  0.5210150000000  0.5767330000000  0.4359090000000 1.0
C      1  0.5471860000000  0.4819060000000  0.5614150000000 1.0
C      1  0.4811850000000  0.3950270000000  0.5224980000000 1.0
C      1  0.5474290000000  0.5083460000000  0.5790990000000 1.0
C      1  0.4816580000000  0.4568210000000  0.5643390000000 1.0
C      1  0.4224120000000  0.5054810000000  0.4484990000000 1.0
C      1  0.4560540000000  0.5244200000000  0.4135900000000 1.0
C      1  0.6027850000000  0.5287490000000  0.5086760000000 1.0
C      1  0.4892190000000  0.5599770000000  0.4216480000000 1.0
C      1  0.5213070000000  0.4857900000000  0.5441710000000 1.0
C      1  0.5576700000000  0.5324740000000  0.4729730000000 1.0
C      1  0.4229490000000  0.5589640000000  0.4998120000000 1.0
C      1  0.5203980000000  0.4205310000000  0.5276550000000 1.0
C      1  0.4779320000000  0.4257920000000  0.5602650000000 1.0
C      1  0.5192770000000  0.5191700000000  0.5826560000000 1.0
C      1  0.4947160000000  0.4974080000000  0.4408660000000 1.0
C      1  0.4783310000000  0.5137950000000  0.5578360000000 1.0
C      1  0.5595740000000  0.4267380000000  0.4730260000000 1.0
C      1  0.5012810000000  0.6021710000000  0.4763080000000 1.0
C      1  0.5654580000000  0.4352240000000  0.5228780000000 1.0
C      1  0.5709830000000  0.4629570000000  0.5135510000000 1.0
C      1  0.5026810000000  0.5887280000000  0.5532790000000 1.0
C      1  0.5607020000000  0.5325360000000  0.5673880000000 1.0
C      1  0.6100180000000  0.4860990000000  0.4483460000000 1.0
C      1  0.5835080000000  0.5474610000000  0.5245460000000 1.0
C      1  0.4547070000000  0.4547230000000  0.4224750000000 1.0
C      1  0.4617810000000  0.4928720000000  0.5391140000000 1.0
C      1  0.5428360000000  0.4347280000000  0.5417540000000 1.0
C      1  0.5533950000000  0.4885700000000  0.4735950000000 1.0
C      1  0.5477510000000  0.4333630000000  0.5691530000000 1.0
C      1  0.4704940000000  0.4316310000000  0.4582800000000 1.0
C      1  0.5186370000000  0.5499390000000  0.5826750000000 1.0
C      1  0.4821070000000  0.5156410000000  0.4027410000000 1.0
C      1  0.5608500000000  0.4153670000000  0.5011320000000 1.0
C      1  0.4454830000000  0.4170480000000  0.4972930000000 1.0
C      1  0.4896990000000  0.5957720000000  0.5264260000000 1.0
C      1  0.5185340000000  0.4605620000000  0.5939730000000 1.0
C      1  0.5222910000000  0.4521110000000  0.4852070000000 1.0
C      1  0.6096310000000  0.5060820000000  0.5246340000000 1.0
C      1  0.5088580000000  0.4974560000000  0.4836080000000 1.0
C      1  0.4041030000000  0.4398980000000  0.5090150000000 1.0
C      1  0.4314600000000  0.4790940000000  0.5758380000000 1.0
C      1  0.5922170000000  0.4633690000000  0.4886470000000 1.0
C      1  0.5518800000000  0.5350180000000  0.4253760000000 1.0
C      1  0.4666100000000  0.4106600000000  0.4782990000000 1.0
C      1  0.5244410000000  0.5566770000000  0.4887580000000 1.0
C      1  0.4265060000000  0.5303650000000  0.5650160000000 1.0
C      1  0.4454820000000  0.5612690000000  0.5271850000000 1.0
C      1  0.5262130000000  0.5012940000000  0.4357750000000 1.0
C      1  0.4441790000000  0.5545330000000  0.5583810000000 1.0
C      1  0.4983910000000  0.5605620000000  0.5011780000000 1.0
C      1  0.4127700000000  0.4818400000000  0.4662270000000 1.0
C      1  0.5848050000000  0.4917230000000  0.4369980000000 1.0
C      1  0.5637030000000  0.4741770000000  0.4499240000000 1.0
C      1  0.4422780000000  0.5016400000000  0.4268920000000 1.0
C      1  0.4922840000000  0.4684270000000  0.5899780000000 1.0
C      1  0.4504720000000  0.4221360000000  0.5485510000000 1.0
C      1  0.5716180000000  0.4785730000000  0.5412010000000 1.0
C      1  0.4811340000000  0.5364100000000  0.5018780000000 1.0
C      1  0.4932370000000  0.5545910000000  0.4521030000000 1.0
C      1  0.4114370000000  0.4545100000000  0.5534420000000 1.0
C      1  0.4403020000000  0.5066420000000  0.5790300000000 1.0
C      1  0.5868640000000  0.5027080000000  0.5407590000000 1.0
C      1  0.4829060000000  0.5145550000000  0.4825360000000 1.0
C      1  0.4972940000000  0.4079340000000  0.5442270000000 1.0
C      1  0.4949010000000  0.5636190000000  0.5702410000000 1.0
C      1  0.5243340000000  0.5965660000000  0.4587910000000 1.0
C      1  0.4624510000000  0.4815590000000  0.4351850000000 1.0
C      1  0.5085840000000  0.5119710000000  0.5548860000000 1.0
C      1  0.4439630000000  0.4382290000000  0.4446670000000 1.0
C      1  0.5543160000000  0.5933590000000  0.5004520000000 1.0
C      1  0.5189610000000  0.4314160000000  0.4402630000000 1.0
C      1  0.4230330000000  0.4344890000000  0.4896160000000 1.0
C      1  0.4816380000000  0.4783810000000  0.5212560000000 1.0
C      1  0.4250040000000  0.4519370000000  0.4649660000000 1.0
C      1  0.4652000000000  0.5392100000000  0.5991030000000 1.0
C      1  0.5375740000000  0.5736400000000  0.5437370000000 1.0
C      1  0.4412420000000  0.5127820000000  0.5240170000000 1.0
C      1  0.5304230000000  0.5265540000000  0.4074700000000 1.0
C      1  0.4574310000000  0.5514660000000  0.4266830000000 1.0
C      1  0.4418420000000  0.5526560000000  0.4528880000000 1.0
C      1  0.5297620000000  0.4274350000000  0.4685350000000 1.0
C      1  0.4884100000000  0.4979070000000  0.5919500000000 1.0
C      1  0.4901550000000  0.4060150000000  0.4953920000000 1.0
C      1  0.5077230000000  0.6079910000000  0.5052790000000 1.0
C      1  0.4877540000000  0.5245320000000  0.4557350000000 1.0
C      1  0.4596810000000  0.5859490000000  0.4877170000000 1.0
C      1  0.4885870000000  0.4882120000000  0.3997970000000 1.0
C      1  0.5781400000000  0.5213390000000  0.4355380000000 1.0
C      1  0.5410680000000  0.5793910000000  0.4771030000000 1.0
C      1  0.5183040000000  0.4580220000000  0.4285770000000 1.0
C      1  0.3936330000000  0.5054690000000  0.5372330000000 1.0
C      1  0.4620730000000  0.5112110000000  0.5983740000000 1.0
C      1  0.4201380000000  0.5335390000000  0.4578300000000 1.0
C      1  0.4380190000000  0.4484780000000  0.5441640000000 1.0
C      1  0.5590410000000  0.5616380000000  0.4604440000000 1.0
C      1  0.4309200000000  0.5070840000000  0.4962240000000 1.0
C      1  0.5455680000000  0.4725390000000  0.4976000000000 1.0
END
