TITL C-951346-9544-411 -1.83300355329828e-06 125000 -239.75983772296 0 0 40 (C1) n - 1
REM
REM in /home/bkarasulu/work/CARBON/AIRSS/Generating-Clusters/EDIP-Nigel-Params/with-SteepDescent/Only-C1/SD-CG/HFTN-CG
REM
REM
REM
REM
REM
REM ./C.cell (11c1c37f851c82e70ff6c80c92926a4b)
REM
REM compiler GCC version 9.2.1 20190827 (Red Hat 9.2.1-1)
REM options -cpp -mtune=generic -march=x86-64 -g -O0 -fpre-include=/usr/include/finclude/math-vector-fortran.h
REM seed -1200859993 726961148 595325134 1955037960 -837310256 370969702 811551620 1774371933 1402524608 -1828827121 152435855 -58733781 1603493822 -970651176 588057965 1878836829 33269496 410796221 -24624524 -577809645 -1730648419 -766784074 -834702373 1611161368 760602795 2086840460 350538055 -936647177 -1528670699 -626228948 -1112522327 285354995 307231671
REM
CELL 1.54180   50.00000   50.00000   50.00000   90.00000   90.00000   90.00000
LATT -1
SFAC C  
C      1  0.4564790000000  0.5487860000000  0.5150140000000 1.0
C      1  0.4513850000000  0.4994350000000  0.4590090000000 1.0
C      1  0.4308290000000  0.5050340000000  0.5283560000000 1.0
C      1  0.4637360000000  0.4780440000000  0.4727660000000 1.0
C      1  0.5558930000000  0.4956830000000  0.4727340000000 1.0
C      1  0.4875270000000  0.5155680000000  0.5020900000000 1.0
C      1  0.5380430000000  0.5219390000000  0.5515330000000 1.0
C      1  0.4374580000000  0.5305550000000  0.5235380000000 1.0
C      1  0.5281930000000  0.4642750000000  0.5364270000000 1.0
C      1  0.4728340000000  0.5173010000000  0.4542320000000 1.0
C      1  0.4902160000000  0.4720490000000  0.4604070000000 1.0
C      1  0.4817270000000  0.5336510000000  0.4782160000000 1.0
C      1  0.4940410000000  0.5041570000000  0.4400650000000 1.0
C      1  0.5112530000000  0.5182480000000  0.5460290000000 1.0
C      1  0.4998370000000  0.5340860000000  0.5230490000000 1.0
C      1  0.4644360000000  0.4838360000000  0.5024320000000 1.0
C      1  0.5075960000000  0.4916010000000  0.4957570000000 1.0
C      1  0.4789000000000  0.5521390000000  0.5313090000000 1.0
C      1  0.4608380000000  0.5512390000000  0.4875070000000 1.0
C      1  0.5196430000000  0.4425930000000  0.5186520000000 1.0
C      1  0.5212140000000  0.5142330000000  0.4397290000000 1.0
C      1  0.4572220000000  0.4674530000000  0.5442850000000 1.0
C      1  0.4421950000000  0.4803840000000  0.5220180000000 1.0
C      1  0.4913030000000  0.4363410000000  0.5206980000000 1.0
C      1  0.4702420000000  0.4434650000000  0.5373930000000 1.0
C      1  0.5241760000000  0.4503700000000  0.4918070000000 1.0
C      1  0.5490030000000  0.4805630000000  0.5243440000000 1.0
C      1  0.5167360000000  0.4599350000000  0.4662370000000 1.0
C      1  0.5088450000000  0.5479590000000  0.4770320000000 1.0
C      1  0.5527910000000  0.5256890000000  0.4759160000000 1.0
C      1  0.5378050000000  0.4910150000000  0.4981330000000 1.0
C      1  0.5511080000000  0.5127530000000  0.5276580000000 1.0
C      1  0.5295710000000  0.5351000000000  0.4595980000000 1.0
C      1  0.4907420000000  0.4748830000000  0.5154060000000 1.0
C      1  0.5464950000000  0.5333700000000  0.5042090000000 1.0
C      1  0.5391360000000  0.4688370000000  0.4504350000000 1.0
C      1  0.5203670000000  0.5478830000000  0.5050460000000 1.0
C      1  0.5416920000000  0.4937930000000  0.4372250000000 1.0
C      1  0.5028800000000  0.4902070000000  0.5487690000000 1.0
C      1  0.4756130000000  0.4855490000000  0.5549390000000 1.0
END
