TITL C-951340-9809-648 -5.08892349314075e-06 125000 -1126.28662745402 0 0 176 (C1) n - 1
REM
REM in /home/bkarasulu/work/CARBON/AIRSS/Generating-Clusters/EDIP-Nigel-Params/with-SteepDescent/Only-C1/SD-CG/HFTN-CG
REM
REM
REM
REM
REM
REM ./C.cell (11c1c37f851c82e70ff6c80c92926a4b)
REM
REM compiler GCC version 9.2.1 20190827 (Red Hat 9.2.1-1)
REM options -cpp -mtune=generic -march=x86-64 -g -O0 -fpre-include=/usr/include/finclude/math-vector-fortran.h
REM seed 980305601 -221772181 -807396246 -563995461 -76190728 -1928231202 -247572211 -1182138726 -1914819452 1202395553 442113213 -1684275957 2082744194 -875597944 -399889929 2041657081 359377407 -695008784 -568443266 -1990904916 1029537694 -562277651 -1352942244 1602998003 358746851 -685936363 450540810 1636003942 1044262728 1416546043 1587899126 598059143 557723189
REM
CELL 1.54180   50.00000   50.00000   50.00000   90.00000   90.00000   90.00000
LATT -1
SFAC C  
C      1  0.5192640000000  0.4552490000000  0.4387680000000 1.0
C      1  0.5826900000000  0.5511860000000  0.5560120000000 1.0
C      1  0.4743260000000  0.6053980000000  0.4797550000000 1.0
C      1  0.4882280000000  0.5519360000000  0.5825480000000 1.0
C      1  0.4545480000000  0.4243770000000  0.5046780000000 1.0
C      1  0.6106130000000  0.4942810000000  0.4740140000000 1.0
C      1  0.5672090000000  0.4331790000000  0.5665460000000 1.0
C      1  0.5011730000000  0.4430730000000  0.5973210000000 1.0
C      1  0.4977880000000  0.4464060000000  0.5232420000000 1.0
C      1  0.5357880000000  0.4205190000000  0.5326150000000 1.0
C      1  0.4815920000000  0.4994340000000  0.5519670000000 1.0
C      1  0.5753190000000  0.4622710000000  0.5664540000000 1.0
C      1  0.5258670000000  0.4466660000000  0.5191770000000 1.0
C      1  0.4824530000000  0.5277140000000  0.4826420000000 1.0
C      1  0.4595500000000  0.4524220000000  0.5521340000000 1.0
C      1  0.4117720000000  0.4349680000000  0.5148800000000 1.0
C      1  0.4900030000000  0.4666970000000  0.4021970000000 1.0
C      1  0.5451490000000  0.3999230000000  0.4881080000000 1.0
C      1  0.4162630000000  0.5195530000000  0.5708600000000 1.0
C      1  0.5147660000000  0.5740870000000  0.5009470000000 1.0
C      1  0.4938040000000  0.5822180000000  0.4782460000000 1.0
C      1  0.4852950000000  0.6040000000000  0.5280900000000 1.0
C      1  0.4669270000000  0.4814940000000  0.5979120000000 1.0
C      1  0.4893800000000  0.4517770000000  0.5512410000000 1.0
C      1  0.5534480000000  0.5149120000000  0.5186200000000 1.0
C      1  0.3919800000000  0.5067860000000  0.5295760000000 1.0
C      1  0.5798580000000  0.4984310000000  0.4244520000000 1.0
C      1  0.5632250000000  0.4540490000000  0.4374910000000 1.0
C      1  0.4436590000000  0.4909740000000  0.4005970000000 1.0
C      1  0.5037280000000  0.5240210000000  0.5014520000000 1.0
C      1  0.5137680000000  0.5068010000000  0.4593910000000 1.0
C      1  0.5411340000000  0.4706950000000  0.6034710000000 1.0
C      1  0.3975800000000  0.5004820000000  0.5018140000000 1.0
C      1  0.5306340000000  0.4423320000000  0.6013170000000 1.0
C      1  0.5568480000000  0.4291690000000  0.4510250000000 1.0
C      1  0.5279860000000  0.5517710000000  0.4299910000000 1.0
C      1  0.4264720000000  0.5670820000000  0.4833850000000 1.0
C      1  0.4792380000000  0.5864450000000  0.5492850000000 1.0
C      1  0.4847560000000  0.4299410000000  0.5021630000000 1.0
C      1  0.4387780000000  0.4317800000000  0.4451410000000 1.0
C      1  0.4760880000000  0.5470010000000  0.4429690000000 1.0
C      1  0.4963470000000  0.5864290000000  0.4275270000000 1.0
C      1  0.5030210000000  0.5641260000000  0.5283820000000 1.0
C      1  0.5144350000000  0.5641520000000  0.5706460000000 1.0
C      1  0.5006540000000  0.4299870000000  0.4330170000000 1.0
C      1  0.5538430000000  0.5387820000000  0.4206060000000 1.0
C      1  0.4546850000000  0.5600560000000  0.4951300000000 1.0
C      1  0.4642940000000  0.6068990000000  0.5069040000000 1.0
C      1  0.4063900000000  0.5220400000000  0.4848980000000 1.0
C      1  0.6175140000000  0.5435740000000  0.4735750000000 1.0
C      1  0.5172440000000  0.5133400000000  0.5978930000000 1.0
C      1  0.4465500000000  0.5252020000000  0.5761950000000 1.0
C      1  0.5293380000000  0.4863490000000  0.5566520000000 1.0
C      1  0.4801110000000  0.3900580000000  0.5262700000000 1.0
C      1  0.4546330000000  0.6030120000000  0.4597850000000 1.0
C      1  0.5441930000000  0.4891110000000  0.5094260000000 1.0
C      1  0.4967460000000  0.5231490000000  0.5499770000000 1.0
C      1  0.4666950000000  0.4957000000000  0.4439060000000 1.0
C      1  0.4995490000000  0.4776620000000  0.5638050000000 1.0
C      1  0.4143020000000  0.4190210000000  0.4868690000000 1.0
C      1  0.5420030000000  0.4250490000000  0.5798680000000 1.0
C      1  0.5353420000000  0.4725970000000  0.5305960000000 1.0
C      1  0.4515240000000  0.4214370000000  0.5540110000000 1.0
C      1  0.6054770000000  0.4731510000000  0.4562640000000 1.0
C      1  0.5333180000000  0.4138580000000  0.4421820000000 1.0
C      1  0.5590120000000  0.6018780000000  0.4748160000000 1.0
C      1  0.4997720000000  0.5335710000000  0.4274530000000 1.0
C      1  0.4377190000000  0.5172110000000  0.5095570000000 1.0
C      1  0.5157970000000  0.5713020000000  0.4103490000000 1.0
C      1  0.5904800000000  0.4964450000000  0.4968580000000 1.0
C      1  0.4969250000000  0.4301490000000  0.5705450000000 1.0
C      1  0.5444200000000  0.6155770000000  0.4926270000000 1.0
C      1  0.5961880000000  0.5213360000000  0.4348150000000 1.0
C      1  0.4898090000000  0.5374240000000  0.5254460000000 1.0
C      1  0.4332650000000  0.4936070000000  0.5341860000000 1.0
C      1  0.4912880000000  0.3899410000000  0.5529470000000 1.0
C      1  0.4090790000000  0.5485800000000  0.4976910000000 1.0
C      1  0.4702110000000  0.5584960000000  0.3974350000000 1.0
C      1  0.4437920000000  0.4805250000000  0.4290920000000 1.0
C      1  0.5795380000000  0.5457750000000  0.4344370000000 1.0
C      1  0.5095670000000  0.5869530000000  0.4542350000000 1.0
C      1  0.4999400000000  0.5539110000000  0.3925700000000 1.0
C      1  0.5249660000000  0.5192250000000  0.5544470000000 1.0
C      1  0.5309100000000  0.4438670000000  0.4888080000000 1.0
C      1  0.5227290000000  0.5891660000000  0.5564640000000 1.0
C      1  0.4220640000000  0.4657180000000  0.5795400000000 1.0
C      1  0.5513650000000  0.5095880000000  0.4246720000000 1.0
C      1  0.4332060000000  0.5739810000000  0.5333430000000 1.0
C      1  0.4566590000000  0.5110420000000  0.4840010000000 1.0
C      1  0.5746810000000  0.4471510000000  0.4952000000000 1.0
C      1  0.4035000000000  0.4734550000000  0.4948110000000 1.0
C      1  0.4379680000000  0.5923010000000  0.5096870000000 1.0
C      1  0.5547330000000  0.4284740000000  0.4814280000000 1.0
C      1  0.4126100000000  0.5152410000000  0.4561420000000 1.0
C      1  0.4551890000000  0.5252580000000  0.4480050000000 1.0
C      1  0.3975210000000  0.4834720000000  0.5442010000000 1.0
C      1  0.5668260000000  0.4769040000000  0.4913730000000 1.0
C      1  0.6091790000000  0.5365040000000  0.5266780000000 1.0
C      1  0.4134060000000  0.4669280000000  0.4691040000000 1.0
C      1  0.6029840000000  0.5137450000000  0.5426730000000 1.0
C      1  0.4463640000000  0.5838770000000  0.4408910000000 1.0
C      1  0.5058910000000  0.4924790000000  0.5049840000000 1.0
C      1  0.5436220000000  0.5078800000000  0.4555900000000 1.0
C      1  0.4196910000000  0.4869230000000  0.4485520000000 1.0
C      1  0.5878510000000  0.5479830000000  0.5103820000000 1.0
C      1  0.4527720000000  0.4516740000000  0.4294010000000 1.0
C      1  0.5386690000000  0.5490100000000  0.5754990000000 1.0
C      1  0.4646950000000  0.5115850000000  0.5985670000000 1.0
C      1  0.5279890000000  0.5455840000000  0.4892750000000 1.0
C      1  0.5304710000000  0.4978100000000  0.4050490000000 1.0
C      1  0.4350130000000  0.4532820000000  0.5051390000000 1.0
C      1  0.4539240000000  0.5127110000000  0.5484710000000 1.0
C      1  0.5567660000000  0.5792780000000  0.4591990000000 1.0
C      1  0.4558590000000  0.5708590000000  0.5517770000000 1.0
C      1  0.5851260000000  0.4669710000000  0.5387090000000 1.0
C      1  0.4622030000000  0.4822160000000  0.4859570000000 1.0
C      1  0.4069940000000  0.5283530000000  0.5432620000000 1.0
C      1  0.4778530000000  0.4436120000000  0.4158050000000 1.0
C      1  0.4749920000000  0.4821530000000  0.5119080000000 1.0
C      1  0.5549360000000  0.5327270000000  0.4753550000000 1.0
C      1  0.5274660000000  0.3942440000000  0.4637950000000 1.0
C      1  0.5659770000000  0.4227050000000  0.5385320000000 1.0
C      1  0.5649780000000  0.5094120000000  0.5819650000000 1.0
C      1  0.6132830000000  0.5195940000000  0.4592980000000 1.0
C      1  0.5275540000000  0.4640910000000  0.4672850000000 1.0
C      1  0.5995650000000  0.4896000000000  0.5259970000000 1.0
C      1  0.5538090000000  0.4812800000000  0.5778920000000 1.0
C      1  0.4424260000000  0.4061870000000  0.4828120000000 1.0
C      1  0.4954770000000  0.4724720000000  0.5940650000000 1.0
C      1  0.5214820000000  0.4137020000000  0.5602840000000 1.0
C      1  0.4502000000000  0.4693070000000  0.5267880000000 1.0
C      1  0.5816210000000  0.5230250000000  0.5607500000000 1.0
C      1  0.4910910000000  0.5271080000000  0.5984070000000 1.0
C      1  0.4773460000000  0.5561110000000  0.4740830000000 1.0
C      1  0.5111000000000  0.4791390000000  0.4195880000000 1.0
C      1  0.4755080000000  0.4091270000000  0.5693850000000 1.0
C      1  0.4548820000000  0.4100480000000  0.4554100000000 1.0
C      1  0.4575400000000  0.5403300000000  0.5204830000000 1.0
C      1  0.4973930000000  0.5025910000000  0.4354510000000 1.0
C      1  0.5157780000000  0.6066110000000  0.5327880000000 1.0
C      1  0.4985040000000  0.4011830000000  0.5031630000000 1.0
C      1  0.5072600000000  0.4839000000000  0.4757240000000 1.0
C      1  0.5322210000000  0.5971690000000  0.5097760000000 1.0
C      1  0.5279390000000  0.3997840000000  0.5122680000000 1.0
C      1  0.5819680000000  0.4424000000000  0.5230890000000 1.0
C      1  0.4365450000000  0.5184320000000  0.3957970000000 1.0
C      1  0.4991410000000  0.3954440000000  0.4726290000000 1.0
C      1  0.4152050000000  0.4252490000000  0.5424730000000 1.0
C      1  0.5719800000000  0.5640200000000  0.5325170000000 1.0
C      1  0.5725830000000  0.5237150000000  0.4992560000000 1.0
C      1  0.5169040000000  0.4870000000000  0.6088400000000 1.0
C      1  0.4862220000000  0.4415520000000  0.4751490000000 1.0
C      1  0.4848000000000  0.4179950000000  0.4575360000000 1.0
C      1  0.4281040000000  0.5359550000000  0.4420660000000 1.0
C      1  0.5533220000000  0.4797510000000  0.4643250000000 1.0
C      1  0.4074330000000  0.4899710000000  0.5699940000000 1.0
C      1  0.4152740000000  0.5509530000000  0.5263700000000 1.0
C      1  0.5965300000000  0.5591180000000  0.4829950000000 1.0
C      1  0.4621700000000  0.5306950000000  0.3936690000000 1.0
C      1  0.5734710000000  0.5552400000000  0.4626800000000 1.0
C      1  0.4813710000000  0.4712880000000  0.4675180000000 1.0
C      1  0.5860010000000  0.4720280000000  0.4361070000000 1.0
C      1  0.5355760000000  0.5329110000000  0.5309300000000 1.0
C      1  0.5429760000000  0.5265250000000  0.5928670000000 1.0
C      1  0.5413520000000  0.5623240000000  0.5353210000000 1.0
C      1  0.4696600000000  0.5708580000000  0.4258850000000 1.0
C      1  0.4590690000000  0.5531790000000  0.5741860000000 1.0
C      1  0.4266620000000  0.5645800000000  0.4526750000000 1.0
C      1  0.5133040000000  0.5178410000000  0.3906150000000 1.0
C      1  0.4147030000000  0.4428710000000  0.5641760000000 1.0
C      1  0.4504440000000  0.4692000000000  0.5761700000000 1.0
C      1  0.4183690000000  0.4389220000000  0.4645750000000 1.0
C      1  0.4843830000000  0.5127270000000  0.3914720000000 1.0
C      1  0.4555920000000  0.4069520000000  0.5281470000000 1.0
C      1  0.4719020000000  0.4870810000000  0.3912320000000 1.0
C      1  0.5304440000000  0.5665920000000  0.4564560000000 1.0
END
