TITL C-950534-5965-544 6.92372213802946e-08 125000 -850.371233939517 0 0 135 (C1) n - 1
REM
REM in /home/bkarasulu/work/CARBON/AIRSS/Generating-Clusters/EDIP-Nigel-Params/with-SteepDescent/Only-C1/SD-CG/HFTN-CG
REM
REM
REM
REM
REM
REM ./C.cell (11c1c37f851c82e70ff6c80c92926a4b)
REM
REM compiler GCC version 9.2.1 20190827 (Red Hat 9.2.1-1)
REM options -cpp -mtune=generic -march=x86-64 -g -O0 -fpre-include=/usr/include/finclude/math-vector-fortran.h
REM seed 1928130936 386043624 -2018793679 -1793840609 939816607 1992188722 -53254152 -344908349 -1542354955 1119292026 1848670396 -1030454900 76834943 -1714014379 -1756987388 1626655931 162518832 722536209 1609810583 -1545054408 -67249407 1959342175 -1958955496 1002203019 1683738100 1970210465 -1904283074 -2045863308 1095418772 663382224 -1154557164 -321580211 -1367279754
REM
CELL 1.54180   50.00000   50.00000   50.00000   90.00000   90.00000   90.00000
LATT -1
SFAC C  
C      1  0.5230070000000  0.4271530000000  0.5435240000000 1.0
C      1  0.5913930000000  0.4602550000000  0.4949820000000 1.0
C      1  0.4557100000000  0.4777740000000  0.4525700000000 1.0
C      1  0.4631100000000  0.5840100000000  0.4758220000000 1.0
C      1  0.4842760000000  0.5927120000000  0.5187840000000 1.0
C      1  0.5629680000000  0.4980100000000  0.4206280000000 1.0
C      1  0.5024920000000  0.5870180000000  0.4472790000000 1.0
C      1  0.4521970000000  0.4091210000000  0.4882870000000 1.0
C      1  0.4613640000000  0.5263420000000  0.4680990000000 1.0
C      1  0.4805110000000  0.4220800000000  0.4562360000000 1.0
C      1  0.5556580000000  0.5828710000000  0.5366600000000 1.0
C      1  0.5494040000000  0.5292800000000  0.4544640000000 1.0
C      1  0.4857720000000  0.5058560000000  0.6021010000000 1.0
C      1  0.4918120000000  0.5295300000000  0.5846960000000 1.0
C      1  0.5873150000000  0.4897740000000  0.4914480000000 1.0
C      1  0.4125390000000  0.5237670000000  0.5105470000000 1.0
C      1  0.4752290000000  0.5681700000000  0.5594030000000 1.0
C      1  0.5562600000000  0.5340640000000  0.5032560000000 1.0
C      1  0.4439440000000  0.5144850000000  0.4210780000000 1.0
C      1  0.5056370000000  0.5339920000000  0.5175360000000 1.0
C      1  0.5093210000000  0.5904900000000  0.5336310000000 1.0
C      1  0.5483880000000  0.5134620000000  0.4795960000000 1.0
C      1  0.4633230000000  0.5229430000000  0.4981390000000 1.0
C      1  0.4832330000000  0.5436790000000  0.4564980000000 1.0
C      1  0.4960450000000  0.4522150000000  0.4209060000000 1.0
C      1  0.4019900000000  0.4579710000000  0.4769150000000 1.0
C      1  0.4553170000000  0.4305850000000  0.4698450000000 1.0
C      1  0.5216450000000  0.5025550000000  0.4830480000000 1.0
C      1  0.5781350000000  0.5235440000000  0.5246290000000 1.0
C      1  0.4844540000000  0.4578910000000  0.5227780000000 1.0
C      1  0.4613890000000  0.5006290000000  0.4032550000000 1.0
C      1  0.5993900000000  0.5166840000000  0.4932450000000 1.0
C      1  0.4500230000000  0.4369910000000  0.4229990000000 1.0
C      1  0.5117000000000  0.5044570000000  0.3969740000000 1.0
C      1  0.5008500000000  0.4070180000000  0.4680110000000 1.0
C      1  0.5116550000000  0.4954970000000  0.6112360000000 1.0
C      1  0.5745420000000  0.4549580000000  0.4436450000000 1.0
C      1  0.4205170000000  0.5539520000000  0.5303590000000 1.0
C      1  0.3776710000000  0.4702150000000  0.4830710000000 1.0
C      1  0.5654880000000  0.4884910000000  0.4722200000000 1.0
C      1  0.4556160000000  0.4610480000000  0.5236660000000 1.0
C      1  0.4937690000000  0.4385130000000  0.5026350000000 1.0
C      1  0.4420060000000  0.5147550000000  0.5200220000000 1.0
C      1  0.4798310000000  0.4929520000000  0.5549340000000 1.0
C      1  0.5325660000000  0.5164030000000  0.6039600000000 1.0
C      1  0.5909430000000  0.5393410000000  0.4756130000000 1.0
C      1  0.4498020000000  0.4378420000000  0.5423060000000 1.0
C      1  0.4520100000000  0.5425620000000  0.4213190000000 1.0
C      1  0.5387860000000  0.5111200000000  0.4319710000000 1.0
C      1  0.5304180000000  0.5495600000000  0.5112600000000 1.0
C      1  0.5273890000000  0.5271730000000  0.4081780000000 1.0
C      1  0.4348980000000  0.4347030000000  0.4480720000000 1.0
C      1  0.4434090000000  0.5306210000000  0.5704530000000 1.0
C      1  0.4415290000000  0.5685790000000  0.4880240000000 1.0
C      1  0.5038160000000  0.5767920000000  0.5590540000000 1.0
C      1  0.5184240000000  0.5419160000000  0.5919210000000 1.0
C      1  0.5102500000000  0.5945430000000  0.4758860000000 1.0
C      1  0.5236800000000  0.4643270000000  0.4235690000000 1.0
C      1  0.5001610000000  0.4721170000000  0.5428940000000 1.0
C      1  0.5196250000000  0.4764520000000  0.4696120000000 1.0
C      1  0.5721150000000  0.5567410000000  0.4904910000000 1.0
C      1  0.5431660000000  0.4760570000000  0.5214300000000 1.0
C      1  0.5526290000000  0.5654580000000  0.5587480000000 1.0
C      1  0.5150590000000  0.4679160000000  0.6058960000000 1.0
C      1  0.5778820000000  0.5342620000000  0.4508350000000 1.0
C      1  0.5171090000000  0.4524710000000  0.5604770000000 1.0
C      1  0.5629980000000  0.4336440000000  0.5685610000000 1.0
C      1  0.4663620000000  0.4640920000000  0.4254080000000 1.0
C      1  0.4971240000000  0.5176440000000  0.5575360000000 1.0
C      1  0.5469950000000  0.4454180000000  0.4352390000000 1.0
C      1  0.4614840000000  0.4146920000000  0.5322020000000 1.0
C      1  0.5578190000000  0.4840240000000  0.3964330000000 1.0
C      1  0.5769450000000  0.4847520000000  0.4432160000000 1.0
C      1  0.5427000000000  0.4527890000000  0.5049100000000 1.0
C      1  0.5516800000000  0.4196350000000  0.5466520000000 1.0
C      1  0.5194660000000  0.4902570000000  0.5294130000000 1.0
C      1  0.4220030000000  0.4777730000000  0.4874050000000 1.0
C      1  0.5206790000000  0.4869220000000  0.4416130000000 1.0
C      1  0.4675500000000  0.5470980000000  0.5799680000000 1.0
C      1  0.5216990000000  0.4310320000000  0.5130220000000 1.0
C      1  0.4129670000000  0.5271890000000  0.4802940000000 1.0
C      1  0.4952880000000  0.4579030000000  0.4774220000000 1.0
C      1  0.4279370000000  0.4854620000000  0.5568980000000 1.0
C      1  0.5257440000000  0.5601950000000  0.5691870000000 1.0
C      1  0.4033360000000  0.4945880000000  0.5468820000000 1.0
C      1  0.4788830000000  0.4987060000000  0.4983610000000 1.0
C      1  0.3819480000000  0.4860960000000  0.5046220000000 1.0
C      1  0.5680720000000  0.5418260000000  0.5568000000000 1.0
C      1  0.5062790000000  0.5056520000000  0.5069340000000 1.0
C      1  0.5297520000000  0.4791660000000  0.3981190000000 1.0
C      1  0.5336450000000  0.5553080000000  0.4600600000000 1.0
C      1  0.5545610000000  0.5153740000000  0.5613300000000 1.0
C      1  0.4255640000000  0.5524020000000  0.4693030000000 1.0
C      1  0.4669500000000  0.5705910000000  0.5282580000000 1.0
C      1  0.4808060000000  0.5470410000000  0.5077750000000 1.0
C      1  0.5364540000000  0.4094740000000  0.4988840000000 1.0
C      1  0.4505570000000  0.4887460000000  0.5371120000000 1.0
C      1  0.4418680000000  0.5363770000000  0.5409260000000 1.0
C      1  0.5538480000000  0.5735520000000  0.4736180000000 1.0
C      1  0.5333830000000  0.5797780000000  0.5183700000000 1.0
C      1  0.5025290000000  0.4508650000000  0.5873450000000 1.0
C      1  0.4363410000000  0.5527390000000  0.4427110000000 1.0
C      1  0.4747350000000  0.5734430000000  0.4507790000000 1.0
C      1  0.4416980000000  0.5002930000000  0.5790030000000 1.0
C      1  0.5224120000000  0.5684560000000  0.4349480000000 1.0
C      1  0.4869070000000  0.5071610000000  0.4137740000000 1.0
C      1  0.4730820000000  0.4146060000000  0.5068660000000 1.0
C      1  0.5459330000000  0.4616880000000  0.4761450000000 1.0
C      1  0.4208820000000  0.4601680000000  0.4524860000000 1.0
C      1  0.5093810000000  0.5499500000000  0.4151180000000 1.0
C      1  0.4714030000000  0.4752610000000  0.4797930000000 1.0
C      1  0.4871430000000  0.5875500000000  0.4911100000000 1.0
C      1  0.5650030000000  0.4718750000000  0.5391970000000 1.0
C      1  0.5074150000000  0.5506840000000  0.4795610000000 1.0
C      1  0.5255830000000  0.5111500000000  0.5496930000000 1.0
C      1  0.5651480000000  0.4250440000000  0.5200820000000 1.0
C      1  0.5283940000000  0.4076770000000  0.4713380000000 1.0
C      1  0.5563110000000  0.4768270000000  0.5882960000000 1.0
C      1  0.5407140000000  0.4251060000000  0.4533790000000 1.0
C      1  0.4458400000000  0.5062080000000  0.4507990000000 1.0
C      1  0.5824050000000  0.4504380000000  0.5222110000000 1.0
C      1  0.3938600000000  0.5038250000000  0.5223330000000 1.0
C      1  0.4484920000000  0.4610340000000  0.4933030000000 1.0
C      1  0.5555700000000  0.5049200000000  0.5891290000000 1.0
C      1  0.5369550000000  0.5916600000000  0.4898760000000 1.0
C      1  0.4841770000000  0.5355720000000  0.4254410000000 1.0
C      1  0.4577110000000  0.4427840000000  0.5685790000000 1.0
C      1  0.4794770000000  0.4270630000000  0.4274840000000 1.0
C      1  0.4377100000000  0.5733990000000  0.5170870000000 1.0
C      1  0.5806940000000  0.4451460000000  0.4713380000000 1.0
C      1  0.4211550000000  0.5020750000000  0.4670470000000 1.0
C      1  0.4698560000000  0.4879400000000  0.5834810000000 1.0
C      1  0.4734610000000  0.4577480000000  0.5861950000000 1.0
C      1  0.5513360000000  0.4599870000000  0.5651730000000 1.0
C      1  0.5743740000000  0.4997450000000  0.5445400000000 1.0
END
