TITL C-950521-2237-152 -5.86728971438195e-08 125000 -403.41494036131 0 0 66 (C1) n - 1
REM
REM in /home/bkarasulu/work/CARBON/AIRSS/Generating-Clusters/EDIP-Nigel-Params/with-SteepDescent/Only-C1/SD-CG/HFTN-CG
REM
REM
REM
REM
REM
REM ./C.cell (11c1c37f851c82e70ff6c80c92926a4b)
REM
REM compiler GCC version 9.2.1 20190827 (Red Hat 9.2.1-1)
REM options -cpp -mtune=generic -march=x86-64 -g -O0 -fpre-include=/usr/include/finclude/math-vector-fortran.h
REM seed 420860598 -1361313305 625370390 -1373778694 -1369487032 -702896214 131635956 2034579625 150252347 1825307801 1330286223 2098477712 -618047921 742270900 2107528863 1077121048 1080345497 321808102 1104724330 -1799608466 -404824477 -994272218 1644634223 1560714227 -220290716 2094428959 735321865 555466221 -2059071961 672206195 461949189 1193501420 -676681194
REM
CELL 1.54180   50.00000   50.00000   50.00000   90.00000   90.00000   90.00000
LATT -1
SFAC C  
C      1  0.5214980000000  0.4488620000000  0.5510530000000 1.0
C      1  0.4885890000000  0.5185650000000  0.5714960000000 1.0
C      1  0.4496140000000  0.5348500000000  0.4945760000000 1.0
C      1  0.4734600000000  0.5034460000000  0.4443960000000 1.0
C      1  0.4951940000000  0.4359090000000  0.5435840000000 1.0
C      1  0.4862460000000  0.4853040000000  0.5359400000000 1.0
C      1  0.5487770000000  0.5336310000000  0.5379590000000 1.0
C      1  0.4569030000000  0.4494570000000  0.5113210000000 1.0
C      1  0.4779710000000  0.5675750000000  0.5051870000000 1.0
C      1  0.5390130000000  0.5617170000000  0.4978830000000 1.0
C      1  0.5266740000000  0.5448490000000  0.5568230000000 1.0
C      1  0.5234860000000  0.4714660000000  0.5677370000000 1.0
C      1  0.5343360000000  0.4495240000000  0.5239590000000 1.0
C      1  0.4632060000000  0.4603620000000  0.4289990000000 1.0
C      1  0.4950010000000  0.5481110000000  0.5194610000000 1.0
C      1  0.4635400000000  0.5285430000000  0.5429900000000 1.0
C      1  0.5008190000000  0.4620610000000  0.4388580000000 1.0
C      1  0.4830510000000  0.4806990000000  0.4270690000000 1.0
C      1  0.4979020000000  0.4494630000000  0.4947760000000 1.0
C      1  0.4268550000000  0.5178790000000  0.4563510000000 1.0
C      1  0.4689200000000  0.5542250000000  0.4803090000000 1.0
C      1  0.5087730000000  0.5702430000000  0.4603890000000 1.0
C      1  0.4549070000000  0.5720570000000  0.5217010000000 1.0
C      1  0.4411730000000  0.4725990000000  0.4437250000000 1.0
C      1  0.4496810000000  0.4648410000000  0.5550520000000 1.0
C      1  0.4622470000000  0.5016120000000  0.5267810000000 1.0
C      1  0.4901050000000  0.5296240000000  0.4395020000000 1.0
C      1  0.5842230000000  0.5030440000000  0.5064450000000 1.0
C      1  0.4332250000000  0.4662870000000  0.5101410000000 1.0
C      1  0.5594160000000  0.4967380000000  0.4467600000000 1.0
C      1  0.5202750000000  0.4789890000000  0.4531950000000 1.0
C      1  0.5188020000000  0.5214990000000  0.5741720000000 1.0
C      1  0.5217590000000  0.5269990000000  0.4335820000000 1.0
C      1  0.5550540000000  0.4648670000000  0.5093450000000 1.0
C      1  0.5179750000000  0.5037390000000  0.5224870000000 1.0
C      1  0.5060100000000  0.4933090000000  0.4777850000000 1.0
C      1  0.5324210000000  0.4989620000000  0.4318830000000 1.0
C      1  0.5464630000000  0.4589810000000  0.4818070000000 1.0
C      1  0.4254870000000  0.5320600000000  0.4790940000000 1.0
C      1  0.5306350000000  0.4346200000000  0.4815250000000 1.0
C      1  0.5651860000000  0.4891450000000  0.5217920000000 1.0
C      1  0.4459090000000  0.4688140000000  0.4735140000000 1.0
C      1  0.4996150000000  0.4234970000000  0.5166330000000 1.0
C      1  0.4839170000000  0.4905180000000  0.5658440000000 1.0
C      1  0.4733880000000  0.4563400000000  0.5360130000000 1.0
C      1  0.5133220000000  0.4777300000000  0.5040110000000 1.0
C      1  0.5351510000000  0.4970270000000  0.5658310000000 1.0
C      1  0.4455210000000  0.5450700000000  0.5242170000000 1.0
C      1  0.4627310000000  0.5085290000000  0.4973400000000 1.0
C      1  0.4379830000000  0.4832120000000  0.5333810000000 1.0
C      1  0.5439240000000  0.5041900000000  0.5380000000000 1.0
C      1  0.5094650000000  0.5235840000000  0.4808270000000 1.0
C      1  0.5601440000000  0.5201280000000  0.4654870000000 1.0
C      1  0.5580780000000  0.4698930000000  0.4583370000000 1.0
C      1  0.5164990000000  0.5317730000000  0.5075530000000 1.0
C      1  0.5289840000000  0.4233210000000  0.5089220000000 1.0
C      1  0.4757780000000  0.4930180000000  0.4742940000000 1.0
C      1  0.5412000000000  0.5391320000000  0.4542220000000 1.0
C      1  0.4689460000000  0.4510060000000  0.4845160000000 1.0
C      1  0.5696310000000  0.5229430000000  0.4934080000000 1.0
C      1  0.5577830000000  0.5440530000000  0.5106840000000 1.0
C      1  0.4601820000000  0.4795610000000  0.5765180000000 1.0
C      1  0.4429880000000  0.5027690000000  0.4395140000000 1.0
C      1  0.4936710000000  0.5451190000000  0.4651640000000 1.0
C      1  0.5341610000000  0.5630170000000  0.4694150000000 1.0
C      1  0.4961550000000  0.5490420000000  0.5484590000000 1.0
END
