TITL C-950532-2784-506 3.04082119622128e-07 125000 -395.152518896196 0 0 64 (C1) n - 1
REM
REM in /home/bkarasulu/work/CARBON/AIRSS/Generating-Clusters/EDIP-Nigel-Params/with-SteepDescent/Only-C1/SD-CG/HFTN-CG
REM
REM
REM
REM
REM
REM ./C.cell (11c1c37f851c82e70ff6c80c92926a4b)
REM
REM compiler GCC version 9.2.1 20190827 (Red Hat 9.2.1-1)
REM options -cpp -mtune=generic -march=x86-64 -g -O0 -fpre-include=/usr/include/finclude/math-vector-fortran.h
REM seed -575714571 536046771 1697977375 125507652 -1616931560 -595604992 -1005968265 167933099 -1547861019 -468573677 -242171894 -1039003247 -293651621 1071806703 954428762 1507485303 813734512 691659210 -254035185 668265785 -393520734 214371902 -261402624 -75678228 -2112544348 750088012 713102456 1170118211 1106689165 1289492641 501915797 -1532740945 374965936
REM
CELL 1.54180   50.00000   50.00000   50.00000   90.00000   90.00000   90.00000
LATT -1
SFAC C  
C      1  0.4568080000000  0.5227220000000  0.5508410000000 1.0
C      1  0.4908560000000  0.5627750000000  0.5550350000000 1.0
C      1  0.5519910000000  0.4505170000000  0.5043130000000 1.0
C      1  0.5608560000000  0.5284250000000  0.4432200000000 1.0
C      1  0.5206430000000  0.4364030000000  0.4693500000000 1.0
C      1  0.5139980000000  0.4792650000000  0.4879530000000 1.0
C      1  0.4905490000000  0.4615220000000  0.4335190000000 1.0
C      1  0.5581300000000  0.4916730000000  0.5476510000000 1.0
C      1  0.5712070000000  0.5171040000000  0.5118210000000 1.0
C      1  0.5189540000000  0.4667090000000  0.5584780000000 1.0
C      1  0.5128540000000  0.5253670000000  0.4817160000000 1.0
C      1  0.5030540000000  0.4872680000000  0.5718980000000 1.0
C      1  0.4361380000000  0.5235510000000  0.4773410000000 1.0
C      1  0.4628590000000  0.4467630000000  0.5179290000000 1.0
C      1  0.4717620000000  0.5583690000000  0.4841020000000 1.0
C      1  0.5624440000000  0.5545340000000  0.4819510000000 1.0
C      1  0.5371630000000  0.4743950000000  0.5344610000000 1.0
C      1  0.5731640000000  0.4680020000000  0.5113920000000 1.0
C      1  0.4326270000000  0.5218290000000  0.5082430000000 1.0
C      1  0.5202520000000  0.4922990000000  0.5152820000000 1.0
C      1  0.4864240000000  0.5139590000000  0.5511910000000 1.0
C      1  0.4666610000000  0.5581730000000  0.5130630000000 1.0
C      1  0.5085170000000  0.4430700000000  0.4449450000000 1.0
C      1  0.5462990000000  0.4513000000000  0.4749270000000 1.0
C      1  0.5243420000000  0.5414880000000  0.5217310000000 1.0
C      1  0.4970040000000  0.4896970000000  0.4293730000000 1.0
C      1  0.5105330000000  0.5655760000000  0.5107210000000 1.0
C      1  0.4891780000000  0.4933060000000  0.5242490000000 1.0
C      1  0.4693460000000  0.5329490000000  0.4411940000000 1.0
C      1  0.5725180000000  0.5285540000000  0.4859710000000 1.0
C      1  0.4946930000000  0.5006040000000  0.4780470000000 1.0
C      1  0.4725720000000  0.5066450000000  0.4313560000000 1.0
C      1  0.4485650000000  0.5387790000000  0.5262240000000 1.0
C      1  0.5475800000000  0.5163550000000  0.5556290000000 1.0
C      1  0.4584590000000  0.5395670000000  0.4663470000000 1.0
C      1  0.4283240000000  0.4724410000000  0.5073910000000 1.0
C      1  0.5053740000000  0.4486800000000  0.4925080000000 1.0
C      1  0.5382110000000  0.4795800000000  0.4695860000000 1.0
C      1  0.5211480000000  0.5420820000000  0.4563460000000 1.0
C      1  0.5008950000000  0.5621360000000  0.4820680000000 1.0
C      1  0.5767130000000  0.4922560000000  0.5251830000000 1.0
C      1  0.4730730000000  0.4979110000000  0.4978170000000 1.0
C      1  0.5306660000000  0.5380840000000  0.5499290000000 1.0
C      1  0.5024620000000  0.4487550000000  0.5430440000000 1.0
C      1  0.5180530000000  0.4406330000000  0.5189680000000 1.0
C      1  0.4479690000000  0.4806940000000  0.4865230000000 1.0
C      1  0.5334290000000  0.5197920000000  0.5044910000000 1.0
C      1  0.4413910000000  0.4969710000000  0.5505660000000 1.0
C      1  0.4769310000000  0.4822190000000  0.5796810000000 1.0
C      1  0.4756030000000  0.4418150000000  0.4917450000000 1.0
C      1  0.4500920000000  0.4888690000000  0.4391050000000 1.0
C      1  0.4784280000000  0.4651740000000  0.5356460000000 1.0
C      1  0.4260580000000  0.4966150000000  0.5237590000000 1.0
C      1  0.4346670000000  0.4481320000000  0.5198580000000 1.0
C      1  0.4339190000000  0.4963230000000  0.4647560000000 1.0
C      1  0.5365760000000  0.5151070000000  0.4343180000000 1.0
C      1  0.4875040000000  0.5720570000000  0.5285810000000 1.0
C      1  0.5765140000000  0.5138060000000  0.4622890000000 1.0
C      1  0.4603740000000  0.4742170000000  0.5585290000000 1.0
C      1  0.5034280000000  0.5382650000000  0.5608870000000 1.0
C      1  0.5498310000000  0.5526190000000  0.4565980000000 1.0
C      1  0.4580530000000  0.4560430000000  0.4728250000000 1.0
C      1  0.4626620000000  0.4613730000000  0.4435590000000 1.0
C      1  0.5326490000000  0.4878390000000  0.4419830000000 1.0
END
