TITL C-951342-2639-647 -1.12446899718213e-05 125000 -477.384709624011 0 0 80 (C1) n - 1
REM
REM in /home/bkarasulu/work/CARBON/AIRSS/Generating-Clusters/EDIP-Nigel-Params/with-SteepDescent/Only-C1/SD-CG/HFTN-CG
REM
REM
REM
REM
REM
REM ./C.cell (11c1c37f851c82e70ff6c80c92926a4b)
REM
REM compiler GCC version 9.2.1 20190827 (Red Hat 9.2.1-1)
REM options -cpp -mtune=generic -march=x86-64 -g -O0 -fpre-include=/usr/include/finclude/math-vector-fortran.h
REM seed 384468498 -194144345 -1240272005 -351024980 -65478417 -2109149037 1197277781 -1281299415 1103694687 1331564524 -276928610 1629648182 -2123542666 -2092680956 345610811 2030086641 1979764163 -1028385973 -220653468 -1727192852 1827397298 -1965231290 207038458 -986302204 -22680096 -735421518 1478754000 1776399427 -352730242 -1527342588 -1653283712 -495326035 -1941635086
REM
CELL 1.54180   50.00000   50.00000   50.00000   90.00000   90.00000   90.00000
LATT -1
SFAC C  
C      1  0.4867920000000  0.4779870000000  0.4849130000000 1.0
C      1  0.5820260000000  0.4900800000000  0.5186690000000 1.0
C      1  0.5048660000000  0.5375370000000  0.4170090000000 1.0
C      1  0.4474070000000  0.4470440000000  0.4832250000000 1.0
C      1  0.5052880000000  0.5728700000000  0.4988690000000 1.0
C      1  0.4291140000000  0.5089870000000  0.5316120000000 1.0
C      1  0.4548900000000  0.5112060000000  0.5471090000000 1.0
C      1  0.4664380000000  0.4687070000000  0.5913070000000 1.0
C      1  0.5513380000000  0.4566060000000  0.5461230000000 1.0
C      1  0.4722580000000  0.4902510000000  0.4272530000000 1.0
C      1  0.5156040000000  0.5438960000000  0.4913290000000 1.0
C      1  0.5638290000000  0.4859130000000  0.4679360000000 1.0
C      1  0.5625350000000  0.5039970000000  0.4431240000000 1.0
C      1  0.5562810000000  0.4538190000000  0.5022770000000 1.0
C      1  0.5444880000000  0.4419680000000  0.4767700000000 1.0
C      1  0.4968360000000  0.5266670000000  0.4749790000000 1.0
C      1  0.5800140000000  0.5281950000000  0.5098440000000 1.0
C      1  0.5322970000000  0.5383190000000  0.4241060000000 1.0
C      1  0.4417880000000  0.5528420000000  0.5229140000000 1.0
C      1  0.5050430000000  0.5623290000000  0.5275920000000 1.0
C      1  0.4918380000000  0.4618990000000  0.5113430000000 1.0
C      1  0.4617860000000  0.5533240000000  0.4790240000000 1.0
C      1  0.5100620000000  0.4203410000000  0.5498430000000 1.0
C      1  0.4062110000000  0.5063250000000  0.4774490000000 1.0
C      1  0.4823640000000  0.5385580000000  0.4352500000000 1.0
C      1  0.5014210000000  0.4861870000000  0.4253960000000 1.0
C      1  0.4196150000000  0.5358330000000  0.5200790000000 1.0
C      1  0.5736570000000  0.4725030000000  0.5401190000000 1.0
C      1  0.5513280000000  0.5003570000000  0.5706730000000 1.0
C      1  0.5095000000000  0.4424520000000  0.5649340000000 1.0
C      1  0.5402280000000  0.5705190000000  0.4717720000000 1.0
C      1  0.5266140000000  0.5875580000000  0.4884170000000 1.0
C      1  0.5270370000000  0.4874550000000  0.5758220000000 1.0
C      1  0.4376170000000  0.5205780000000  0.4493830000000 1.0
C      1  0.5613200000000  0.5116790000000  0.5228580000000 1.0
C      1  0.5082450000000  0.5108670000000  0.5359940000000 1.0
C      1  0.5129820000000  0.4784470000000  0.5292700000000 1.0
C      1  0.5158190000000  0.5353310000000  0.5200900000000 1.0
C      1  0.5140220000000  0.4809630000000  0.4671690000000 1.0
C      1  0.4095500000000  0.4844800000000  0.4945570000000 1.0
C      1  0.4638760000000  0.4647940000000  0.4694600000000 1.0
C      1  0.4330260000000  0.4902710000000  0.5088520000000 1.0
C      1  0.4758200000000  0.5308760000000  0.5385000000000 1.0
C      1  0.4520010000000  0.4641210000000  0.5665540000000 1.0
C      1  0.5012570000000  0.4463490000000  0.4541410000000 1.0
C      1  0.4558460000000  0.5173350000000  0.5038550000000 1.0
C      1  0.4566380000000  0.4437250000000  0.5475960000000 1.0
C      1  0.5413250000000  0.4621890000000  0.4306890000000 1.0
C      1  0.5119630000000  0.4172930000000  0.5234270000000 1.0
C      1  0.5223180000000  0.5033980000000  0.4124540000000 1.0
C      1  0.5422290000000  0.4668780000000  0.4606040000000 1.0
C      1  0.4154920000000  0.5030420000000  0.4505730000000 1.0
C      1  0.4470650000000  0.4410600000000  0.5101020000000 1.0
C      1  0.5028360000000  0.5344670000000  0.5731120000000 1.0
C      1  0.5029140000000  0.5045460000000  0.5787820000000 1.0
C      1  0.5524920000000  0.5453520000000  0.4688660000000 1.0
C      1  0.5031680000000  0.4345930000000  0.5034590000000 1.0
C      1  0.5157160000000  0.4331130000000  0.4764570000000 1.0
C      1  0.5412570000000  0.5250930000000  0.4491550000000 1.0
C      1  0.4807830000000  0.5569970000000  0.4574290000000 1.0
C      1  0.5386000000000  0.4746560000000  0.5144920000000 1.0
C      1  0.5489050000000  0.5443610000000  0.5572940000000 1.0
C      1  0.5773240000000  0.4741420000000  0.4930130000000 1.0
C      1  0.4596520000000  0.4702280000000  0.4422230000000 1.0
C      1  0.4624630000000  0.5171470000000  0.4339320000000 1.0
C      1  0.5242420000000  0.4653080000000  0.5556770000000 1.0
C      1  0.5113850000000  0.4587300000000  0.4294500000000 1.0
C      1  0.4661210000000  0.5550350000000  0.5088050000000 1.0
C      1  0.4163610000000  0.5318880000000  0.4895580000000 1.0
C      1  0.5736860000000  0.5391490000000  0.4856760000000 1.0
C      1  0.5162100000000  0.5103540000000  0.4596980000000 1.0
C      1  0.5488500000000  0.4893780000000  0.4198610000000 1.0
C      1  0.4649120000000  0.4578440000000  0.5243200000000 1.0
C      1  0.4806270000000  0.4933180000000  0.5936460000000 1.0
C      1  0.4780740000000  0.5451490000000  0.5643700000000 1.0
C      1  0.4375960000000  0.5398410000000  0.4708500000000 1.0
C      1  0.4807500000000  0.5068240000000  0.4909940000000 1.0
C      1  0.5446730000000  0.5171050000000  0.5480560000000 1.0
C      1  0.5224450000000  0.5519130000000  0.5604590000000 1.0
C      1  0.4687540000000  0.4872590000000  0.5571560000000 1.0
END
