TITL C-950529-3362-90 -3.89007786080288e-06 125000 -140.627562040824 0 0 24 (C1) n - 1
REM
REM in /home/bkarasulu/work/CARBON/AIRSS/Generating-Clusters/EDIP-Nigel-Params/with-SteepDescent/Only-C1/SD-CG/HFTN-CG
REM
REM
REM
REM
REM
REM ./C.cell (11c1c37f851c82e70ff6c80c92926a4b)
REM
REM compiler GCC version 9.2.1 20190827 (Red Hat 9.2.1-1)
REM options -cpp -mtune=generic -march=x86-64 -g -O0 -fpre-include=/usr/include/finclude/math-vector-fortran.h
REM seed 1902128752 1344640339 1188945000 928160887 2081042580 -1208366198 -1072948157 1094570092 62408966 -1411654563 -1049154495 1980711779 1962848801 -314067236 -2077597642 -1358265106 2069929609 -2118161087 -263580311 429751537 -1128061935 -471274755 -1904330300 1348039169 1361072135 1098241773 2025977721 2002666343 228087554 1638311985 -615684244 -1868417991 1157391096
REM
CELL 1.54180   50.00000   50.00000   50.00000   90.00000   90.00000   90.00000
LATT -1
SFAC C  
C      1  0.5115160000000  0.5540550000000  0.4903950000000 1.0
C      1  0.5156460000000  0.5460780000000  0.4626440000000 1.0
C      1  0.4972610000000  0.4594910000000  0.5025440000000 1.0
C      1  0.4808160000000  0.4456180000000  0.5214360000000 1.0
C      1  0.5299460000000  0.4797780000000  0.4712410000000 1.0
C      1  0.4733400000000  0.5497160000000  0.5195620000000 1.0
C      1  0.4861040000000  0.5647490000000  0.4998530000000 1.0
C      1  0.5097210000000  0.4931680000000  0.4573850000000 1.0
C      1  0.4711660000000  0.5221120000000  0.5173930000000 1.0
C      1  0.4557150000000  0.4585560000000  0.5235680000000 1.0
C      1  0.5168730000000  0.5238830000000  0.4951010000000 1.0
C      1  0.4557950000000  0.4815840000000  0.5071150000000 1.0
C      1  0.5251690000000  0.4424910000000  0.5348440000000 1.0
C      1  0.5145070000000  0.5202590000000  0.4526250000000 1.0
C      1  0.4829490000000  0.5910480000000  0.4999490000000 1.0
C      1  0.5430150000000  0.5167660000000  0.5048130000000 1.0
C      1  0.4480620000000  0.5062020000000  0.5187060000000 1.0
C      1  0.4989240000000  0.4362200000000  0.5411310000000 1.0
C      1  0.4827890000000  0.4837700000000  0.4937290000000 1.0
C      1  0.5583050000000  0.4943730000000  0.5054120000000 1.0
C      1  0.5231350000000  0.4618550000000  0.5142370000000 1.0
C      1  0.4934860000000  0.5086910000000  0.5059820000000 1.0
C      1  0.4834350000000  0.4860830000000  0.4646680000000 1.0
C      1  0.5423280000000  0.4734530000000  0.4956640000000 1.0
END
