TITL C-951337-3020-85 -4.39713330901076e-07 125000 -254.419860203713 0 0 43 (C1) n - 1
REM
REM in /home/bkarasulu/work/CARBON/AIRSS/Generating-Clusters/EDIP-Nigel-Params/with-SteepDescent/Only-C1/SD-CG/HFTN-CG
REM
REM
REM
REM
REM
REM ./C.cell (11c1c37f851c82e70ff6c80c92926a4b)
REM
REM compiler GCC version 9.2.1 20190827 (Red Hat 9.2.1-1)
REM options -cpp -mtune=generic -march=x86-64 -g -O0 -fpre-include=/usr/include/finclude/math-vector-fortran.h
REM seed -130665111 1074627393 -2092728919 -591005417 -1000371784 -1327229116 1737234018 1954037156 1038284206 -1911942680 -1000174560 -1356702482 -1125136535 1563839754 1817345413 1138186306 1450935069 -1157059391 -484975269 59596608 -821531130 -1166444647 -1885854293 972957663 1859130142 1878955741 1697107082 -209100679 -781527767 1645519702 1689242287 -711817904 -2048843027
REM
CELL 1.54180   50.00000   50.00000   50.00000   90.00000   90.00000   90.00000
LATT -1
SFAC C  
C      1  0.5221960000000  0.4978000000000  0.5121910000000 1.0
C      1  0.5322450000000  0.5383350000000  0.4465150000000 1.0
C      1  0.5603650000000  0.4912590000000  0.4488090000000 1.0
C      1  0.4374290000000  0.5218710000000  0.5174300000000 1.0
C      1  0.5578690000000  0.5381370000000  0.4566440000000 1.0
C      1  0.5015340000000  0.5113130000000  0.4955280000000 1.0
C      1  0.4681280000000  0.5443470000000  0.5089720000000 1.0
C      1  0.4855530000000  0.4885660000000  0.5721700000000 1.0
C      1  0.4532390000000  0.4543390000000  0.5016880000000 1.0
C      1  0.5722500000000  0.5143880000000  0.4597500000000 1.0
C      1  0.4724690000000  0.4888400000000  0.5240740000000 1.0
C      1  0.5299340000000  0.5286810000000  0.5430750000000 1.0
C      1  0.5623840000000  0.4907010000000  0.4875390000000 1.0
C      1  0.5129000000000  0.5445780000000  0.5272630000000 1.0
C      1  0.5483410000000  0.5095000000000  0.5074660000000 1.0
C      1  0.5062390000000  0.5574140000000  0.4828150000000 1.0
C      1  0.5147350000000  0.4431890000000  0.5465510000000 1.0
C      1  0.4528110000000  0.5031700000000  0.4741660000000 1.0
C      1  0.5168420000000  0.5139690000000  0.4488660000000 1.0
C      1  0.5151400000000  0.5063560000000  0.5545120000000 1.0
C      1  0.4434020000000  0.4929510000000  0.5248030000000 1.0
C      1  0.4970440000000  0.5399620000000  0.5036270000000 1.0
C      1  0.5263740000000  0.4672900000000  0.5094850000000 1.0
C      1  0.4633090000000  0.5202140000000  0.4508210000000 1.0
C      1  0.4534730000000  0.5414820000000  0.5319780000000 1.0
C      1  0.4870510000000  0.4466410000000  0.5477380000000 1.0
C      1  0.4347930000000  0.5247120000000  0.4873240000000 1.0
C      1  0.5316680000000  0.4885900000000  0.4452100000000 1.0
C      1  0.5239060000000  0.4658400000000  0.4632750000000 1.0
C      1  0.4514000000000  0.5415030000000  0.4682660000000 1.0
C      1  0.4790300000000  0.4619430000000  0.5694650000000 1.0
C      1  0.4321850000000  0.4713480000000  0.5102810000000 1.0
C      1  0.4954200000000  0.4601980000000  0.4748380000000 1.0
C      1  0.5233320000000  0.5595680000000  0.4616740000000 1.0
C      1  0.5359110000000  0.4543760000000  0.5337720000000 1.0
C      1  0.4778980000000  0.4579760000000  0.5209980000000 1.0
C      1  0.5010320000000  0.4545000000000  0.5024070000000 1.0
C      1  0.5553890000000  0.5229100000000  0.5312460000000 1.0
C      1  0.4771680000000  0.4945790000000  0.4937160000000 1.0
C      1  0.4897130000000  0.5163970000000  0.4436830000000 1.0
C      1  0.4661140000000  0.4618350000000  0.4761380000000 1.0
C      1  0.5447710000000  0.4652220000000  0.4855710000000 1.0
C      1  0.4870120000000  0.5032090000000  0.5476580000000 1.0
END
