TITL C-951346-9544-598 -1.81710282379282e-06 125000 -537.03612582467 0 0 87 (C1) n - 1
REM
REM in /home/bkarasulu/work/CARBON/AIRSS/Generating-Clusters/EDIP-Nigel-Params/with-SteepDescent/Only-C1/SD-CG/HFTN-CG
REM
REM
REM
REM
REM
REM ./C.cell (11c1c37f851c82e70ff6c80c92926a4b)
REM
REM compiler GCC version 9.2.1 20190827 (Red Hat 9.2.1-1)
REM options -cpp -mtune=generic -march=x86-64 -g -O0 -fpre-include=/usr/include/finclude/math-vector-fortran.h
REM seed -2085123438 1034271819 -790237761 499354265 1327579951 -2075975687 714217962 -2069708931 649303242 331500177 1427909494 -1094112032 -1674990385 -1913601786 1710776507 1546947200 693115407 -1652530451 -1254934562 1312339057 -1377692442 -2036766311 395295636 1558255743 -518420983 -1257737988 783065659 156746984 -491553450 -613748690 -2053514836 -28879951 1004855762
REM
CELL 1.54180   50.00000   50.00000   50.00000   90.00000   90.00000   90.00000
LATT -1
SFAC C  
C      1  0.4914160000000  0.4904650000000  0.5777260000000 1.0
C      1  0.4218290000000  0.4729690000000  0.5160180000000 1.0
C      1  0.4407900000000  0.5182650000000  0.5220710000000 1.0
C      1  0.5193920000000  0.4070240000000  0.5192030000000 1.0
C      1  0.5480740000000  0.5422780000000  0.4682450000000 1.0
C      1  0.4877400000000  0.4622740000000  0.4910930000000 1.0
C      1  0.5807040000000  0.4867740000000  0.5311210000000 1.0
C      1  0.5055100000000  0.4892480000000  0.4043640000000 1.0
C      1  0.4692750000000  0.5817880000000  0.5182160000000 1.0
C      1  0.4611590000000  0.4216860000000  0.4562790000000 1.0
C      1  0.4293370000000  0.4940740000000  0.5362430000000 1.0
C      1  0.4627910000000  0.4668150000000  0.4472400000000 1.0
C      1  0.4714660000000  0.5853390000000  0.4889390000000 1.0
C      1  0.4519130000000  0.4874340000000  0.4316200000000 1.0
C      1  0.4846760000000  0.4317700000000  0.4955700000000 1.0
C      1  0.4970240000000  0.4618170000000  0.5731300000000 1.0
C      1  0.5585970000000  0.5668920000000  0.4813590000000 1.0
C      1  0.5016060000000  0.4423450000000  0.4397640000000 1.0
C      1  0.5705390000000  0.5134870000000  0.5352570000000 1.0
C      1  0.4484300000000  0.4824540000000  0.5551510000000 1.0
C      1  0.4783650000000  0.4440060000000  0.5593070000000 1.0
C      1  0.5169740000000  0.5739930000000  0.4578240000000 1.0
C      1  0.5534590000000  0.5747790000000  0.5184590000000 1.0
C      1  0.5223920000000  0.5307550000000  0.4836660000000 1.0
C      1  0.4682890000000  0.5578950000000  0.4492230000000 1.0
C      1  0.4300600000000  0.4825380000000  0.4883610000000 1.0
C      1  0.4681910000000  0.5084640000000  0.5083270000000 1.0
C      1  0.4877430000000  0.4180270000000  0.5547740000000 1.0
C      1  0.5623810000000  0.4934230000000  0.4484380000000 1.0
C      1  0.5544370000000  0.4524030000000  0.5405330000000 1.0
C      1  0.5231130000000  0.5210250000000  0.5202410000000 1.0
C      1  0.5358510000000  0.5851020000000  0.4790870000000 1.0
C      1  0.4446200000000  0.5534710000000  0.4659660000000 1.0
C      1  0.5446780000000  0.5018240000000  0.4268600000000 1.0
C      1  0.5139930000000  0.5085560000000  0.4668700000000 1.0
C      1  0.4854180000000  0.5007240000000  0.5315510000000 1.0
C      1  0.5293800000000  0.5865780000000  0.5075980000000 1.0
C      1  0.4831320000000  0.5038390000000  0.4732840000000 1.0
C      1  0.5350910000000  0.4356990000000  0.5573740000000 1.0
C      1  0.4693720000000  0.5341980000000  0.4318990000000 1.0
C      1  0.5131290000000  0.4217050000000  0.5430010000000 1.0
C      1  0.4605670000000  0.4818430000000  0.4964310000000 1.0
C      1  0.5231300000000  0.4615230000000  0.4419680000000 1.0
C      1  0.4890440000000  0.5665480000000  0.4707580000000 1.0
C      1  0.4405280000000  0.4303760000000  0.5016480000000 1.0
C      1  0.4396820000000  0.5246010000000  0.4635950000000 1.0
C      1  0.4958690000000  0.5412900000000  0.5171180000000 1.0
C      1  0.4458780000000  0.5707360000000  0.4893480000000 1.0
C      1  0.5269360000000  0.4434310000000  0.5075700000000 1.0
C      1  0.5277710000000  0.4786390000000  0.4185110000000 1.0
C      1  0.4190470000000  0.5271920000000  0.5049160000000 1.0
C      1  0.5540550000000  0.5220880000000  0.5584940000000 1.0
C      1  0.5232650000000  0.4517780000000  0.5785030000000 1.0
C      1  0.5402120000000  0.4990490000000  0.5712710000000 1.0
C      1  0.4365460000000  0.4481830000000  0.5233890000000 1.0
C      1  0.5788280000000  0.4841070000000  0.5026800000000 1.0
C      1  0.5531070000000  0.5221680000000  0.5138640000000 1.0
C      1  0.4848850000000  0.5487010000000  0.5686190000000 1.0
C      1  0.5073420000000  0.4138060000000  0.4945140000000 1.0
C      1  0.5588500000000  0.5033050000000  0.4920740000000 1.0
C      1  0.4961600000000  0.5434670000000  0.4881570000000 1.0
C      1  0.5113600000000  0.5375600000000  0.5725060000000 1.0
C      1  0.5470010000000  0.4692220000000  0.4623190000000 1.0
C      1  0.5137780000000  0.4911750000000  0.5272370000000 1.0
C      1  0.5679220000000  0.4596520000000  0.4906180000000 1.0
C      1  0.4626670000000  0.5298390000000  0.5649230000000 1.0
C      1  0.5048870000000  0.5160930000000  0.4129430000000 1.0
C      1  0.5341310000000  0.5442320000000  0.5552660000000 1.0
C      1  0.5143700000000  0.5093700000000  0.5822090000000 1.0
C      1  0.4489120000000  0.5146130000000  0.4380360000000 1.0
C      1  0.4221990000000  0.5110380000000  0.4821620000000 1.0
C      1  0.4726970000000  0.4403350000000  0.4385580000000 1.0
C      1  0.4551840000000  0.4556730000000  0.5457070000000 1.0
C      1  0.5327750000000  0.5501480000000  0.4427530000000 1.0
C      1  0.5226910000000  0.5205320000000  0.4366860000000 1.0
C      1  0.4492260000000  0.5403030000000  0.5406180000000 1.0
C      1  0.5312610000000  0.4781170000000  0.5514200000000 1.0
C      1  0.5374320000000  0.5696080000000  0.5414180000000 1.0
C      1  0.4752780000000  0.5564440000000  0.5327700000000 1.0
C      1  0.4835190000000  0.5332020000000  0.4079240000000 1.0
C      1  0.4604240000000  0.4202850000000  0.4846200000000 1.0
C      1  0.5150870000000  0.4716370000000  0.5026410000000 1.0
C      1  0.5675640000000  0.5174100000000  0.4669590000000 1.0
C      1  0.4716430000000  0.5013190000000  0.5583500000000 1.0
C      1  0.5556740000000  0.4435250000000  0.5119350000000 1.0
C      1  0.5318880000000  0.4873070000000  0.4817520000000 1.0
C      1  0.4863950000000  0.4743260000000  0.4629890000000 1.0
END
