TITL C-950521-2237-236 1.6319840469836e-07 125000 -633.169877538981 0 0 102 (C1) n - 1
REM
REM in /home/bkarasulu/work/CARBON/AIRSS/Generating-Clusters/EDIP-Nigel-Params/with-SteepDescent/Only-C1/SD-CG/HFTN-CG
REM
REM
REM
REM
REM
REM ./C.cell (11c1c37f851c82e70ff6c80c92926a4b)
REM
REM compiler GCC version 9.2.1 20190827 (Red Hat 9.2.1-1)
REM options -cpp -mtune=generic -march=x86-64 -g -O0 -fpre-include=/usr/include/finclude/math-vector-fortran.h
REM seed 1338525038 -992802362 581786896 760125801 -1688667879 1645453073 1435826413 -485365302 -1990914504 -510706253 1435482011 -618092215 -57959590 1547088745 -1762599345 -413415807 1905229805 919392264 -1498203525 1572928807 2081761440 -233721311 -1067406444 -263910285 -1610734249 -657274179 -1981338753 334976244 1392347157 2118034558 -86346918 1767042740 1326647318
REM
CELL 1.54180   50.00000   50.00000   50.00000   90.00000   90.00000   90.00000
LATT -1
SFAC C  
C      1  0.4133350000000  0.5358930000000  0.4761990000000 1.0
C      1  0.5641290000000  0.4295370000000  0.5012760000000 1.0
C      1  0.4697540000000  0.5301720000000  0.5796880000000 1.0
C      1  0.5563980000000  0.4328860000000  0.4726080000000 1.0
C      1  0.5518870000000  0.4617130000000  0.4620900000000 1.0
C      1  0.4880810000000  0.4803210000000  0.4261300000000 1.0
C      1  0.4349090000000  0.5179630000000  0.5497990000000 1.0
C      1  0.4669410000000  0.4781970000000  0.5209610000000 1.0
C      1  0.4943890000000  0.5104510000000  0.5506730000000 1.0
C      1  0.4607960000000  0.5461770000000  0.4397500000000 1.0
C      1  0.4792150000000  0.5216770000000  0.4533300000000 1.0
C      1  0.4939420000000  0.4915600000000  0.4880670000000 1.0
C      1  0.4338420000000  0.5457570000000  0.5481590000000 1.0
C      1  0.5286350000000  0.5614900000000  0.5474430000000 1.0
C      1  0.4674090000000  0.4565150000000  0.5011600000000 1.0
C      1  0.5515080000000  0.4851460000000  0.5110540000000 1.0
C      1  0.4991870000000  0.5896540000000  0.5067840000000 1.0
C      1  0.4895200000000  0.5865000000000  0.4508500000000 1.0
C      1  0.4099310000000  0.5177000000000  0.4567900000000 1.0
C      1  0.5049880000000  0.5234220000000  0.4115520000000 1.0
C      1  0.4493670000000  0.4263030000000  0.4659610000000 1.0
C      1  0.5728040000000  0.5273530000000  0.4813630000000 1.0
C      1  0.5451730000000  0.5229640000000  0.4391690000000 1.0
C      1  0.5254270000000  0.4460370000000  0.5263650000000 1.0
C      1  0.5469570000000  0.5364790000000  0.5490810000000 1.0
C      1  0.5403000000000  0.4902710000000  0.5675200000000 1.0
C      1  0.4946280000000  0.4848120000000  0.5310920000000 1.0
C      1  0.4188650000000  0.4578130000000  0.5121060000000 1.0
C      1  0.4937120000000  0.4623360000000  0.4894230000000 1.0
C      1  0.5676090000000  0.4824950000000  0.5582540000000 1.0
C      1  0.5057360000000  0.5438210000000  0.5096110000000 1.0
C      1  0.4206970000000  0.4854860000000  0.5058800000000 1.0
C      1  0.5194240000000  0.4505390000000  0.4973870000000 1.0
C      1  0.5527600000000  0.5398780000000  0.5003510000000 1.0
C      1  0.5210400000000  0.5690850000000  0.5179080000000 1.0
C      1  0.5955210000000  0.4801510000000  0.4738030000000 1.0
C      1  0.5365340000000  0.4737740000000  0.4862860000000 1.0
C      1  0.4482060000000  0.4614240000000  0.4795550000000 1.0
C      1  0.4589530000000  0.4112650000000  0.4895080000000 1.0
C      1  0.5056440000000  0.4102500000000  0.4694220000000 1.0
C      1  0.4958250000000  0.5401310000000  0.5832650000000 1.0
C      1  0.5422560000000  0.5185230000000  0.5933520000000 1.0
C      1  0.4656120000000  0.5286260000000  0.4980100000000 1.0
C      1  0.4991460000000  0.5505320000000  0.4809170000000 1.0
C      1  0.4424510000000  0.4889130000000  0.4335270000000 1.0
C      1  0.5163690000000  0.4830500000000  0.4341540000000 1.0
C      1  0.4452710000000  0.5661360000000  0.4589700000000 1.0
C      1  0.5277390000000  0.5068580000000  0.4220970000000 1.0
C      1  0.4344000000000  0.4488990000000  0.5529400000000 1.0
C      1  0.5288650000000  0.4239450000000  0.4854240000000 1.0
C      1  0.5127990000000  0.5168590000000  0.5897170000000 1.0
C      1  0.4706610000000  0.4837170000000  0.5751210000000 1.0
C      1  0.4627960000000  0.4542190000000  0.5674890000000 1.0
C      1  0.5087420000000  0.5778970000000  0.4738570000000 1.0
C      1  0.4651270000000  0.4682640000000  0.4392300000000 1.0
C      1  0.5074790000000  0.5301840000000  0.4611850000000 1.0
C      1  0.5190320000000  0.5054890000000  0.4777420000000 1.0
C      1  0.4550060000000  0.5084530000000  0.5696730000000 1.0
C      1  0.5269060000000  0.5230350000000  0.5022570000000 1.0
C      1  0.5326710000000  0.5491710000000  0.4403860000000 1.0
C      1  0.4452610000000  0.4765170000000  0.5410920000000 1.0
C      1  0.4778790000000  0.4219410000000  0.5341920000000 1.0
C      1  0.4192970000000  0.5027530000000  0.5300200000000 1.0
C      1  0.5448080000000  0.5689450000000  0.4985120000000 1.0
C      1  0.4686160000000  0.5067860000000  0.4800880000000 1.0
C      1  0.4319060000000  0.4368020000000  0.5259760000000 1.0
C      1  0.5038490000000  0.5588720000000  0.5622620000000 1.0
C      1  0.5686640000000  0.4699540000000  0.5302270000000 1.0
C      1  0.5662310000000  0.5352750000000  0.5259720000000 1.0
C      1  0.4592520000000  0.4297780000000  0.5138030000000 1.0
C      1  0.6011760000000  0.4893990000000  0.4994090000000 1.0
C      1  0.4710730000000  0.5808710000000  0.4969520000000 1.0
C      1  0.4393210000000  0.4889830000000  0.4809180000000 1.0
C      1  0.5555200000000  0.4424280000000  0.5268120000000 1.0
C      1  0.4509220000000  0.5146300000000  0.4199260000000 1.0
C      1  0.4545970000000  0.5546390000000  0.5040190000000 1.0
C      1  0.5287600000000  0.5009490000000  0.5213220000000 1.0
C      1  0.4308610000000  0.5563490000000  0.4831500000000 1.0
C      1  0.5067110000000  0.4596620000000  0.5463130000000 1.0
C      1  0.4850610000000  0.4405840000000  0.5534840000000 1.0
C      1  0.5803540000000  0.5071370000000  0.5660230000000 1.0
C      1  0.5333550000000  0.4605930000000  0.4381210000000 1.0
C      1  0.5623080000000  0.5282310000000  0.5741640000000 1.0
C      1  0.4809530000000  0.5092000000000  0.4239230000000 1.0
C      1  0.5600450000000  0.5097500000000  0.4612630000000 1.0
C      1  0.4646230000000  0.5872040000000  0.4679960000000 1.0
C      1  0.4843200000000  0.5646690000000  0.4303560000000 1.0
C      1  0.4688960000000  0.4391650000000  0.4476910000000 1.0
C      1  0.5191010000000  0.4695560000000  0.5719510000000 1.0
C      1  0.5176030000000  0.4384620000000  0.4340780000000 1.0
C      1  0.4963230000000  0.4267900000000  0.4472780000000 1.0
C      1  0.4840660000000  0.4002170000000  0.4840660000000 1.0
C      1  0.5729260000000  0.4831500000000  0.4578280000000 1.0
C      1  0.5381500000000  0.5788210000000  0.4727530000000 1.0
C      1  0.4570220000000  0.5528420000000  0.5339620000000 1.0
C      1  0.4992560000000  0.4887250000000  0.5846570000000 1.0
C      1  0.4854950000000  0.5383780000000  0.5359120000000 1.0
C      1  0.5096740000000  0.5506690000000  0.4220730000000 1.0
C      1  0.5957910000000  0.4710890000000  0.5200350000000 1.0
C      1  0.5898520000000  0.5157240000000  0.5031530000000 1.0
C      1  0.4243060000000  0.4939840000000  0.4560190000000 1.0
C      1  0.5285040000000  0.5113560000000  0.5485290000000 1.0
END
