TITL C-950521-2237-37 -6.51645985642234e-06 125000 -646.364559152712 0 0 103 (C1) n - 1
REM
REM in /home/bkarasulu/work/CARBON/AIRSS/Generating-Clusters/EDIP-Nigel-Params/with-SteepDescent/Only-C1/SD-CG/HFTN-CG
REM
REM
REM
REM
REM
REM ./C.cell (11c1c37f851c82e70ff6c80c92926a4b)
REM
REM compiler GCC version 9.2.1 20190827 (Red Hat 9.2.1-1)
REM options -cpp -mtune=generic -march=x86-64 -g -O0 -fpre-include=/usr/include/finclude/math-vector-fortran.h
REM seed 2126262608 1168562761 585615776 1139616328 -169918816 1125986506 -1884690391 1038431868 1259517414 -605222751 -853284044 -1939804367 2131628235 -1937227641 1461058935 -1715392817 930050675 -1661373125 342366520 1300032626 150666382 -1195316155 312934964 -1701787765 -187871311 752464741 -164301838 1016302365 -1649247886 393308298 1974804200 443174815 1209615571
REM
CELL 1.54180   50.00000   50.00000   50.00000   90.00000   90.00000   90.00000
LATT -1
SFAC C  
C      1  0.5142820000000  0.5168440000000  0.5958720000000 1.0
C      1  0.5846980000000  0.4659460000000  0.4635370000000 1.0
C      1  0.4512660000000  0.4604650000000  0.4488750000000 1.0
C      1  0.4626380000000  0.4630970000000  0.4915780000000 1.0
C      1  0.4862970000000  0.5666590000000  0.5515970000000 1.0
C      1  0.4494380000000  0.5176550000000  0.5787360000000 1.0
C      1  0.4581100000000  0.4852410000000  0.5104600000000 1.0
C      1  0.5093220000000  0.5591480000000  0.5688640000000 1.0
C      1  0.4528500000000  0.4925580000000  0.4135540000000 1.0
C      1  0.4902360000000  0.4635250000000  0.4795930000000 1.0
C      1  0.4547070000000  0.4324560000000  0.4583050000000 1.0
C      1  0.4372520000000  0.4244290000000  0.4794190000000 1.0
C      1  0.5365050000000  0.5343230000000  0.4230710000000 1.0
C      1  0.5067960000000  0.6070960000000  0.5292020000000 1.0
C      1  0.5169570000000  0.4180310000000  0.5303740000000 1.0
C      1  0.4740350000000  0.5756320000000  0.5059590000000 1.0
C      1  0.5069280000000  0.4713370000000  0.5025840000000 1.0
C      1  0.5125540000000  0.5206940000000  0.4336200000000 1.0
C      1  0.4231130000000  0.4731340000000  0.5219370000000 1.0
C      1  0.5225930000000  0.4742050000000  0.5723240000000 1.0
C      1  0.4274230000000  0.4791280000000  0.4527290000000 1.0
C      1  0.4701080000000  0.5197380000000  0.5974720000000 1.0
C      1  0.4332530000000  0.5015450000000  0.4340310000000 1.0
C      1  0.4995120000000  0.4637220000000  0.5298460000000 1.0
C      1  0.5689500000000  0.4820130000000  0.4849360000000 1.0
C      1  0.4725500000000  0.5152710000000  0.4093350000000 1.0
C      1  0.4943670000000  0.4777300000000  0.5795730000000 1.0
C      1  0.5752750000000  0.5040650000000  0.4336320000000 1.0
C      1  0.4645110000000  0.5399880000000  0.4276920000000 1.0
C      1  0.5318520000000  0.5464960000000  0.5520590000000 1.0
C      1  0.4466980000000  0.5349600000000  0.5575890000000 1.0
C      1  0.4896450000000  0.5176240000000  0.5371300000000 1.0
C      1  0.4945570000000  0.4776030000000  0.4312350000000 1.0
C      1  0.5156650000000  0.4995700000000  0.5005790000000 1.0
C      1  0.5509180000000  0.4828410000000  0.5329970000000 1.0
C      1  0.4083710000000  0.5237660000000  0.4671240000000 1.0
C      1  0.5050540000000  0.5399860000000  0.4846310000000 1.0
C      1  0.5812880000000  0.4381110000000  0.4666080000000 1.0
C      1  0.4660190000000  0.5110500000000  0.4948210000000 1.0
C      1  0.4751720000000  0.4557220000000  0.5783010000000 1.0
C      1  0.5209420000000  0.5186730000000  0.5457430000000 1.0
C      1  0.5293730000000  0.5042340000000  0.5728410000000 1.0
C      1  0.4993390000000  0.5028530000000  0.4150790000000 1.0
C      1  0.4493570000000  0.5229860000000  0.4488910000000 1.0
C      1  0.5429280000000  0.4796330000000  0.4700450000000 1.0
C      1  0.5585600000000  0.5105310000000  0.5750380000000 1.0
C      1  0.4595440000000  0.5522600000000  0.5146430000000 1.0
C      1  0.4313310000000  0.4455690000000  0.5237440000000 1.0
C      1  0.4936200000000  0.4872880000000  0.4600940000000 1.0
C      1  0.5184430000000  0.4126510000000  0.5006130000000 1.0
C      1  0.5802690000000  0.5198510000000  0.5335960000000 1.0
C      1  0.4930610000000  0.5656790000000  0.4355120000000 1.0
C      1  0.5472840000000  0.5281020000000  0.4677660000000 1.0
C      1  0.5178810000000  0.5692830000000  0.4520900000000 1.0
C      1  0.4894760000000  0.4111000000000  0.4909620000000 1.0
C      1  0.5554160000000  0.5364620000000  0.4945410000000 1.0
C      1  0.5580280000000  0.5173290000000  0.4158990000000 1.0
C      1  0.5367170000000  0.5067520000000  0.5212470000000 1.0
C      1  0.5283530000000  0.4640820000000  0.5450480000000 1.0
C      1  0.4665580000000  0.4685120000000  0.4251500000000 1.0
C      1  0.4761720000000  0.5841220000000  0.4779010000000 1.0
C      1  0.5762610000000  0.4752970000000  0.4364960000000 1.0
C      1  0.4454410000000  0.4425790000000  0.5485210000000 1.0
C      1  0.5717290000000  0.5149900000000  0.5055490000000 1.0
C      1  0.5533010000000  0.4343670000000  0.4631900000000 1.0
C      1  0.5700340000000  0.5446830000000  0.5443150000000 1.0
C      1  0.4724400000000  0.5096740000000  0.4647550000000 1.0
C      1  0.5060280000000  0.4382190000000  0.4550730000000 1.0
C      1  0.4753760000000  0.4833790000000  0.5369610000000 1.0
C      1  0.5282340000000  0.6022690000000  0.5136230000000 1.0
C      1  0.4158570000000  0.4946630000000  0.5043000000000 1.0
C      1  0.4708750000000  0.5679320000000  0.4539350000000 1.0
C      1  0.5154560000000  0.4552890000000  0.4338050000000 1.0
C      1  0.4906980000000  0.5841530000000  0.5284860000000 1.0
C      1  0.5712440000000  0.4974860000000  0.5511790000000 1.0
C      1  0.5394580000000  0.4315170000000  0.4899090000000 1.0
C      1  0.4503440000000  0.4378110000000  0.5020580000000 1.0
C      1  0.4910850000000  0.4994590000000  0.5994290000000 1.0
C      1  0.5006510000000  0.5419790000000  0.5907720000000 1.0
C      1  0.4930710000000  0.5200620000000  0.5058470000000 1.0
C      1  0.5099980000000  0.5693610000000  0.4811530000000 1.0
C      1  0.4570000000000  0.4680840000000  0.5577870000000 1.0
C      1  0.5396030000000  0.4359330000000  0.5382600000000 1.0
C      1  0.4909640000000  0.4332590000000  0.5339520000000 1.0
C      1  0.4225660000000  0.5203750000000  0.5164780000000 1.0
C      1  0.5531710000000  0.5626600000000  0.5031800000000 1.0
C      1  0.4278440000000  0.5195540000000  0.5445810000000 1.0
C      1  0.4831400000000  0.4233850000000  0.4640270000000 1.0
C      1  0.4441370000000  0.5323260000000  0.4986670000000 1.0
C      1  0.4724900000000  0.4212070000000  0.5129560000000 1.0
C      1  0.5717130000000  0.5156740000000  0.4586670000000 1.0
C      1  0.5250580000000  0.5025440000000  0.4714410000000 1.0
C      1  0.4703230000000  0.5428090000000  0.5413900000000 1.0
C      1  0.5577430000000  0.5404530000000  0.5699790000000 1.0
C      1  0.5329030000000  0.5804360000000  0.4972570000000 1.0
C      1  0.4156660000000  0.4970930000000  0.4746660000000 1.0
C      1  0.5560050000000  0.4395710000000  0.5130190000000 1.0
C      1  0.5438050000000  0.4593830000000  0.4474720000000 1.0
C      1  0.5659130000000  0.4674230000000  0.5119430000000 1.0
C      1  0.4798340000000  0.4308180000000  0.5615710000000 1.0
C      1  0.4937020000000  0.5316130000000  0.4579760000000 1.0
C      1  0.4329190000000  0.5375610000000  0.4702130000000 1.0
C      1  0.5415040000000  0.5513180000000  0.4469340000000 1.0
END
