TITL C-951337-3020-404 1.18413112650209e-07 125000 -1084.97094470562 0 0 175 (C1) n - 1
REM
REM in /home/bkarasulu/work/CARBON/AIRSS/Generating-Clusters/EDIP-Nigel-Params/with-SteepDescent/Only-C1/SD-CG/HFTN-CG
REM
REM
REM
REM
REM
REM ./C.cell (11c1c37f851c82e70ff6c80c92926a4b)
REM
REM compiler GCC version 9.2.1 20190827 (Red Hat 9.2.1-1)
REM options -cpp -mtune=generic -march=x86-64 -g -O0 -fpre-include=/usr/include/finclude/math-vector-fortran.h
REM seed -1447210038 1770794604 948049563 -1870746658 -2084289385 -1337857418 1994109491 -380463332 -1647797641 410144039 -837271639 1827907960 1384100896 -813441786 -2051320856 1902187900 1804468585 -2142262963 -229715542 -14897085 -701429283 2101885228 -235341413 -333699492 -991167069 -1929012262 1097434236 1173244040 221308147 -550278912 1621631130 725499204 1834462202
REM
CELL 1.54180   50.00000   50.00000   50.00000   90.00000   90.00000   90.00000
LATT -1
SFAC C  
C      1  0.5530530000000  0.4645170000000  0.5461950000000 1.0
C      1  0.4832920000000  0.5503840000000  0.4443410000000 1.0
C      1  0.4207630000000  0.4789110000000  0.3969760000000 1.0
C      1  0.4756660000000  0.4477810000000  0.5021240000000 1.0
C      1  0.5386080000000  0.4749940000000  0.4106260000000 1.0
C      1  0.5009310000000  0.4709420000000  0.3790510000000 1.0
C      1  0.4237860000000  0.5630480000000  0.4834070000000 1.0
C      1  0.5337660000000  0.4185470000000  0.4206310000000 1.0
C      1  0.4509200000000  0.5097020000000  0.5352220000000 1.0
C      1  0.4532200000000  0.4360490000000  0.5903170000000 1.0
C      1  0.5061730000000  0.5413260000000  0.4824640000000 1.0
C      1  0.5716960000000  0.5730190000000  0.4444850000000 1.0
C      1  0.4812920000000  0.4220690000000  0.4432980000000 1.0
C      1  0.5029560000000  0.5010520000000  0.3794660000000 1.0
C      1  0.5380310000000  0.5436670000000  0.5182220000000 1.0
C      1  0.4574740000000  0.4173540000000  0.5447010000000 1.0
C      1  0.5149370000000  0.4633280000000  0.4547950000000 1.0
C      1  0.5481680000000  0.5184430000000  0.5813580000000 1.0
C      1  0.5940400000000  0.4509820000000  0.5354390000000 1.0
C      1  0.4983000000000  0.4505300000000  0.5904180000000 1.0
C      1  0.4748170000000  0.4611410000000  0.4138940000000 1.0
C      1  0.5098340000000  0.3998500000000  0.5522320000000 1.0
C      1  0.4431560000000  0.5346190000000  0.4066780000000 1.0
C      1  0.4568140000000  0.4659340000000  0.5894480000000 1.0
C      1  0.5335630000000  0.4734760000000  0.4755840000000 1.0
C      1  0.5786000000000  0.4471720000000  0.4704230000000 1.0
C      1  0.5135490000000  0.3901570000000  0.5237830000000 1.0
C      1  0.4729270000000  0.6040040000000  0.4493140000000 1.0
C      1  0.4098650000000  0.4454990000000  0.5273370000000 1.0
C      1  0.4885170000000  0.4754170000000  0.6183390000000 1.0
C      1  0.5462210000000  0.4151270000000  0.4921680000000 1.0
C      1  0.4357630000000  0.4764030000000  0.5024490000000 1.0
C      1  0.3884970000000  0.5228850000000  0.5085480000000 1.0
C      1  0.5146020000000  0.4328110000000  0.4065700000000 1.0
C      1  0.4356230000000  0.5749640000000  0.5309600000000 1.0
C      1  0.4347160000000  0.5125510000000  0.5965030000000 1.0
C      1  0.5415180000000  0.3980460000000  0.5159640000000 1.0
C      1  0.5433800000000  0.6144590000000  0.4724260000000 1.0
C      1  0.4982980000000  0.5223270000000  0.5401980000000 1.0
C      1  0.4275600000000  0.5253330000000  0.5397020000000 1.0
C      1  0.4793580000000  0.5684110000000  0.5905500000000 1.0
C      1  0.5019680000000  0.5853630000000  0.5032170000000 1.0
C      1  0.4875810000000  0.5528320000000  0.4162520000000 1.0
C      1  0.5576610000000  0.5919950000000  0.5416170000000 1.0
C      1  0.5015190000000  0.4324690000000  0.4996800000000 1.0
C      1  0.4600960000000  0.5583260000000  0.4074220000000 1.0
C      1  0.4163300000000  0.5279250000000  0.5139570000000 1.0
C      1  0.5614650000000  0.4740720000000  0.5165130000000 1.0
C      1  0.5327320000000  0.5504300000000  0.4291060000000 1.0
C      1  0.5232280000000  0.4939960000000  0.4945150000000 1.0
C      1  0.6109490000000  0.5131760000000  0.4900080000000 1.0
C      1  0.4536250000000  0.4708070000000  0.5608420000000 1.0
C      1  0.4910900000000  0.5684350000000  0.5246690000000 1.0
C      1  0.3743190000000  0.4801150000000  0.5298610000000 1.0
C      1  0.4486870000000  0.4529100000000  0.4271780000000 1.0
C      1  0.5948280000000  0.5192930000000  0.4671830000000 1.0
C      1  0.5334280000000  0.5891810000000  0.5557960000000 1.0
C      1  0.5273130000000  0.4146850000000  0.4685490000000 1.0
C      1  0.5790150000000  0.5446550000000  0.5629020000000 1.0
C      1  0.4860000000000  0.5298680000000  0.5041550000000 1.0
C      1  0.5450330000000  0.4711470000000  0.5937440000000 1.0
C      1  0.5383780000000  0.4857430000000  0.5633570000000 1.0
C      1  0.4638490000000  0.5520060000000  0.5068980000000 1.0
C      1  0.5542540000000  0.5219290000000  0.5262230000000 1.0
C      1  0.4589890000000  0.4917680000000  0.5120670000000 1.0
C      1  0.4530040000000  0.5949360000000  0.4663130000000 1.0
C      1  0.5963320000000  0.5030970000000  0.5449820000000 1.0
C      1  0.4328770000000  0.5831090000000  0.5043970000000 1.0
C      1  0.5496500000000  0.5698490000000  0.4819210000000 1.0
C      1  0.5610050000000  0.5140240000000  0.4225240000000 1.0
C      1  0.5418100000000  0.5890120000000  0.4588820000000 1.0
C      1  0.4432800000000  0.5221010000000  0.4425080000000 1.0
C      1  0.4115110000000  0.4612880000000  0.4682780000000 1.0
C      1  0.5277610000000  0.4454330000000  0.5461470000000 1.0
C      1  0.5620550000000  0.5967090000000  0.5142030000000 1.0
C      1  0.5614910000000  0.5521570000000  0.4269350000000 1.0
C      1  0.4848430000000  0.5112980000000  0.4010990000000 1.0
C      1  0.4697530000000  0.5093480000000  0.4900740000000 1.0
C      1  0.5574230000000  0.5175550000000  0.4753370000000 1.0
C      1  0.5042460000000  0.5555160000000  0.5842870000000 1.0
C      1  0.4348070000000  0.5361770000000  0.4921490000000 1.0
C      1  0.4567380000000  0.5146870000000  0.3909270000000 1.0
C      1  0.4790720000000  0.3955010000000  0.4877000000000 1.0
C      1  0.4534030000000  0.5724550000000  0.5525610000000 1.0
C      1  0.5509370000000  0.5450020000000  0.5724190000000 1.0
C      1  0.5639500000000  0.4657530000000  0.4250520000000 1.0
C      1  0.4541610000000  0.4285280000000  0.5142580000000 1.0
C      1  0.5145800000000  0.6099700000000  0.5135340000000 1.0
C      1  0.3908740000000  0.4618060000000  0.4878880000000 1.0
C      1  0.5257780000000  0.5603890000000  0.5627940000000 1.0
C      1  0.5425330000000  0.5072680000000  0.4483170000000 1.0
C      1  0.4931800000000  0.4402420000000  0.4239770000000 1.0
C      1  0.4459750000000  0.4888150000000  0.6079860000000 1.0
C      1  0.4991810000000  0.6077920000000  0.4459840000000 1.0
C      1  0.4589090000000  0.5878730000000  0.4934840000000 1.0
C      1  0.5121290000000  0.6044770000000  0.5431210000000 1.0
C      1  0.3900240000000  0.4943000000000  0.4435850000000 1.0
C      1  0.5518320000000  0.5017900000000  0.5046020000000 1.0
C      1  0.4781790000000  0.4615400000000  0.5468570000000 1.0
C      1  0.6200640000000  0.5336760000000  0.5067600000000 1.0
C      1  0.5225190000000  0.5264480000000  0.4409050000000 1.0
C      1  0.6042010000000  0.5049110000000  0.5718750000000 1.0
C      1  0.5615910000000  0.4458470000000  0.4466600000000 1.0
C      1  0.5215560000000  0.4500030000000  0.5158540000000 1.0
C      1  0.5372600000000  0.5420340000000  0.4885860000000 1.0
C      1  0.4576160000000  0.5002150000000  0.5608960000000 1.0
C      1  0.5038520000000  0.4589940000000  0.5617910000000 1.0
C      1  0.5155920000000  0.4965220000000  0.5421580000000 1.0
C      1  0.5242240000000  0.4563820000000  0.3913420000000 1.0
C      1  0.4514570000000  0.5436990000000  0.5629570000000 1.0
C      1  0.4982100000000  0.5284510000000  0.4564920000000 1.0
C      1  0.5985270000000  0.5435320000000  0.5196910000000 1.0
C      1  0.4811620000000  0.4247290000000  0.5876480000000 1.0
C      1  0.4223370000000  0.4515930000000  0.5531120000000 1.0
C      1  0.4868670000000  0.4897420000000  0.4240380000000 1.0
C      1  0.4872830000000  0.4740350000000  0.4644530000000 1.0
C      1  0.4529600000000  0.4297150000000  0.4451450000000 1.0
C      1  0.5987790000000  0.4792370000000  0.5259400000000 1.0
C      1  0.4963820000000  0.4107230000000  0.4669430000000 1.0
C      1  0.6072320000000  0.4849330000000  0.4977300000000 1.0
C      1  0.4804390000000  0.4714980000000  0.5195140000000 1.0
C      1  0.3994790000000  0.5143140000000  0.4606490000000 1.0
C      1  0.4838750000000  0.4146560000000  0.5593170000000 1.0
C      1  0.5765170000000  0.4512640000000  0.5576130000000 1.0
C      1  0.5140920000000  0.5486890000000  0.5360050000000 1.0
C      1  0.4355210000000  0.4794320000000  0.4738550000000 1.0
C      1  0.5961340000000  0.5297870000000  0.5802740000000 1.0
C      1  0.5421260000000  0.6134810000000  0.5008370000000 1.0
C      1  0.5788850000000  0.5667970000000  0.4731970000000 1.0
C      1  0.4289940000000  0.5128840000000  0.4671230000000 1.0
C      1  0.5262310000000  0.4483110000000  0.6039160000000 1.0
C      1  0.5259220000000  0.5112620000000  0.5969390000000 1.0
C      1  0.5747400000000  0.4266150000000  0.4909790000000 1.0
C      1  0.5126890000000  0.5828970000000  0.4507960000000 1.0
C      1  0.4418500000000  0.4916220000000  0.3864920000000 1.0
C      1  0.5893680000000  0.4934300000000  0.4566000000000 1.0
C      1  0.5100970000000  0.4795630000000  0.5174050000000 1.0
C      1  0.4782980000000  0.5241460000000  0.6054040000000 1.0
C      1  0.3829040000000  0.5220610000000  0.4814830000000 1.0
C      1  0.5289040000000  0.5117690000000  0.3811240000000 1.0
C      1  0.5058990000000  0.5314450000000  0.6004900000000 1.0
C      1  0.5342130000000  0.4332430000000  0.4461280000000 1.0
C      1  0.5152990000000  0.4689300000000  0.6259850000000 1.0
C      1  0.5455070000000  0.4557260000000  0.4979430000000 1.0
C      1  0.4788890000000  0.5246030000000  0.5665400000000 1.0
C      1  0.4926100000000  0.4062580000000  0.5114920000000 1.0
C      1  0.4645800000000  0.4581260000000  0.4748600000000 1.0
C      1  0.4369350000000  0.5718360000000  0.4580800000000 1.0
C      1  0.5552410000000  0.4046420000000  0.5400870000000 1.0
C      1  0.4298410000000  0.4462860000000  0.5053740000000 1.0
C      1  0.5128870000000  0.5670590000000  0.4159750000000 1.0
C      1  0.4393620000000  0.5400840000000  0.5906250000000 1.0
C      1  0.5033580000000  0.5709450000000  0.4777240000000 1.0
C      1  0.4386720000000  0.4295790000000  0.5641970000000 1.0
C      1  0.5181370000000  0.4834640000000  0.4325690000000 1.0
C      1  0.4537200000000  0.5498390000000  0.4449500000000 1.0
C      1  0.3741700000000  0.5066530000000  0.5258590000000 1.0
C      1  0.4709330000000  0.4982330000000  0.6202670000000 1.0
C      1  0.4397660000000  0.4280420000000  0.4722340000000 1.0
C      1  0.4514450000000  0.4069120000000  0.4919050000000 1.0
C      1  0.4782270000000  0.5030920000000  0.4598750000000 1.0
C      1  0.5825330000000  0.5847070000000  0.4969430000000 1.0
C      1  0.4236690000000  0.4666020000000  0.4216150000000 1.0
C      1  0.5885020000000  0.4323120000000  0.5152280000000 1.0
C      1  0.4626720000000  0.5499130000000  0.6053360000000 1.0
C      1  0.5944710000000  0.4715960000000  0.4744950000000 1.0
C      1  0.4749650000000  0.4600010000000  0.3845780000000 1.0
C      1  0.5343220000000  0.4166800000000  0.5553230000000 1.0
C      1  0.5475090000000  0.5008160000000  0.3983000000000 1.0
C      1  0.5346280000000  0.4901390000000  0.6151970000000 1.0
C      1  0.4025600000000  0.4692020000000  0.4415610000000 1.0
C      1  0.5817250000000  0.5284760000000  0.5373800000000 1.0
C      1  0.4799780000000  0.5840240000000  0.5470660000000 1.0
C      1  0.3870960000000  0.4598190000000  0.5156860000000 1.0
C      1  0.5790710000000  0.4906600000000  0.4302350000000 1.0
END
