TITL C-950529-3362-677 9.49571736196144e-07 125000 -620.509761567565 0 0 101 (C1) n - 1
REM
REM in /home/bkarasulu/work/CARBON/AIRSS/Generating-Clusters/EDIP-Nigel-Params/with-SteepDescent/Only-C1/SD-CG/HFTN-CG
REM
REM
REM
REM
REM
REM ./C.cell (11c1c37f851c82e70ff6c80c92926a4b)
REM
REM compiler GCC version 9.2.1 20190827 (Red Hat 9.2.1-1)
REM options -cpp -mtune=generic -march=x86-64 -g -O0 -fpre-include=/usr/include/finclude/math-vector-fortran.h
REM seed -953180655 -1171656575 508583692 1347986103 1386289280 1213323892 770440225 -732609322 1569610082 281024294 129961541 150706723 608737490 -664475439 1349220030 -2034469431 2071654817 1082950370 -999128734 914872673 -1324238654 -548565236 741047472 -835216271 371057286 401451741 -1180075290 1791325438 -624026756 -1231865625 577511071 -959162039 537637991
REM
CELL 1.54180   50.00000   50.00000   50.00000   90.00000   90.00000   90.00000
LATT -1
SFAC C  
C      1  0.4621730000000  0.4165120000000  0.4902150000000 1.0
C      1  0.5519020000000  0.4124650000000  0.4743400000000 1.0
C      1  0.5434350000000  0.5562300000000  0.5268390000000 1.0
C      1  0.5498050000000  0.5189580000000  0.5743760000000 1.0
C      1  0.4866250000000  0.5164500000000  0.4578600000000 1.0
C      1  0.5571440000000  0.5268450000000  0.4562380000000 1.0
C      1  0.4193360000000  0.5128120000000  0.5472730000000 1.0
C      1  0.5025090000000  0.4759460000000  0.4915670000000 1.0
C      1  0.4135190000000  0.4571880000000  0.4898640000000 1.0
C      1  0.4665200000000  0.5270200000000  0.4960080000000 1.0
C      1  0.5085050000000  0.5002960000000  0.5607630000000 1.0
C      1  0.4788540000000  0.5041990000000  0.4320720000000 1.0
C      1  0.4246280000000  0.5034960000000  0.5004020000000 1.0
C      1  0.5286060000000  0.5164440000000  0.5039440000000 1.0
C      1  0.4834910000000  0.4919720000000  0.5743280000000 1.0
C      1  0.5684680000000  0.4627360000000  0.4365480000000 1.0
C      1  0.5344380000000  0.5280550000000  0.5310050000000 1.0
C      1  0.5404680000000  0.4735780000000  0.4043570000000 1.0
C      1  0.5598250000000  0.5568150000000  0.4789130000000 1.0
C      1  0.5187100000000  0.4490950000000  0.5673450000000 1.0
C      1  0.4323390000000  0.4511700000000  0.4698890000000 1.0
C      1  0.5195790000000  0.4379130000000  0.4416020000000 1.0
C      1  0.4832290000000  0.5179070000000  0.5210720000000 1.0
C      1  0.4914390000000  0.4158430000000  0.4853330000000 1.0
C      1  0.4974600000000  0.5671130000000  0.5607180000000 1.0
C      1  0.5543750000000  0.5114010000000  0.5464550000000 1.0
C      1  0.4820620000000  0.4749700000000  0.4439320000000 1.0
C      1  0.4175780000000  0.5222900000000  0.5213770000000 1.0
C      1  0.4410710000000  0.4986670000000  0.4551750000000 1.0
C      1  0.5056110000000  0.5273600000000  0.5459300000000 1.0
C      1  0.4737310000000  0.4258890000000  0.5356140000000 1.0
C      1  0.4660070000000  0.5025570000000  0.4750420000000 1.0
C      1  0.4688310000000  0.5368450000000  0.5523400000000 1.0
C      1  0.5487900000000  0.4151990000000  0.5007980000000 1.0
C      1  0.5293770000000  0.4159160000000  0.5206250000000 1.0
C      1  0.4566820000000  0.4338000000000  0.5135540000000 1.0
C      1  0.5432790000000  0.4363990000000  0.4623310000000 1.0
C      1  0.4303900000000  0.5631280000000  0.4924060000000 1.0
C      1  0.4604080000000  0.4573730000000  0.4340800000000 1.0
C      1  0.4506760000000  0.5147800000000  0.4315440000000 1.0
C      1  0.5307590000000  0.4967610000000  0.5809100000000 1.0
C      1  0.5851280000000  0.5120630000000  0.4947280000000 1.0
C      1  0.4668000000000  0.5769500000000  0.5244940000000 1.0
C      1  0.4712490000000  0.4406960000000  0.5602470000000 1.0
C      1  0.5008500000000  0.5997190000000  0.4846090000000 1.0
C      1  0.5866690000000  0.5351820000000  0.5123360000000 1.0
C      1  0.4577120000000  0.4638890000000  0.5083100000000 1.0
C      1  0.5128390000000  0.4758410000000  0.4076310000000 1.0
C      1  0.4636820000000  0.4928760000000  0.5516180000000 1.0
C      1  0.4754170000000  0.4738550000000  0.4818250000000 1.0
C      1  0.5668300000000  0.5556460000000  0.5071890000000 1.0
C      1  0.5452790000000  0.5181690000000  0.4309280000000 1.0
C      1  0.4769180000000  0.5149950000000  0.5938400000000 1.0
C      1  0.5174780000000  0.5253320000000  0.4270650000000 1.0
C      1  0.5038160000000  0.4043020000000  0.5112030000000 1.0
C      1  0.4345710000000  0.5430190000000  0.4681890000000 1.0
C      1  0.5830470000000  0.4906160000000  0.5148540000000 1.0
C      1  0.5385450000000  0.5746690000000  0.4712760000000 1.0
C      1  0.5479660000000  0.4501850000000  0.4202680000000 1.0
C      1  0.4232800000000  0.5145150000000  0.4729010000000 1.0
C      1  0.4369230000000  0.5436200000000  0.5146560000000 1.0
C      1  0.5445760000000  0.4646510000000  0.5353790000000 1.0
C      1  0.5161340000000  0.5124930000000  0.4631120000000 1.0
C      1  0.5261040000000  0.4404180000000  0.5377190000000 1.0
C      1  0.5502370000000  0.4803370000000  0.4807450000000 1.0
C      1  0.5216030000000  0.4837630000000  0.4717080000000 1.0
C      1  0.5495870000000  0.5656180000000  0.5536030000000 1.0
C      1  0.4907700000000  0.4568020000000  0.5744910000000 1.0
C      1  0.4858300000000  0.4005940000000  0.5332100000000 1.0
C      1  0.4956340000000  0.5744590000000  0.5331100000000 1.0
C      1  0.4949400000000  0.4238990000000  0.4559270000000 1.0
C      1  0.5387450000000  0.5475490000000  0.5730300000000 1.0
C      1  0.5111220000000  0.5529140000000  0.5810850000000 1.0
C      1  0.4567820000000  0.5784660000000  0.4954830000000 1.0
C      1  0.4775960000000  0.5530090000000  0.4349170000000 1.0
C      1  0.4474870000000  0.4263470000000  0.4664690000000 1.0
C      1  0.4547070000000  0.5267820000000  0.5784680000000 1.0
C      1  0.4279870000000  0.4743930000000  0.5072260000000 1.0
C      1  0.4751750000000  0.4699700000000  0.5355610000000 1.0
C      1  0.4510530000000  0.5559620000000  0.5375760000000 1.0
C      1  0.5389870000000  0.4697770000000  0.5735930000000 1.0
C      1  0.4364130000000  0.4689690000000  0.4478030000000 1.0
C      1  0.5084880000000  0.4655250000000  0.4337690000000 1.0
C      1  0.5593670000000  0.5098300000000  0.4803340000000 1.0
C      1  0.5817100000000  0.5077520000000  0.5385380000000 1.0
C      1  0.5134060000000  0.5584380000000  0.4647030000000 1.0
C      1  0.5060160000000  0.4963680000000  0.5122620000000 1.0
C      1  0.4401440000000  0.5052120000000  0.5638930000000 1.0
C      1  0.5561320000000  0.4941770000000  0.4183610000000 1.0
C      1  0.5179110000000  0.5675210000000  0.5131560000000 1.0
C      1  0.5060480000000  0.5501100000000  0.4366850000000 1.0
C      1  0.5582210000000  0.4744030000000  0.5102510000000 1.0
C      1  0.5077800000000  0.5379000000000  0.4902980000000 1.0
C      1  0.4917540000000  0.5779820000000  0.4685060000000 1.0
C      1  0.5628910000000  0.4584130000000  0.4639580000000 1.0
C      1  0.4973480000000  0.5339420000000  0.5964590000000 1.0
C      1  0.5087310000000  0.4801250000000  0.5374720000000 1.0
C      1  0.4514050000000  0.5431460000000  0.4409230000000 1.0
C      1  0.4672260000000  0.4295330000000  0.4446200000000 1.0
C      1  0.5255590000000  0.5895250000000  0.4943160000000 1.0
C      1  0.4707610000000  0.5563950000000  0.4781310000000 1.0
END
