TITL C-951333-8791-117 -2.09384265655547e-06 125000 -1100.61992860913 0 0 176 (C1) n - 1
REM
REM in /home/bkarasulu/work/CARBON/AIRSS/Generating-Clusters/EDIP-Nigel-Params/with-SteepDescent/Only-C1/SD-CG/HFTN-CG
REM
REM
REM
REM
REM
REM ./C.cell (11c1c37f851c82e70ff6c80c92926a4b)
REM
REM compiler GCC version 9.2.1 20190827 (Red Hat 9.2.1-1)
REM options -cpp -mtune=generic -march=x86-64 -g -O0 -fpre-include=/usr/include/finclude/math-vector-fortran.h
REM seed -1177584960 1295615832 279002759 1228667083 -451613369 -375793322 -230152249 648853780 11031200 2092126998 306611270 2055914459 -1132282367 -1442635195 -1078900396 -1003666911 600810205 1952079999 -1242647860 -1618327959 -290802833 -213372383 1940329930 -315436457 1063130126 -1662636104 1832530164 -243328480 422557820 -863376464 -1636366885 1787014833 -783868
REM
CELL 1.54180   50.00000   50.00000   50.00000   90.00000   90.00000   90.00000
LATT -1
SFAC C  
C      1  0.5518480000000  0.4767140000000  0.4766040000000 1.0
C      1  0.5116730000000  0.4723450000000  0.3859240000000 1.0
C      1  0.5173100000000  0.4889170000000  0.4354840000000 1.0
C      1  0.3988910000000  0.4701300000000  0.5363200000000 1.0
C      1  0.5946110000000  0.4956470000000  0.4393690000000 1.0
C      1  0.5626960000000  0.4689380000000  0.4068920000000 1.0
C      1  0.5466450000000  0.5564580000000  0.4268200000000 1.0
C      1  0.4947480000000  0.4151920000000  0.5268790000000 1.0
C      1  0.5022550000000  0.4748710000000  0.4812420000000 1.0
C      1  0.4847580000000  0.4236780000000  0.4019630000000 1.0
C      1  0.5342040000000  0.4881150000000  0.5858850000000 1.0
C      1  0.5384300000000  0.4378350000000  0.5809500000000 1.0
C      1  0.4257790000000  0.4623910000000  0.5490250000000 1.0
C      1  0.5251320000000  0.4439190000000  0.4535100000000 1.0
C      1  0.4497310000000  0.4997590000000  0.5452510000000 1.0
C      1  0.5058330000000  0.4692170000000  0.4152720000000 1.0
C      1  0.5139750000000  0.4304790000000  0.5442820000000 1.0
C      1  0.5594990000000  0.5299930000000  0.4308500000000 1.0
C      1  0.4554900000000  0.4904000000000  0.3988910000000 1.0
C      1  0.4788330000000  0.4949650000000  0.5946870000000 1.0
C      1  0.5933180000000  0.4442530000000  0.5315650000000 1.0
C      1  0.5271330000000  0.5761420000000  0.6183940000000 1.0
C      1  0.5601900000000  0.5054370000000  0.4779930000000 1.0
C      1  0.4405190000000  0.4840550000000  0.5001180000000 1.0
C      1  0.5237450000000  0.4988200000000  0.3873760000000 1.0
C      1  0.5095650000000  0.4589650000000  0.5536480000000 1.0
C      1  0.5191990000000  0.4618710000000  0.5833780000000 1.0
C      1  0.5281170000000  0.5860800000000  0.5696360000000 1.0
C      1  0.5631160000000  0.4144350000000  0.4920000000000 1.0
C      1  0.4047200000000  0.5316730000000  0.4844730000000 1.0
C      1  0.4745350000000  0.6046910000000  0.5660660000000 1.0
C      1  0.4359320000000  0.4859250000000  0.5678640000000 1.0
C      1  0.5250090000000  0.4732540000000  0.4612630000000 1.0
C      1  0.5660650000000  0.5637460000000  0.5671320000000 1.0
C      1  0.4636770000000  0.4227600000000  0.4881150000000 1.0
C      1  0.4924020000000  0.5960140000000  0.4548620000000 1.0
C      1  0.4196610000000  0.4946290000000  0.4282200000000 1.0
C      1  0.5348280000000  0.5686710000000  0.4519410000000 1.0
C      1  0.4707480000000  0.4522510000000  0.6023220000000 1.0
C      1  0.4805990000000  0.6092030000000  0.4796650000000 1.0
C      1  0.5194710000000  0.3996680000000  0.4286910000000 1.0
C      1  0.5698480000000  0.4584580000000  0.4607130000000 1.0
C      1  0.4781580000000  0.5074350000000  0.5417720000000 1.0
C      1  0.6087370000000  0.4925370000000  0.4843000000000 1.0
C      1  0.5778870000000  0.5556150000000  0.4822180000000 1.0
C      1  0.5036140000000  0.6184310000000  0.4973020000000 1.0
C      1  0.5028590000000  0.5745510000000  0.5141640000000 1.0
C      1  0.4782290000000  0.4047090000000  0.4704180000000 1.0
C      1  0.3890680000000  0.5083240000000  0.4878910000000 1.0
C      1  0.5766120000000  0.5173420000000  0.4533100000000 1.0
C      1  0.4746100000000  0.6107640000000  0.5375710000000 1.0
C      1  0.4445270000000  0.4626300000000  0.4000950000000 1.0
C      1  0.4898770000000  0.4856510000000  0.5254510000000 1.0
C      1  0.4961420000000  0.5065250000000  0.4477960000000 1.0
C      1  0.5482420000000  0.5799150000000  0.5498210000000 1.0
C      1  0.4364140000000  0.5842280000000  0.4793770000000 1.0
C      1  0.5005990000000  0.5765480000000  0.5635050000000 1.0
C      1  0.5136500000000  0.3998040000000  0.5072110000000 1.0
C      1  0.4296840000000  0.4316930000000  0.5152870000000 1.0
C      1  0.4431980000000  0.4605280000000  0.5221080000000 1.0
C      1  0.4575920000000  0.4756220000000  0.5876080000000 1.0
C      1  0.4339830000000  0.4217900000000  0.4881060000000 1.0
C      1  0.4987550000000  0.5145720000000  0.3930390000000 1.0
C      1  0.4300610000000  0.5274490000000  0.4672060000000 1.0
C      1  0.4613520000000  0.5903690000000  0.4949440000000 1.0
C      1  0.4546730000000  0.4803950000000  0.4573430000000 1.0
C      1  0.4369290000000  0.5369330000000  0.5817000000000 1.0
C      1  0.4813050000000  0.5378210000000  0.5846970000000 1.0
C      1  0.5275720000000  0.3984740000000  0.4574200000000 1.0
C      1  0.4663800000000  0.5062730000000  0.4947180000000 1.0
C      1  0.4009580000000  0.4605930000000  0.4837030000000 1.0
C      1  0.5118230000000  0.5244800000000  0.4636780000000 1.0
C      1  0.5318830000000  0.4280930000000  0.4080150000000 1.0
C      1  0.5493050000000  0.5583640000000  0.4750290000000 1.0
C      1  0.5212800000000  0.5094980000000  0.5725690000000 1.0
C      1  0.4824900000000  0.4360100000000  0.5087630000000 1.0
C      1  0.5069780000000  0.5222520000000  0.4941660000000 1.0
C      1  0.5093860000000  0.5505380000000  0.4487010000000 1.0
C      1  0.5074060000000  0.4933570000000  0.5033540000000 1.0
C      1  0.5223690000000  0.5967910000000  0.4576340000000 1.0
C      1  0.5298460000000  0.6101990000000  0.4842820000000 1.0
C      1  0.6036620000000  0.4733530000000  0.5079390000000 1.0
C      1  0.5797500000000  0.4479840000000  0.5025540000000 1.0
C      1  0.4687900000000  0.4254470000000  0.5928900000000 1.0
C      1  0.5625480000000  0.5171770000000  0.4066070000000 1.0
C      1  0.4024260000000  0.4994860000000  0.5289590000000 1.0
C      1  0.5541560000000  0.4115420000000  0.4630430000000 1.0
C      1  0.4798440000000  0.5681260000000  0.4972520000000 1.0
C      1  0.5094720000000  0.5740520000000  0.6409220000000 1.0
C      1  0.4583950000000  0.4358340000000  0.4059930000000 1.0
C      1  0.4188760000000  0.5144640000000  0.5732830000000 1.0
C      1  0.4748830000000  0.5517390000000  0.4214850000000 1.0
C      1  0.4554280000000  0.5925390000000  0.5251390000000 1.0
C      1  0.5102900000000  0.4418240000000  0.4245370000000 1.0
C      1  0.4585630000000  0.5279120000000  0.5981400000000 1.0
C      1  0.5959600000000  0.4704060000000  0.5512360000000 1.0
C      1  0.4992320000000  0.5557180000000  0.5378810000000 1.0
C      1  0.5412870000000  0.5770220000000  0.5935120000000 1.0
C      1  0.3941070000000  0.4572920000000  0.5112740000000 1.0
C      1  0.4729950000000  0.4592900000000  0.5263880000000 1.0
C      1  0.4789690000000  0.5481020000000  0.4766730000000 1.0
C      1  0.6071800000000  0.5311080000000  0.5114910000000 1.0
C      1  0.4259660000000  0.4418960000000  0.4408480000000 1.0
C      1  0.5009350000000  0.6045170000000  0.5236290000000 1.0
C      1  0.4564110000000  0.5666280000000  0.5407930000000 1.0
C      1  0.5245860000000  0.5396450000000  0.5363800000000 1.0
C      1  0.5568170000000  0.4507700000000  0.5597390000000 1.0
C      1  0.4036330000000  0.5531900000000  0.5054810000000 1.0
C      1  0.5475550000000  0.5928380000000  0.5030270000000 1.0
C      1  0.5067520000000  0.4019560000000  0.4783340000000 1.0
C      1  0.5434310000000  0.4033720000000  0.5131860000000 1.0
C      1  0.5793080000000  0.5413850000000  0.5084330000000 1.0
C      1  0.5448180000000  0.4947290000000  0.4082780000000 1.0
C      1  0.5617400000000  0.5352030000000  0.5698690000000 1.0
C      1  0.4241800000000  0.4453180000000  0.4714000000000 1.0
C      1  0.5327470000000  0.5664290000000  0.4983630000000 1.0
C      1  0.5306010000000  0.5358680000000  0.5084070000000 1.0
C      1  0.6086490000000  0.5066270000000  0.5263360000000 1.0
C      1  0.4383380000000  0.5721510000000  0.4544040000000 1.0
C      1  0.5976740000000  0.4539810000000  0.4628650000000 1.0
C      1  0.4399650000000  0.5650870000000  0.5663650000000 1.0
C      1  0.6134280000000  0.5224410000000  0.4840610000000 1.0
C      1  0.5630890000000  0.4923480000000  0.5819660000000 1.0
C      1  0.4337090000000  0.4333620000000  0.5593310000000 1.0
C      1  0.5757200000000  0.5176490000000  0.5867630000000 1.0
C      1  0.4715080000000  0.4092830000000  0.4424310000000 1.0
C      1  0.5540210000000  0.5988750000000  0.5298320000000 1.0
C      1  0.4987430000000  0.5411040000000  0.4069660000000 1.0
C      1  0.4221960000000  0.4647910000000  0.4200970000000 1.0
C      1  0.4317670000000  0.5034620000000  0.5220570000000 1.0
C      1  0.4151770000000  0.5469210000000  0.5339450000000 1.0
C      1  0.5418190000000  0.4698290000000  0.5349800000000 1.0
C      1  0.4321320000000  0.5467270000000  0.4446840000000 1.0
C      1  0.4643090000000  0.4299320000000  0.5645270000000 1.0
C      1  0.4042700000000  0.4881880000000  0.4751640000000 1.0
C      1  0.4819090000000  0.5664580000000  0.4486130000000 1.0
C      1  0.4275760000000  0.4971130000000  0.4571250000000 1.0
C      1  0.4350780000000  0.4122810000000  0.5366490000000 1.0
C      1  0.4490550000000  0.4257370000000  0.4313730000000 1.0
C      1  0.4766730000000  0.5317230000000  0.5225500000000 1.0
C      1  0.5520060000000  0.4075750000000  0.5424390000000 1.0
C      1  0.4394530000000  0.5103340000000  0.4122510000000 1.0
C      1  0.5864550000000  0.4797250000000  0.4175000000000 1.0
C      1  0.4851360000000  0.5671620000000  0.5881980000000 1.0
C      1  0.5767040000000  0.4678400000000  0.5735730000000 1.0
C      1  0.5310490000000  0.4367140000000  0.4912160000000 1.0
C      1  0.5866210000000  0.4964740000000  0.5411220000000 1.0
C      1  0.4907440000000  0.4026530000000  0.4215260000000 1.0
C      1  0.4704560000000  0.4066460000000  0.5447820000000 1.0
C      1  0.4470300000000  0.4627850000000  0.4779020000000 1.0
C      1  0.4915940000000  0.5120960000000  0.5714210000000 1.0
C      1  0.5568820000000  0.4401140000000  0.4169350000000 1.0
C      1  0.5541120000000  0.4376770000000  0.4475220000000 1.0
C      1  0.5951040000000  0.5379500000000  0.4653080000000 1.0
C      1  0.5722750000000  0.4289780000000  0.5473410000000 1.0
C      1  0.5238790000000  0.5540370000000  0.4098260000000 1.0
C      1  0.4483180000000  0.5440430000000  0.5255270000000 1.0
C      1  0.6086850000000  0.4795690000000  0.4591130000000 1.0
C      1  0.4550970000000  0.5309220000000  0.4837390000000 1.0
C      1  0.5405650000000  0.5216260000000  0.5538440000000 1.0
C      1  0.4146670000000  0.5764890000000  0.4947140000000 1.0
C      1  0.4499970000000  0.5354890000000  0.4246970000000 1.0
C      1  0.5561110000000  0.4999710000000  0.5342680000000 1.0
C      1  0.5501400000000  0.4591750000000  0.5037810000000 1.0
C      1  0.5573880000000  0.5192810000000  0.5059360000000 1.0
C      1  0.4783870000000  0.4546080000000  0.5547070000000 1.0
C      1  0.4022460000000  0.5220400000000  0.5493200000000 1.0
C      1  0.4764990000000  0.4984950000000  0.3810530000000 1.0
C      1  0.5301290000000  0.4150820000000  0.5623000000000 1.0
C      1  0.4600870000000  0.5836190000000  0.5816350000000 1.0
C      1  0.4971850000000  0.5746210000000  0.6152250000000 1.0
C      1  0.5030550000000  0.4472930000000  0.4916790000000 1.0
C      1  0.4794760000000  0.4922310000000  0.4685060000000 1.0
C      1  0.4137280000000  0.5701520000000  0.5530760000000 1.0
C      1  0.4887330000000  0.4754940000000  0.3690630000000 1.0
C      1  0.4977380000000  0.4627380000000  0.6046950000000 1.0
END
