TITL C-950521-2237-653 -2.61194465001503e-07 125000 -688.266608389393 0 0 112 (C1) n - 1
REM
REM in /home/bkarasulu/work/CARBON/AIRSS/Generating-Clusters/EDIP-Nigel-Params/with-SteepDescent/Only-C1/SD-CG/HFTN-CG
REM
REM
REM
REM
REM
REM ./C.cell (11c1c37f851c82e70ff6c80c92926a4b)
REM
REM compiler GCC version 9.2.1 20190827 (Red Hat 9.2.1-1)
REM options -cpp -mtune=generic -march=x86-64 -g -O0 -fpre-include=/usr/include/finclude/math-vector-fortran.h
REM seed -8451997 1465830179 218366926 1333611068 -213755207 -172064672 -1229755372 950776892 -143930139 1214641582 -1481573608 -873157253 -1499331043 1705517235 -2113609658 -1159495110 338178700 693429809 -520460489 -1050966690 -1490526833 2082053565 -197258043 -1715832065 1318436977 -202462966 1996660669 401736354 -49580487 138911261 801463713 154801072 1377630538
REM
CELL 1.54180   50.00000   50.00000   50.00000   90.00000   90.00000   90.00000
LATT -1
SFAC C  
C      1  0.4456620000000  0.4665980000000  0.5669440000000 1.0
C      1  0.4907390000000  0.5193510000000  0.4955280000000 1.0
C      1  0.5194880000000  0.5742040000000  0.5382650000000 1.0
C      1  0.4263760000000  0.5425210000000  0.4499590000000 1.0
C      1  0.5526950000000  0.5567560000000  0.5571200000000 1.0
C      1  0.4580130000000  0.4167690000000  0.4849180000000 1.0
C      1  0.4762670000000  0.5448450000000  0.5675720000000 1.0
C      1  0.5683080000000  0.4319870000000  0.4737050000000 1.0
C      1  0.4229170000000  0.4524900000000  0.4560970000000 1.0
C      1  0.5510090000000  0.5885470000000  0.4716680000000 1.0
C      1  0.4639510000000  0.4226240000000  0.5115820000000 1.0
C      1  0.5186630000000  0.5302440000000  0.4496850000000 1.0
C      1  0.5018710000000  0.5941640000000  0.5239690000000 1.0
C      1  0.4613220000000  0.4884140000000  0.4124420000000 1.0
C      1  0.5853180000000  0.5357920000000  0.5088840000000 1.0
C      1  0.5756960000000  0.4707750000000  0.5466540000000 1.0
C      1  0.4607440000000  0.4478610000000  0.5533790000000 1.0
C      1  0.5303420000000  0.4419370000000  0.5857150000000 1.0
C      1  0.4883800000000  0.4507110000000  0.4866390000000 1.0
C      1  0.4381580000000  0.5107390000000  0.5529600000000 1.0
C      1  0.5329660000000  0.5063000000000  0.4942900000000 1.0
C      1  0.5413040000000  0.5161940000000  0.5208130000000 1.0
C      1  0.5191360000000  0.5199270000000  0.5419280000000 1.0
C      1  0.4269540000000  0.4572930000000  0.5195210000000 1.0
C      1  0.5605230000000  0.4820980000000  0.5683970000000 1.0
C      1  0.4183830000000  0.4909050000000  0.4850540000000 1.0
C      1  0.5913360000000  0.4950290000000  0.4808610000000 1.0
C      1  0.4767150000000  0.4647080000000  0.5158920000000 1.0
C      1  0.5702920000000  0.5322770000000  0.5553020000000 1.0
C      1  0.4090030000000  0.5042830000000  0.5108280000000 1.0
C      1  0.5286640000000  0.5191520000000  0.5729810000000 1.0
C      1  0.5443480000000  0.5969380000000  0.5012440000000 1.0
C      1  0.4940420000000  0.4829600000000  0.5907380000000 1.0
C      1  0.4620990000000  0.4876760000000  0.4682220000000 1.0
C      1  0.5295570000000  0.5914230000000  0.4533080000000 1.0
C      1  0.5066390000000  0.5546910000000  0.4613550000000 1.0
C      1  0.5558120000000  0.5776010000000  0.5252090000000 1.0
C      1  0.4466840000000  0.4375530000000  0.5300090000000 1.0
C      1  0.4889040000000  0.4981820000000  0.4706570000000 1.0
C      1  0.5053510000000  0.5467340000000  0.5343490000000 1.0
C      1  0.4880600000000  0.4139490000000  0.5223890000000 1.0
C      1  0.5476900000000  0.4676290000000  0.4497520000000 1.0
C      1  0.5864370000000  0.4682790000000  0.4779740000000 1.0
C      1  0.5198150000000  0.5053420000000  0.4017530000000 1.0
C      1  0.4872420000000  0.4478660000000  0.4145490000000 1.0
C      1  0.4713450000000  0.5399410000000  0.4210170000000 1.0
C      1  0.4643550000000  0.4237530000000  0.4588920000000 1.0
C      1  0.5283950000000  0.5502860000000  0.5745150000000 1.0
C      1  0.4883990000000  0.4555340000000  0.5905220000000 1.0
C      1  0.4956830000000  0.5116850000000  0.4443160000000 1.0
C      1  0.4798990000000  0.5005640000000  0.5721200000000 1.0
C      1  0.5154330000000  0.5918850000000  0.4978020000000 1.0
C      1  0.4480170000000  0.4427110000000  0.4427270000000 1.0
C      1  0.4761730000000  0.5124770000000  0.5206950000000 1.0
C      1  0.5436920000000  0.5020020000000  0.4158210000000 1.0
C      1  0.4498180000000  0.5568780000000  0.4900250000000 1.0
C      1  0.4742410000000  0.5872250000000  0.5220120000000 1.0
C      1  0.4107950000000  0.5207720000000  0.4480500000000 1.0
C      1  0.4827000000000  0.4377740000000  0.5699240000000 1.0
C      1  0.5514610000000  0.4956740000000  0.4422360000000 1.0
C      1  0.4973460000000  0.5481480000000  0.5045990000000 1.0
C      1  0.5190090000000  0.5622110000000  0.4885140000000 1.0
C      1  0.4389060000000  0.5562400000000  0.5354990000000 1.0
C      1  0.5576660000000  0.5118820000000  0.5724580000000 1.0
C      1  0.5459300000000  0.4387290000000  0.5181410000000 1.0
C      1  0.4906600000000  0.5418640000000  0.4012220000000 1.0
C      1  0.4264980000000  0.4604760000000  0.4882190000000 1.0
C      1  0.5292240000000  0.4166220000000  0.5748110000000 1.0
C      1  0.5366060000000  0.4688770000000  0.5775680000000 1.0
C      1  0.4567720000000  0.4921500000000  0.5122770000000 1.0
C      1  0.4454250000000  0.5024350000000  0.4854090000000 1.0
C      1  0.4611330000000  0.5135420000000  0.4272270000000 1.0
C      1  0.5568720000000  0.5598590000000  0.4806330000000 1.0
C      1  0.5213370000000  0.4909420000000  0.5874950000000 1.0
C      1  0.5128590000000  0.5301950000000  0.3917310000000 1.0
C      1  0.5036360000000  0.4759130000000  0.5246220000000 1.0
C      1  0.5608680000000  0.4584510000000  0.4749190000000 1.0
C      1  0.5154760000000  0.4150400000000  0.5193810000000 1.0
C      1  0.5217930000000  0.4791960000000  0.4992910000000 1.0
C      1  0.5060660000000  0.4236860000000  0.5614040000000 1.0
C      1  0.4625790000000  0.4596100000000  0.4217090000000 1.0
C      1  0.5053920000000  0.4725870000000  0.4751020000000 1.0
C      1  0.5007100000000  0.5629970000000  0.5701130000000 1.0
C      1  0.5445870000000  0.4612460000000  0.4994490000000 1.0
C      1  0.5193040000000  0.4595470000000  0.4496640000000 1.0
C      1  0.5516870000000  0.4143920000000  0.4885340000000 1.0
C      1  0.4954450000000  0.5006510000000  0.5401990000000 1.0
C      1  0.4301630000000  0.4908580000000  0.5293740000000 1.0
C      1  0.5708110000000  0.5184930000000  0.5284810000000 1.0
C      1  0.5873050000000  0.5229660000000  0.4819080000000 1.0
C      1  0.5062780000000  0.4659170000000  0.4242030000000 1.0
C      1  0.5224010000000  0.4120630000000  0.4921230000000 1.0
C      1  0.4513660000000  0.4932600000000  0.5711590000000 1.0
C      1  0.4586040000000  0.4607050000000  0.4810040000000 1.0
C      1  0.5652350000000  0.5352630000000  0.4659100000000 1.0
C      1  0.4087100000000  0.4729560000000  0.4428750000000 1.0
C      1  0.4531540000000  0.5367780000000  0.5496850000000 1.0
C      1  0.4822190000000  0.5255280000000  0.5858580000000 1.0
C      1  0.5170980000000  0.4309660000000  0.4511120000000 1.0
C      1  0.4052540000000  0.4958020000000  0.4586400000000 1.0
C      1  0.5661690000000  0.4457470000000  0.5372810000000 1.0
C      1  0.4726380000000  0.5591940000000  0.4434950000000 1.0
C      1  0.5422470000000  0.5162280000000  0.4630750000000 1.0
C      1  0.4284270000000  0.5535250000000  0.5098580000000 1.0
C      1  0.4482510000000  0.5557520000000  0.4608550000000 1.0
C      1  0.5005400000000  0.4234310000000  0.4729690000000 1.0
C      1  0.5834370000000  0.4921390000000  0.5302440000000 1.0
C      1  0.5064020000000  0.5784510000000  0.4443020000000 1.0
C      1  0.4104200000000  0.5321860000000  0.5082170000000 1.0
C      1  0.4985200000000  0.4934180000000  0.4186350000000 1.0
C      1  0.5717690000000  0.5617740000000  0.5054010000000 1.0
C      1  0.4745150000000  0.5676330000000  0.5014120000000 1.0
END
