TITL C-950530-3293-9 1.97555412758546e-07 125000 -702.618177845198 0 0 113 (C1) n - 1
REM
REM in /home/bkarasulu/work/CARBON/AIRSS/Generating-Clusters/EDIP-Nigel-Params/with-SteepDescent/Only-C1/SD-CG/HFTN-CG
REM
REM
REM
REM
REM
REM ./C.cell (11c1c37f851c82e70ff6c80c92926a4b)
REM
REM compiler GCC version 9.2.1 20190827 (Red Hat 9.2.1-1)
REM options -cpp -mtune=generic -march=x86-64 -g -O0 -fpre-include=/usr/include/finclude/math-vector-fortran.h
REM seed 1691634154 -974225940 272733691 -1455251288 -967848261 1755589284 -951259157 -2005095009 -170304271 1858284230 -968563217 -2022143245 -1827718828 609915741 -757871362 -1221458211 1055775914 343786859 -2077151566 -333089504 -525824301 1242310856 -1611443504 -1515378800 591923587 1170621692 727773603 673186998 -1692299617 17885379 -1779620441 -111047059 -1892222096
REM
CELL 1.54180   50.00000   50.00000   50.00000   90.00000   90.00000   90.00000
LATT -1
SFAC C  
C      1  0.4744490000000  0.5407500000000  0.4110740000000 1.0
C      1  0.4285660000000  0.5188280000000  0.4987610000000 1.0
C      1  0.5363300000000  0.5346080000000  0.4324490000000 1.0
C      1  0.5015790000000  0.4232480000000  0.5039580000000 1.0
C      1  0.5452140000000  0.5525230000000  0.5686490000000 1.0
C      1  0.4284780000000  0.4966680000000  0.5457870000000 1.0
C      1  0.4808830000000  0.5321270000000  0.5392220000000 1.0
C      1  0.5763830000000  0.5497240000000  0.5004780000000 1.0
C      1  0.5204350000000  0.5181910000000  0.5927750000000 1.0
C      1  0.4996240000000  0.4575520000000  0.4759820000000 1.0
C      1  0.5324370000000  0.4590910000000  0.5630060000000 1.0
C      1  0.4634220000000  0.5953050000000  0.4547820000000 1.0
C      1  0.5759330000000  0.4614690000000  0.5446100000000 1.0
C      1  0.5634800000000  0.4805680000000  0.4369330000000 1.0
C      1  0.5254870000000  0.4389060000000  0.5120860000000 1.0
C      1  0.5038030000000  0.5793040000000  0.5529830000000 1.0
C      1  0.5002390000000  0.4927700000000  0.4409900000000 1.0
C      1  0.5446470000000  0.4631150000000  0.4511060000000 1.0
C      1  0.4650300000000  0.5266820000000  0.4627250000000 1.0
C      1  0.4723230000000  0.4798670000000  0.4431030000000 1.0
C      1  0.5143150000000  0.5803330000000  0.5241790000000 1.0
C      1  0.4673670000000  0.5867040000000  0.4816890000000 1.0
C      1  0.4412280000000  0.4396420000000  0.4974590000000 1.0
C      1  0.5472300000000  0.4315570000000  0.4930990000000 1.0
C      1  0.4354930000000  0.4684750000000  0.5395300000000 1.0
C      1  0.4952700000000  0.4274200000000  0.4524060000000 1.0
C      1  0.5368130000000  0.4111220000000  0.4730320000000 1.0
C      1  0.4681130000000  0.4364050000000  0.5107740000000 1.0
C      1  0.4320070000000  0.5445370000000  0.5389260000000 1.0
C      1  0.4417450000000  0.5093740000000  0.5681660000000 1.0
C      1  0.5824470000000  0.4581460000000  0.4965730000000 1.0
C      1  0.4436100000000  0.5075520000000  0.4194370000000 1.0
C      1  0.4512040000000  0.5374800000000  0.4896630000000 1.0
C      1  0.4500650000000  0.5727650000000  0.4437560000000 1.0
C      1  0.5298480000000  0.4686080000000  0.5901060000000 1.0
C      1  0.5677970000000  0.4341030000000  0.5383610000000 1.0
C      1  0.4928690000000  0.5024230000000  0.5011690000000 1.0
C      1  0.4966820000000  0.5826040000000  0.4893450000000 1.0
C      1  0.5405470000000  0.4882530000000  0.5110430000000 1.0
C      1  0.5376290000000  0.4388370000000  0.4340800000000 1.0
C      1  0.5203030000000  0.4673170000000  0.5212230000000 1.0
C      1  0.5001440000000  0.5575310000000  0.5064800000000 1.0
C      1  0.5409180000000  0.5315590000000  0.5188150000000 1.0
C      1  0.5767840000000  0.5223360000000  0.4953830000000 1.0
C      1  0.5027200000000  0.5434530000000  0.4012660000000 1.0
C      1  0.5192590000000  0.4790100000000  0.4616530000000 1.0
C      1  0.4220240000000  0.4935760000000  0.4871130000000 1.0
C      1  0.4459370000000  0.4483330000000  0.4694180000000 1.0
C      1  0.5159490000000  0.5163420000000  0.3958660000000 1.0
C      1  0.5073730000000  0.4139660000000  0.4753450000000 1.0
C      1  0.4952010000000  0.4847180000000  0.5456490000000 1.0
C      1  0.5087880000000  0.4377700000000  0.4285350000000 1.0
C      1  0.5598220000000  0.5146750000000  0.4719480000000 1.0
C      1  0.5565570000000  0.5566630000000  0.5422900000000 1.0
C      1  0.4731280000000  0.5493700000000  0.5160790000000 1.0
C      1  0.5103620000000  0.4896180000000  0.5939960000000 1.0
C      1  0.4885470000000  0.4217110000000  0.5745540000000 1.0
C      1  0.4740600000000  0.5773660000000  0.5548360000000 1.0
C      1  0.4996620000000  0.5645790000000  0.4439510000000 1.0
C      1  0.5418960000000  0.5167270000000  0.4101520000000 1.0
C      1  0.4619720000000  0.5753090000000  0.5270970000000 1.0
C      1  0.5086680000000  0.4146850000000  0.5553140000000 1.0
C      1  0.5818340000000  0.4765790000000  0.5200400000000 1.0
C      1  0.4692160000000  0.4638560000000  0.4182570000000 1.0
C      1  0.4715250000000  0.5514250000000  0.4404320000000 1.0
C      1  0.4243470000000  0.4582640000000  0.5140280000000 1.0
C      1  0.5456380000000  0.4149760000000  0.4466520000000 1.0
C      1  0.4681220000000  0.5127480000000  0.4068210000000 1.0
C      1  0.4966450000000  0.4722680000000  0.5030260000000 1.0
C      1  0.5735930000000  0.4293050000000  0.5096950000000 1.0
C      1  0.5443760000000  0.5752010000000  0.5230630000000 1.0
C      1  0.4507380000000  0.5013250000000  0.4464650000000 1.0
C      1  0.4716270000000  0.4622860000000  0.4659590000000 1.0
C      1  0.4058560000000  0.4751680000000  0.5007190000000 1.0
C      1  0.4276120000000  0.4876430000000  0.4598930000000 1.0
C      1  0.4335210000000  0.5699940000000  0.5244890000000 1.0
C      1  0.5180090000000  0.5549270000000  0.4237300000000 1.0
C      1  0.4224960000000  0.5197280000000  0.5270460000000 1.0
C      1  0.5555970000000  0.5681840000000  0.4966590000000 1.0
C      1  0.4433820000000  0.5674770000000  0.4872000000000 1.0
C      1  0.4875470000000  0.5155630000000  0.4767890000000 1.0
C      1  0.4663430000000  0.4282160000000  0.5582200000000 1.0
C      1  0.5747130000000  0.5049880000000  0.5181310000000 1.0
C      1  0.4964580000000  0.4590360000000  0.4121310000000 1.0
C      1  0.4507710000000  0.4533620000000  0.5606090000000 1.0
C      1  0.5144030000000  0.5751140000000  0.4669170000000 1.0
C      1  0.4450160000000  0.5378480000000  0.5641400000000 1.0
C      1  0.4288370000000  0.5668950000000  0.4617940000000 1.0
C      1  0.4876300000000  0.4850600000000  0.5752750000000 1.0
C      1  0.4754870000000  0.4625070000000  0.5211320000000 1.0
C      1  0.5587550000000  0.4755790000000  0.5651630000000 1.0
C      1  0.5212000000000  0.5359960000000  0.4947410000000 1.0
C      1  0.5752650000000  0.4979190000000  0.4546260000000 1.0
C      1  0.4699040000000  0.5520000000000  0.5706290000000 1.0
C      1  0.5324310000000  0.5067050000000  0.5369080000000 1.0
C      1  0.5330950000000  0.5007410000000  0.4831310000000 1.0
C      1  0.4243920000000  0.4600520000000  0.4549170000000 1.0
C      1  0.5543660000000  0.4921910000000  0.4138190000000 1.0
C      1  0.5543400000000  0.5045420000000  0.5574660000000 1.0
C      1  0.4556020000000  0.4663680000000  0.5856860000000 1.0
C      1  0.5477090000000  0.5240170000000  0.5797430000000 1.0
C      1  0.5109230000000  0.5351660000000  0.5432830000000 1.0
C      1  0.4816770000000  0.5054690000000  0.5285270000000 1.0
C      1  0.4680480000000  0.4154280000000  0.5321640000000 1.0
C      1  0.5342980000000  0.4310860000000  0.5543900000000 1.0
C      1  0.5014600000000  0.5408780000000  0.5888020000000 1.0
C      1  0.5362620000000  0.5561810000000  0.4769530000000 1.0
C      1  0.5571730000000  0.4558700000000  0.4782040000000 1.0
C      1  0.4954360000000  0.4973380000000  0.4091890000000 1.0
C      1  0.5507490000000  0.5390780000000  0.4569890000000 1.0
C      1  0.4959660000000  0.4047460000000  0.5292760000000 1.0
C      1  0.5155440000000  0.5541430000000  0.5655790000000 1.0
C      1  0.4529720000000  0.4943130000000  0.5892870000000 1.0
END
