TITL C-951347-9520-751 -1.2540198280245e-07 125000 -1024.51128318591 0 0 163 (C1) n - 1
REM
REM in /home/bkarasulu/work/CARBON/AIRSS/Generating-Clusters/EDIP-Nigel-Params/with-SteepDescent/Only-C1/SD-CG/HFTN-CG
REM
REM
REM
REM
REM
REM ./C.cell (11c1c37f851c82e70ff6c80c92926a4b)
REM
REM compiler GCC version 9.2.1 20190827 (Red Hat 9.2.1-1)
REM options -cpp -mtune=generic -march=x86-64 -g -O0 -fpre-include=/usr/include/finclude/math-vector-fortran.h
REM seed -1221694864 683391134 1697217332 675483635 -833755354 823792219 706029151 -1238990959 1776036043 -1344736655 -493508119 158228652 1038671348 -1654070445 -637994287 560503239 1554147145 -1685215073 -513764941 646588047 1114918729 -1837683594 983972382 1886028216 1405279826 -759762929 -1947828279 -777838337 -570650783 -1696716258 -1277392273 2023824486 194639544
REM
CELL 1.54180   50.00000   50.00000   50.00000   90.00000   90.00000   90.00000
LATT -1
SFAC C  
C      1  0.5259570000000  0.4639510000000  0.5843660000000 1.0
C      1  0.4473940000000  0.4905270000000  0.4753770000000 1.0
C      1  0.4654180000000  0.5706420000000  0.5622800000000 1.0
C      1  0.4375910000000  0.4868480000000  0.5221080000000 1.0
C      1  0.5639280000000  0.5536500000000  0.4796170000000 1.0
C      1  0.3988720000000  0.4802250000000  0.4925610000000 1.0
C      1  0.4660080000000  0.5977360000000  0.4600060000000 1.0
C      1  0.5033570000000  0.4211950000000  0.4386790000000 1.0
C      1  0.5730620000000  0.4793060000000  0.5671040000000 1.0
C      1  0.5492500000000  0.5248400000000  0.5867950000000 1.0
C      1  0.4514100000000  0.5731060000000  0.4548200000000 1.0
C      1  0.5272090000000  0.4263680000000  0.5457170000000 1.0
C      1  0.5373160000000  0.5253960000000  0.5309290000000 1.0
C      1  0.5718210000000  0.5554560000000  0.5562730000000 1.0
C      1  0.5404060000000  0.4879960000000  0.4592390000000 1.0
C      1  0.4869000000000  0.4412810000000  0.4539340000000 1.0
C      1  0.4786800000000  0.4437310000000  0.5877600000000 1.0
C      1  0.4239030000000  0.5640270000000  0.5001220000000 1.0
C      1  0.4363100000000  0.4165490000000  0.5749070000000 1.0
C      1  0.5666750000000  0.5999300000000  0.4970390000000 1.0
C      1  0.5146030000000  0.4877260000000  0.5135990000000 1.0
C      1  0.5630520000000  0.5257370000000  0.4622570000000 1.0
C      1  0.5666660000000  0.4950590000000  0.4713360000000 1.0
C      1  0.5322260000000  0.4988750000000  0.3990730000000 1.0
C      1  0.4280720000000  0.5324330000000  0.4637550000000 1.0
C      1  0.4661910000000  0.4075550000000  0.4770370000000 1.0
C      1  0.4631350000000  0.6054950000000  0.4864730000000 1.0
C      1  0.5527290000000  0.4410300000000  0.5509390000000 1.0
C      1  0.5925890000000  0.4832480000000  0.4555540000000 1.0
C      1  0.5755380000000  0.4971270000000  0.4232820000000 1.0
C      1  0.4768460000000  0.5189570000000  0.4421870000000 1.0
C      1  0.4695350000000  0.5311990000000  0.4878950000000 1.0
C      1  0.4792180000000  0.4861870000000  0.4772440000000 1.0
C      1  0.4484950000000  0.5595160000000  0.4285730000000 1.0
C      1  0.5712270000000  0.5793170000000  0.5397080000000 1.0
C      1  0.4493660000000  0.5565360000000  0.5434640000000 1.0
C      1  0.5028470000000  0.5021170000000  0.4317220000000 1.0
C      1  0.4211350000000  0.5196660000000  0.5614210000000 1.0
C      1  0.5561280000000  0.4562840000000  0.5811910000000 1.0
C      1  0.4807970000000  0.5149940000000  0.6080070000000 1.0
C      1  0.4665040000000  0.5234470000000  0.5827460000000 1.0
C      1  0.5634130000000  0.5077480000000  0.5678770000000 1.0
C      1  0.4977850000000  0.4464990000000  0.4815420000000 1.0
C      1  0.4798220000000  0.4279910000000  0.5619410000000 1.0
C      1  0.5792060000000  0.4346810000000  0.4821580000000 1.0
C      1  0.5287120000000  0.6014250000000  0.5369720000000 1.0
C      1  0.5051370000000  0.5318480000000  0.6078760000000 1.0
C      1  0.5100850000000  0.4389870000000  0.5916950000000 1.0
C      1  0.4726000000000  0.4727280000000  0.5841970000000 1.0
C      1  0.4994390000000  0.5562370000000  0.5920320000000 1.0
C      1  0.5930950000000  0.4531400000000  0.5247110000000 1.0
C      1  0.4825690000000  0.5293470000000  0.5138950000000 1.0
C      1  0.4973780000000  0.4723320000000  0.4461580000000 1.0
C      1  0.3809780000000  0.5044160000000  0.5318790000000 1.0
C      1  0.5774640000000  0.5629810000000  0.4443360000000 1.0
C      1  0.4200990000000  0.4347460000000  0.5605150000000 1.0
C      1  0.4071520000000  0.4411120000000  0.5114280000000 1.0
C      1  0.4606800000000  0.4280430000000  0.4292490000000 1.0
C      1  0.5390330000000  0.5655580000000  0.4912990000000 1.0
C      1  0.5640520000000  0.4897860000000  0.5011840000000 1.0
C      1  0.4097700000000  0.5410420000000  0.5155490000000 1.0
C      1  0.4237910000000  0.5479630000000  0.5566790000000 1.0
C      1  0.4094870000000  0.4933390000000  0.4439640000000 1.0
C      1  0.4270680000000  0.4634600000000  0.5622210000000 1.0
C      1  0.4544840000000  0.4546810000000  0.4186850000000 1.0
C      1  0.5447170000000  0.4698290000000  0.5416260000000 1.0
C      1  0.5370020000000  0.4439510000000  0.5015240000000 1.0
C      1  0.5511720000000  0.5626930000000  0.4334640000000 1.0
C      1  0.4022880000000  0.5169200000000  0.4595710000000 1.0
C      1  0.4496340000000  0.4200650000000  0.5281030000000 1.0
C      1  0.6100300000000  0.4744350000000  0.4793050000000 1.0
C      1  0.4609860000000  0.5243350000000  0.4012590000000 1.0
C      1  0.4614790000000  0.5291740000000  0.5345270000000 1.0
C      1  0.5100190000000  0.5870030000000  0.5542260000000 1.0
C      1  0.4901750000000  0.4303520000000  0.5056930000000 1.0
C      1  0.4857590000000  0.5160520000000  0.4701900000000 1.0
C      1  0.5182370000000  0.4862020000000  0.6031030000000 1.0
C      1  0.5081310000000  0.5147310000000  0.3949520000000 1.0
C      1  0.5251520000000  0.4624750000000  0.4592070000000 1.0
C      1  0.3861170000000  0.5229630000000  0.5095830000000 1.0
C      1  0.3946290000000  0.5092200000000  0.5570490000000 1.0
C      1  0.5535060000000  0.5130050000000  0.4128230000000 1.0
C      1  0.5256550000000  0.5512170000000  0.5311170000000 1.0
C      1  0.5491000000000  0.4534910000000  0.4132300000000 1.0
C      1  0.5142210000000  0.5076650000000  0.5352290000000 1.0
C      1  0.4833920000000  0.4833060000000  0.5558520000000 1.0
C      1  0.4689900000000  0.5531380000000  0.4072150000000 1.0
C      1  0.4312230000000  0.4612080000000  0.4385550000000 1.0
C      1  0.5380540000000  0.5960360000000  0.4888090000000 1.0
C      1  0.4689660000000  0.4446630000000  0.5225360000000 1.0
C      1  0.5482450000000  0.5526660000000  0.5754590000000 1.0
C      1  0.5406940000000  0.4724230000000  0.5119310000000 1.0
C      1  0.4678660000000  0.4749750000000  0.5280380000000 1.0
C      1  0.6088210000000  0.5352970000000  0.4670620000000 1.0
C      1  0.5245320000000  0.5140010000000  0.5967970000000 1.0
C      1  0.4436070000000  0.5189290000000  0.4865390000000 1.0
C      1  0.4710290000000  0.5541390000000  0.5838800000000 1.0
C      1  0.4425390000000  0.4789260000000  0.5828630000000 1.0
C      1  0.3929360000000  0.4692800000000  0.5215940000000 1.0
C      1  0.4918410000000  0.3938100000000  0.4714890000000 1.0
C      1  0.5701390000000  0.4385550000000  0.4541160000000 1.0
C      1  0.5134010000000  0.5256030000000  0.4727110000000 1.0
C      1  0.4368250000000  0.4881620000000  0.4481140000000 1.0
C      1  0.5295790000000  0.6031810000000  0.4606720000000 1.0
C      1  0.5837130000000  0.5816770000000  0.5123050000000 1.0
C      1  0.5308940000000  0.3999830000000  0.5036580000000 1.0
C      1  0.5886540000000  0.5362760000000  0.4476510000000 1.0
C      1  0.4847770000000  0.3933600000000  0.5153420000000 1.0
C      1  0.4296930000000  0.4466860000000  0.4912490000000 1.0
C      1  0.5087190000000  0.4195820000000  0.5667590000000 1.0
C      1  0.4934950000000  0.5835380000000  0.5195920000000 1.0
C      1  0.5030670000000  0.4576140000000  0.4047860000000 1.0
C      1  0.4296330000000  0.4397350000000  0.4621210000000 1.0
C      1  0.5190300000000  0.4245600000000  0.5167470000000 1.0
C      1  0.4466840000000  0.5293900000000  0.4366560000000 1.0
C      1  0.5826360000000  0.5536430000000  0.5021830000000 1.0
C      1  0.5138130000000  0.5520310000000  0.4850420000000 1.0
C      1  0.5432950000000  0.5759700000000  0.5284290000000 1.0
C      1  0.4584290000000  0.4004350000000  0.5054760000000 1.0
C      1  0.4491740000000  0.4192710000000  0.4549670000000 1.0
C      1  0.4961010000000  0.5583580000000  0.4168390000000 1.0
C      1  0.4805960000000  0.5144990000000  0.5560360000000 1.0
C      1  0.5753490000000  0.4687540000000  0.4170650000000 1.0
C      1  0.5824810000000  0.5019840000000  0.5225350000000 1.0
C      1  0.5420890000000  0.5400410000000  0.4175230000000 1.0
C      1  0.4452320000000  0.5730870000000  0.5183080000000 1.0
C      1  0.5019700000000  0.5539120000000  0.5128870000000 1.0
C      1  0.5158770000000  0.5417650000000  0.4050120000000 1.0
C      1  0.4884740000000  0.4867700000000  0.6064770000000 1.0
C      1  0.6224230000000  0.4942820000000  0.4943770000000 1.0
C      1  0.5931840000000  0.4566000000000  0.4951360000000 1.0
C      1  0.5067740000000  0.3951490000000  0.4478830000000 1.0
C      1  0.6068020000000  0.5386160000000  0.4951880000000 1.0
C      1  0.4927780000000  0.6007510000000  0.4494280000000 1.0
C      1  0.5055060000000  0.3871170000000  0.4966020000000 1.0
C      1  0.5413890000000  0.4417430000000  0.4419980000000 1.0
C      1  0.4661360000000  0.5910980000000  0.5100930000000 1.0
C      1  0.4793120000000  0.5019310000000  0.3962380000000 1.0
C      1  0.5738740000000  0.4314960000000  0.5309400000000 1.0
C      1  0.4022470000000  0.5548250000000  0.5405710000000 1.0
C      1  0.4285790000000  0.5616800000000  0.4708560000000 1.0
C      1  0.4289850000000  0.4759970000000  0.4944040000000 1.0
C      1  0.4572380000000  0.4109350000000  0.5563040000000 1.0
C      1  0.4191540000000  0.4245590000000  0.5322420000000 1.0
C      1  0.5654900000000  0.5222580000000  0.5419180000000 1.0
C      1  0.5611930000000  0.4241460000000  0.5034790000000 1.0
C      1  0.5882770000000  0.4778760000000  0.5403530000000 1.0
C      1  0.4772310000000  0.4725250000000  0.4074670000000 1.0
C      1  0.5286410000000  0.4709460000000  0.4009020000000 1.0
C      1  0.3892430000000  0.5070500000000  0.4848900000000 1.0
C      1  0.4394870000000  0.5087370000000  0.5809750000000 1.0
C      1  0.4370380000000  0.5175380000000  0.5177970000000 1.0
C      1  0.5049110000000  0.5828920000000  0.4298370000000 1.0
C      1  0.5324820000000  0.5846500000000  0.4381770000000 1.0
C      1  0.5199790000000  0.5655190000000  0.5725310000000 1.0
C      1  0.5170380000000  0.4749590000000  0.5561490000000 1.0
C      1  0.6083940000000  0.5129850000000  0.5096220000000 1.0
C      1  0.5880500000000  0.4573570000000  0.4402740000000 1.0
C      1  0.4153710000000  0.4805930000000  0.5415210000000 1.0
C      1  0.4858360000000  0.4906990000000  0.5075980000000 1.0
C      1  0.5165920000000  0.6049150000000  0.5096090000000 1.0
C      1  0.5282050000000  0.5139810000000  0.4491890000000 1.0
C      1  0.5159370000000  0.4312450000000  0.4146560000000 1.0
END
