TITL C-951339-9237-87 1.00619872550471e-06 125000 -1048.94124001888 0 0 168 (C1) n - 1
REM
REM in /home/bkarasulu/work/CARBON/AIRSS/Generating-Clusters/EDIP-Nigel-Params/with-SteepDescent/Only-C1/SD-CG/HFTN-CG
REM
REM
REM
REM
REM
REM ./C.cell (11c1c37f851c82e70ff6c80c92926a4b)
REM
REM compiler GCC version 9.2.1 20190827 (Red Hat 9.2.1-1)
REM options -cpp -mtune=generic -march=x86-64 -g -O0 -fpre-include=/usr/include/finclude/math-vector-fortran.h
REM seed -92366910 1411807085 -1530535716 1388275023 516384299 348917319 -920596356 1128938524 1174676823 -1116301131 -813669930 1557984651 -272194180 -440245751 953428116 1293314586 -2068802171 72692600 -405317841 -1482310845 87290945 -1957478674 -1328887288 -1545149043 -1631074994 540745433 -1740748820 -1728551466 -1384561239 757620791 1367538022 1716231568 1728770738
REM
CELL 1.54180   50.00000   50.00000   50.00000   90.00000   90.00000   90.00000
LATT -1
SFAC C  
C      1  0.4700800000000  0.5600660000000  0.5886830000000 1.0
C      1  0.5111060000000  0.4017180000000  0.5494270000000 1.0
C      1  0.4873530000000  0.4245760000000  0.4174290000000 1.0
C      1  0.5220860000000  0.5653220000000  0.4397920000000 1.0
C      1  0.4789570000000  0.4106360000000  0.4922820000000 1.0
C      1  0.5528230000000  0.4111060000000  0.4919870000000 1.0
C      1  0.3949560000000  0.4980590000000  0.5216240000000 1.0
C      1  0.4815740000000  0.5466690000000  0.4631900000000 1.0
C      1  0.5899500000000  0.4576720000000  0.4541670000000 1.0
C      1  0.5413900000000  0.4181440000000  0.4339070000000 1.0
C      1  0.3996870000000  0.5294440000000  0.4405630000000 1.0
C      1  0.4617820000000  0.5724260000000  0.5064250000000 1.0
C      1  0.4393050000000  0.4830270000000  0.5872670000000 1.0
C      1  0.4805300000000  0.4311830000000  0.4686740000000 1.0
C      1  0.5680580000000  0.4591180000000  0.4342270000000 1.0
C      1  0.4778780000000  0.5025090000000  0.4837830000000 1.0
C      1  0.5419050000000  0.5532460000000  0.4194140000000 1.0
C      1  0.4270280000000  0.5172440000000  0.4890020000000 1.0
C      1  0.4325930000000  0.4983770000000  0.4638000000000 1.0
C      1  0.5078860000000  0.4153610000000  0.5041190000000 1.0
C      1  0.4257400000000  0.4828510000000  0.5616260000000 1.0
C      1  0.5365950000000  0.4452550000000  0.5901090000000 1.0
C      1  0.4843860000000  0.6085830000000  0.5430650000000 1.0
C      1  0.5165660000000  0.4589530000000  0.4218350000000 1.0
C      1  0.5883030000000  0.4379240000000  0.4760570000000 1.0
C      1  0.4948340000000  0.5387680000000  0.5085180000000 1.0
C      1  0.5271270000000  0.5299410000000  0.4793500000000 1.0
C      1  0.4633640000000  0.5217740000000  0.3903400000000 1.0
C      1  0.4808730000000  0.4600590000000  0.6016520000000 1.0
C      1  0.5331840000000  0.4962680000000  0.5686710000000 1.0
C      1  0.4837600000000  0.5144170000000  0.6051490000000 1.0
C      1  0.4782390000000  0.4337130000000  0.5628610000000 1.0
C      1  0.4705470000000  0.6011160000000  0.4696010000000 1.0
C      1  0.4318500000000  0.5057440000000  0.4166380000000 1.0
C      1  0.4823540000000  0.4095470000000  0.5484990000000 1.0
C      1  0.5266640000000  0.4152160000000  0.4809730000000 1.0
C      1  0.4324050000000  0.5476690000000  0.4853280000000 1.0
C      1  0.5156980000000  0.4504540000000  0.5466400000000 1.0
C      1  0.5465320000000  0.4858170000000  0.4628040000000 1.0
C      1  0.4951670000000  0.4195160000000  0.4457200000000 1.0
C      1  0.5702110000000  0.5030150000000  0.4699090000000 1.0
C      1  0.5200570000000  0.3944040000000  0.5227540000000 1.0
C      1  0.5425280000000  0.5067920000000  0.5174770000000 1.0
C      1  0.4353500000000  0.4566360000000  0.5516790000000 1.0
C      1  0.4119120000000  0.5049170000000  0.5457250000000 1.0
C      1  0.5853940000000  0.4765630000000  0.5337120000000 1.0
C      1  0.4392050000000  0.4490810000000  0.5243760000000 1.0
C      1  0.4805600000000  0.6144790000000  0.5169120000000 1.0
C      1  0.5653630000000  0.5750450000000  0.4560690000000 1.0
C      1  0.4037800000000  0.5025700000000  0.4506960000000 1.0
C      1  0.5494640000000  0.4016420000000  0.5202840000000 1.0
C      1  0.4865990000000  0.4955380000000  0.5320950000000 1.0
C      1  0.5627400000000  0.4392100000000  0.4915120000000 1.0
C      1  0.4508240000000  0.4335140000000  0.4628220000000 1.0
C      1  0.4756050000000  0.5316390000000  0.5817130000000 1.0
C      1  0.4302120000000  0.4703610000000  0.5058400000000 1.0
C      1  0.4839310000000  0.5258600000000  0.5341040000000 1.0
C      1  0.4773920000000  0.4922570000000  0.4260310000000 1.0
C      1  0.5386110000000  0.5823700000000  0.4574600000000 1.0
C      1  0.4512480000000  0.4416020000000  0.5708040000000 1.0
C      1  0.4432840000000  0.4209840000000  0.5163060000000 1.0
C      1  0.5528810000000  0.5246600000000  0.5953190000000 1.0
C      1  0.5224710000000  0.5593180000000  0.5820670000000 1.0
C      1  0.5401560000000  0.4585540000000  0.4765970000000 1.0
C      1  0.5109160000000  0.4435010000000  0.5166550000000 1.0
C      1  0.4636170000000  0.5655620000000  0.5353830000000 1.0
C      1  0.5735380000000  0.5268950000000  0.4505950000000 1.0
C      1  0.6105890000000  0.4727600000000  0.4924920000000 1.0
C      1  0.5067530000000  0.5036100000000  0.3897570000000 1.0
C      1  0.4861070000000  0.4878160000000  0.5903680000000 1.0
C      1  0.5762550000000  0.4748820000000  0.5830730000000 1.0
C      1  0.5276130000000  0.5477470000000  0.3961170000000 1.0
C      1  0.4880460000000  0.5992740000000  0.4480250000000 1.0
C      1  0.4323170000000  0.5659480000000  0.4597610000000 1.0
C      1  0.4520940000000  0.4579590000000  0.5951100000000 1.0
C      1  0.5389590000000  0.5600480000000  0.5344170000000 1.0
C      1  0.5250540000000  0.5257290000000  0.5620410000000 1.0
C      1  0.4943640000000  0.5733420000000  0.5759150000000 1.0
C      1  0.4725540000000  0.4780470000000  0.4676590000000 1.0
C      1  0.4802290000000  0.5932550000000  0.4973680000000 1.0
C      1  0.4909660000000  0.4577580000000  0.4769420000000 1.0
C      1  0.6043580000000  0.4893250000000  0.5142900000000 1.0
C      1  0.3853710000000  0.4987100000000  0.4734680000000 1.0
C      1  0.5931440000000  0.4857970000000  0.5621270000000 1.0
C      1  0.5543470000000  0.5207920000000  0.4920120000000 1.0
C      1  0.4529740000000  0.5294440000000  0.5365060000000 1.0
C      1  0.3971630000000  0.5142550000000  0.4962650000000 1.0
C      1  0.4891570000000  0.5802570000000  0.5466780000000 1.0
C      1  0.4963970000000  0.5802900000000  0.4293290000000 1.0
C      1  0.4418070000000  0.4686080000000  0.4757150000000 1.0
C      1  0.4452430000000  0.5904410000000  0.4642470000000 1.0
C      1  0.5773560000000  0.5521230000000  0.4666070000000 1.0
C      1  0.5538370000000  0.5269820000000  0.4279750000000 1.0
C      1  0.4206250000000  0.5335470000000  0.4224300000000 1.0
C      1  0.4625530000000  0.5340760000000  0.4433110000000 1.0
C      1  0.4104720000000  0.4309270000000  0.4805650000000 1.0
C      1  0.5300090000000  0.4249900000000  0.5571330000000 1.0
C      1  0.6070960000000  0.5159510000000  0.5086580000000 1.0
C      1  0.5212520000000  0.4093440000000  0.4530170000000 1.0
C      1  0.4735030000000  0.5666070000000  0.4159970000000 1.0
C      1  0.5562460000000  0.4921440000000  0.5989280000000 1.0
C      1  0.5700360000000  0.4816200000000  0.4178720000000 1.0
C      1  0.5043650000000  0.5150840000000  0.4923250000000 1.0
C      1  0.5072380000000  0.5248280000000  0.6159170000000 1.0
C      1  0.4246570000000  0.5398600000000  0.5803130000000 1.0
C      1  0.4196580000000  0.5591210000000  0.5083890000000 1.0
C      1  0.5361510000000  0.5302270000000  0.5354780000000 1.0
C      1  0.4778380000000  0.4973310000000  0.3965100000000 1.0
C      1  0.6176290000000  0.4953710000000  0.4518040000000 1.0
C      1  0.5282910000000  0.5387160000000  0.6038420000000 1.0
C      1  0.5298570000000  0.5889990000000  0.4850650000000 1.0
C      1  0.5266800000000  0.4964550000000  0.4450350000000 1.0
C      1  0.5575500000000  0.5677300000000  0.5119590000000 1.0
C      1  0.5110180000000  0.5190930000000  0.4361500000000 1.0
C      1  0.5402390000000  0.4477950000000  0.4414200000000 1.0
C      1  0.4392050000000  0.5737700000000  0.5504040000000 1.0
C      1  0.5617390000000  0.5954290000000  0.5067450000000 1.0
C      1  0.4863220000000  0.4653370000000  0.4341850000000 1.0
C      1  0.3873670000000  0.4705350000000  0.4816130000000 1.0
C      1  0.4801480000000  0.5412370000000  0.4029170000000 1.0
C      1  0.4991510000000  0.4426710000000  0.5816470000000 1.0
C      1  0.4410150000000  0.5648310000000  0.5790650000000 1.0
C      1  0.4706750000000  0.5471800000000  0.4919480000000 1.0
C      1  0.4196480000000  0.4594930000000  0.4392630000000 1.0
C      1  0.5320120000000  0.4714990000000  0.6057070000000 1.0
C      1  0.4123320000000  0.5337820000000  0.5544200000000 1.0
C      1  0.5422070000000  0.6124180000000  0.4973840000000 1.0
C      1  0.6059360000000  0.4450680000000  0.4985070000000 1.0
C      1  0.4129660000000  0.4820120000000  0.4209900000000 1.0
C      1  0.5056740000000  0.5755580000000  0.4998690000000 1.0
C      1  0.4000050000000  0.4716830000000  0.5087610000000 1.0
C      1  0.4027980000000  0.4520880000000  0.4636730000000 1.0
C      1  0.5648780000000  0.5408900000000  0.5733930000000 1.0
C      1  0.4455600000000  0.4042670000000  0.4732510000000 1.0
C      1  0.4272180000000  0.4122920000000  0.4931540000000 1.0
C      1  0.5275590000000  0.4866840000000  0.4019310000000 1.0
C      1  0.5971310000000  0.5409060000000  0.5119000000000 1.0
C      1  0.5723890000000  0.5464320000000  0.4964670000000 1.0
C      1  0.4420060000000  0.5064500000000  0.5145730000000 1.0
C      1  0.4689230000000  0.4901720000000  0.5632840000000 1.0
C      1  0.4666530000000  0.4464340000000  0.4190380000000 1.0
C      1  0.5913790000000  0.5367810000000  0.5624780000000 1.0
C      1  0.5528860000000  0.5018000000000  0.4094550000000 1.0
C      1  0.5471910000000  0.5632680000000  0.5640050000000 1.0
C      1  0.5147620000000  0.4836520000000  0.5857830000000 1.0
C      1  0.5123610000000  0.4339280000000  0.4041860000000 1.0
C      1  0.5071960000000  0.5290940000000  0.4063810000000 1.0
C      1  0.4640570000000  0.4029850000000  0.5268400000000 1.0
C      1  0.4420520000000  0.5533000000000  0.4337210000000 1.0
C      1  0.4422140000000  0.4397080000000  0.4347390000000 1.0
C      1  0.5752950000000  0.4444320000000  0.5222380000000 1.0
C      1  0.5985970000000  0.4831710000000  0.4669820000000 1.0
C      1  0.5143740000000  0.4637890000000  0.4951330000000 1.0
C      1  0.4186830000000  0.5573610000000  0.5367180000000 1.0
C      1  0.5406220000000  0.4718670000000  0.5510850000000 1.0
C      1  0.5976230000000  0.5491290000000  0.5384250000000 1.0
C      1  0.5585010000000  0.4553290000000  0.5701330000000 1.0
C      1  0.4670990000000  0.4920680000000  0.5091110000000 1.0
C      1  0.4531820000000  0.5057040000000  0.4388470000000 1.0
C      1  0.5566560000000  0.4835070000000  0.5292600000000 1.0
C      1  0.5148010000000  0.4933620000000  0.5104680000000 1.0
C      1  0.5568710000000  0.4236900000000  0.5392940000000 1.0
C      1  0.6023440000000  0.5117390000000  0.5668560000000 1.0
C      1  0.5124990000000  0.5733190000000  0.5287170000000 1.0
C      1  0.4521030000000  0.5185170000000  0.5659920000000 1.0
C      1  0.5331080000000  0.4148840000000  0.4070550000000 1.0
C      1  0.4960300000000  0.5319730000000  0.5598970000000 1.0
C      1  0.5110190000000  0.5410570000000  0.4556390000000 1.0
END
