TITL C-951336-9012-295 -1.67418312354648e-06 125000 -646.568164375732 0 0 103 (C1) n - 1
REM
REM in /home/bkarasulu/work/CARBON/AIRSS/Generating-Clusters/EDIP-Nigel-Params/with-SteepDescent/Only-C1/SD-CG/HFTN-CG
REM
REM
REM
REM
REM
REM ./C.cell (11c1c37f851c82e70ff6c80c92926a4b)
REM
REM compiler GCC version 9.2.1 20190827 (Red Hat 9.2.1-1)
REM options -cpp -mtune=generic -march=x86-64 -g -O0 -fpre-include=/usr/include/finclude/math-vector-fortran.h
REM seed -481799470 1274755184 719504564 1209373690 -1501576980 941297032 943808909 -636322132 1585712143 -640542434 -1878488834 2066126876 -1035480972 114210538 -877226111 -1134309713 130814237 -1744252011 340100309 1696517638 1758220067 1383739013 23546349 -729517702 279470413 212319769 -1023487102 -718633664 854420011 1788401611 -742565245 608987872 -1794425105
REM
CELL 1.54180   50.00000   50.00000   50.00000   90.00000   90.00000   90.00000
LATT -1
SFAC C  
C      1  0.4471660000000  0.5545860000000  0.4700580000000 1.0
C      1  0.5657350000000  0.5557850000000  0.5025160000000 1.0
C      1  0.5870130000000  0.5353980000000  0.4941300000000 1.0
C      1  0.4980210000000  0.4562940000000  0.4177850000000 1.0
C      1  0.5474380000000  0.4940130000000  0.4798920000000 1.0
C      1  0.5340610000000  0.4838990000000  0.5834300000000 1.0
C      1  0.5473020000000  0.5235100000000  0.4374930000000 1.0
C      1  0.4222670000000  0.4617770000000  0.4660250000000 1.0
C      1  0.4237090000000  0.5053610000000  0.4707550000000 1.0
C      1  0.5370070000000  0.4856170000000  0.5265970000000 1.0
C      1  0.4817730000000  0.5477960000000  0.4078880000000 1.0
C      1  0.4790880000000  0.4220450000000  0.4528630000000 1.0
C      1  0.5003350000000  0.5024960000000  0.4176860000000 1.0
C      1  0.4896340000000  0.5814860000000  0.4552250000000 1.0
C      1  0.4430870000000  0.5007710000000  0.5529310000000 1.0
C      1  0.5123150000000  0.4919160000000  0.4425870000000 1.0
C      1  0.4657970000000  0.4671970000000  0.4491330000000 1.0
C      1  0.5579380000000  0.4513950000000  0.5014510000000 1.0
C      1  0.5065350000000  0.4732270000000  0.5860350000000 1.0
C      1  0.4819700000000  0.4812520000000  0.4089150000000 1.0
C      1  0.5604580000000  0.5233060000000  0.5655670000000 1.0
C      1  0.4853860000000  0.5335670000000  0.4612290000000 1.0
C      1  0.4267610000000  0.4723550000000  0.5117870000000 1.0
C      1  0.5777950000000  0.4643460000000  0.5200540000000 1.0
C      1  0.5609510000000  0.5504640000000  0.5511700000000 1.0
C      1  0.5556230000000  0.5368370000000  0.5244340000000 1.0
C      1  0.5718540000000  0.5329260000000  0.4464690000000 1.0
C      1  0.4884350000000  0.5181510000000  0.5849920000000 1.0
C      1  0.4513160000000  0.4565620000000  0.4739980000000 1.0
C      1  0.5323050000000  0.5102090000000  0.4598270000000 1.0
C      1  0.4627960000000  0.5165700000000  0.5355360000000 1.0
C      1  0.4208260000000  0.4906260000000  0.5339770000000 1.0
C      1  0.4873530000000  0.4980700000000  0.5290580000000 1.0
C      1  0.4649580000000  0.4564910000000  0.5496800000000 1.0
C      1  0.5231550000000  0.4646680000000  0.4347610000000 1.0
C      1  0.5044600000000  0.5311750000000  0.4109270000000 1.0
C      1  0.4975490000000  0.5810570000000  0.4834490000000 1.0
C      1  0.4191360000000  0.5324400000000  0.5193170000000 1.0
C      1  0.4320410000000  0.5195120000000  0.5725400000000 1.0
C      1  0.4447790000000  0.5289730000000  0.4333530000000 1.0
C      1  0.4576710000000  0.5524100000000  0.4981810000000 1.0
C      1  0.4590830000000  0.5527050000000  0.4239080000000 1.0
C      1  0.5258410000000  0.5847270000000  0.4946280000000 1.0
C      1  0.5435430000000  0.4273160000000  0.5127780000000 1.0
C      1  0.4028350000000  0.5103120000000  0.5249710000000 1.0
C      1  0.5865910000000  0.5134430000000  0.5190270000000 1.0
C      1  0.4247990000000  0.4842680000000  0.4464050000000 1.0
C      1  0.5193060000000  0.5047320000000  0.5398810000000 1.0
C      1  0.4538880000000  0.4749950000000  0.4996750000000 1.0
C      1  0.5130520000000  0.5303560000000  0.5792610000000 1.0
C      1  0.4649240000000  0.5495070000000  0.5556090000000 1.0
C      1  0.5444840000000  0.4464680000000  0.4519950000000 1.0
C      1  0.4673380000000  0.5122290000000  0.4592400000000 1.0
C      1  0.5762180000000  0.4682570000000  0.4580000000000 1.0
C      1  0.4934450000000  0.5775850000000  0.5275470000000 1.0
C      1  0.4633190000000  0.4282390000000  0.4779370000000 1.0
C      1  0.5257800000000  0.5395100000000  0.4788970000000 1.0
C      1  0.5059080000000  0.4171330000000  0.4569480000000 1.0
C      1  0.5755380000000  0.5049310000000  0.5474770000000 1.0
C      1  0.5847970000000  0.5203450000000  0.4680030000000 1.0
C      1  0.5369490000000  0.4130230000000  0.4900590000000 1.0
C      1  0.4092200000000  0.4744280000000  0.4887990000000 1.0
C      1  0.4920520000000  0.5076470000000  0.5019100000000 1.0
C      1  0.5684980000000  0.4456900000000  0.4734320000000 1.0
C      1  0.4629080000000  0.5698070000000  0.4485920000000 1.0
C      1  0.4287050000000  0.5332390000000  0.4573210000000 1.0
C      1  0.5378040000000  0.5683560000000  0.5553330000000 1.0
C      1  0.4196820000000  0.5512400000000  0.5401670000000 1.0
C      1  0.5372440000000  0.4738740000000  0.4993650000000 1.0
C      1  0.4859640000000  0.4881360000000  0.4575560000000 1.0
C      1  0.5144880000000  0.5497440000000  0.5554390000000 1.0
C      1  0.5613620000000  0.4788720000000  0.5416670000000 1.0
C      1  0.4850780000000  0.4911760000000  0.5779360000000 1.0
C      1  0.4502110000000  0.5050380000000  0.4871320000000 1.0
C      1  0.4474840000000  0.5267310000000  0.5100400000000 1.0
C      1  0.4812830000000  0.4251430000000  0.5016010000000 1.0
C      1  0.4867470000000  0.5605200000000  0.5033080000000 1.0
C      1  0.5324950000000  0.5102920000000  0.5689140000000 1.0
C      1  0.5114060000000  0.4607830000000  0.4905110000000 1.0
C      1  0.4956310000000  0.4143220000000  0.5418420000000 1.0
C      1  0.4888840000000  0.5646380000000  0.5527250000000 1.0
C      1  0.5236530000000  0.5328200000000  0.5285020000000 1.0
C      1  0.4833200000000  0.4342600000000  0.5616270000000 1.0
C      1  0.4757680000000  0.4442730000000  0.4338910000000 1.0
C      1  0.5504340000000  0.4645330000000  0.5667750000000 1.0
C      1  0.5210890000000  0.4326690000000  0.5329940000000 1.0
C      1  0.5246240000000  0.4322330000000  0.4720390000000 1.0
C      1  0.5070550000000  0.4454680000000  0.5763470000000 1.0
C      1  0.5887450000000  0.4871130000000  0.5039390000000 1.0
C      1  0.5761080000000  0.4919890000000  0.4763300000000 1.0
C      1  0.5247480000000  0.5423010000000  0.4297400000000 1.0
C      1  0.5090530000000  0.5487670000000  0.4555310000000 1.0
C      1  0.5223270000000  0.5835630000000  0.5247240000000 1.0
C      1  0.5064240000000  0.5351240000000  0.5026750000000 1.0
C      1  0.4370720000000  0.5447490000000  0.5611650000000 1.0
C      1  0.4947680000000  0.4844150000000  0.4840440000000 1.0
C      1  0.4493400000000  0.4820830000000  0.4297480000000 1.0
C      1  0.4775820000000  0.4056100000000  0.5215150000000 1.0
C      1  0.4969060000000  0.4483360000000  0.5131000000000 1.0
C      1  0.5440970000000  0.5630440000000  0.4838200000000 1.0
C      1  0.4764670000000  0.4686940000000  0.5240360000000 1.0
C      1  0.4601000000000  0.4799480000000  0.5672070000000 1.0
C      1  0.5317340000000  0.4417130000000  0.5607110000000 1.0
END
