TITL C-950531-5884-464 -3.59500628343165e-06 125000 -491.684968383604 0 0 80 (C1) n - 1
REM
REM in /home/bkarasulu/work/CARBON/AIRSS/Generating-Clusters/EDIP-Nigel-Params/with-SteepDescent/Only-C1/SD-CG/HFTN-CG
REM
REM
REM
REM
REM
REM ./C.cell (11c1c37f851c82e70ff6c80c92926a4b)
REM
REM compiler GCC version 9.2.1 20190827 (Red Hat 9.2.1-1)
REM options -cpp -mtune=generic -march=x86-64 -g -O0 -fpre-include=/usr/include/finclude/math-vector-fortran.h
REM seed -1664888706 198011505 -1457337640 -1127332407 1758823758 1466500483 69854567 -253069394 -230192857 -2005090836 173468463 -493775693 -294593742 -2043110552 1027589146 -531041319 713498486 -413091857 -998994030 -1517643501 -1876230966 1068441387 -1629788116 -155598625 1686380408 -667821482 486820615 -204835726 757941018 1564758521 256837357 1348664462 496734791
REM
CELL 1.54180   50.00000   50.00000   50.00000   90.00000   90.00000   90.00000
LATT -1
SFAC C  
C      1  0.4404890000000  0.4919530000000  0.4600420000000 1.0
C      1  0.4824590000000  0.5444040000000  0.4602700000000 1.0
C      1  0.5050950000000  0.4908820000000  0.5825260000000 1.0
C      1  0.4946730000000  0.4284090000000  0.5155900000000 1.0
C      1  0.4849320000000  0.4507990000000  0.5550120000000 1.0
C      1  0.5119500000000  0.4702380000000  0.4417970000000 1.0
C      1  0.4660650000000  0.4308830000000  0.5163830000000 1.0
C      1  0.5246900000000  0.4745500000000  0.5213110000000 1.0
C      1  0.4867280000000  0.5049370000000  0.4308670000000 1.0
C      1  0.5756030000000  0.4727120000000  0.5106850000000 1.0
C      1  0.5329790000000  0.5188190000000  0.5161120000000 1.0
C      1  0.5107560000000  0.5087210000000  0.4742180000000 1.0
C      1  0.4339850000000  0.5422060000000  0.4578010000000 1.0
C      1  0.5564410000000  0.5224190000000  0.4415160000000 1.0
C      1  0.5494540000000  0.5347480000000  0.4980870000000 1.0
C      1  0.4579450000000  0.5520650000000  0.4467720000000 1.0
C      1  0.4254410000000  0.4781300000000  0.4828530000000 1.0
C      1  0.5091410000000  0.5855400000000  0.4874090000000 1.0
C      1  0.5565140000000  0.4774270000000  0.4642320000000 1.0
C      1  0.4569940000000  0.5418890000000  0.5583770000000 1.0
C      1  0.5470800000000  0.4478010000000  0.4663920000000 1.0
C      1  0.4811080000000  0.5346920000000  0.5757450000000 1.0
C      1  0.5002680000000  0.4278510000000  0.4628750000000 1.0
C      1  0.5086270000000  0.4986760000000  0.5536370000000 1.0
C      1  0.5953040000000  0.5304070000000  0.5049840000000 1.0
C      1  0.5754350000000  0.5301060000000  0.4609420000000 1.0
C      1  0.5562680000000  0.4927200000000  0.4373910000000 1.0
C      1  0.4774800000000  0.4773400000000  0.4284390000000 1.0
C      1  0.5354390000000  0.4737860000000  0.5653000000000 1.0
C      1  0.5143970000000  0.5108770000000  0.4223420000000 1.0
C      1  0.4577380000000  0.4462090000000  0.4945460000000 1.0
C      1  0.4295210000000  0.5480660000000  0.4848390000000 1.0
C      1  0.4379930000000  0.4659590000000  0.5362310000000 1.0
C      1  0.4503730000000  0.4722400000000  0.4387850000000 1.0
C      1  0.4830740000000  0.4710750000000  0.5097550000000 1.0
C      1  0.5185330000000  0.4813010000000  0.4704020000000 1.0
C      1  0.4568630000000  0.5621610000000  0.5364760000000 1.0
C      1  0.5372830000000  0.5573850000000  0.5374890000000 1.0
C      1  0.4390080000000  0.4784210000000  0.5618580000000 1.0
C      1  0.5080350000000  0.5112320000000  0.5028030000000 1.0
C      1  0.5202080000000  0.5750620000000  0.4650980000000 1.0
C      1  0.4839410000000  0.5273580000000  0.5107650000000 1.0
C      1  0.4852220000000  0.4785380000000  0.5420150000000 1.0
C      1  0.4648650000000  0.5000000000000  0.4734010000000 1.0
C      1  0.4347290000000  0.4498330000000  0.4781480000000 1.0
C      1  0.4629570000000  0.4949920000000  0.5584850000000 1.0
C      1  0.4275710000000  0.5159930000000  0.4503670000000 1.0
C      1  0.4579740000000  0.4431740000000  0.5414940000000 1.0
C      1  0.5855000000000  0.5484910000000  0.5230630000000 1.0
C      1  0.5047090000000  0.5304290000000  0.5565800000000 1.0
C      1  0.4857450000000  0.5144140000000  0.4591940000000 1.0
C      1  0.4482920000000  0.4455810000000  0.4512310000000 1.0
C      1  0.5503110000000  0.5207060000000  0.5654320000000 1.0
C      1  0.5596760000000  0.4486870000000  0.5166060000000 1.0
C      1  0.5321930000000  0.5416450000000  0.5618070000000 1.0
C      1  0.5473980000000  0.4940720000000  0.5243480000000 1.0
C      1  0.4855100000000  0.5763640000000  0.4996200000000 1.0
C      1  0.5048410000000  0.4211150000000  0.4900880000000 1.0
C      1  0.4339960000000  0.5169030000000  0.5231600000000 1.0
C      1  0.5097230000000  0.5543560000000  0.4495410000000 1.0
C      1  0.5585510000000  0.5551180000000  0.5170280000000 1.0
C      1  0.5306220000000  0.4857480000000  0.4233900000000 1.0
C      1  0.5737780000000  0.5204880000000  0.4879970000000 1.0
C      1  0.4666460000000  0.4959230000000  0.5020670000000 1.0
C      1  0.4375180000000  0.4881220000000  0.5110630000000 1.0
C      1  0.4841240000000  0.5707130000000  0.5288980000000 1.0
C      1  0.4363380000000  0.5439490000000  0.5117840000000 1.0
C      1  0.5124950000000  0.4633910000000  0.4953320000000 1.0
C      1  0.5223120000000  0.4425180000000  0.4491890000000 1.0
C      1  0.5526420000000  0.4953690000000  0.5540830000000 1.0
C      1  0.5428870000000  0.4402890000000  0.4943280000000 1.0
C      1  0.5072100000000  0.4356230000000  0.5418190000000 1.0
C      1  0.4551010000000  0.5181990000000  0.5427730000000 1.0
C      1  0.5273540000000  0.5312790000000  0.4399130000000 1.0
C      1  0.5010840000000  0.5455480000000  0.5301880000000 1.0
C      1  0.4780130000000  0.5050990000000  0.5843420000000 1.0
C      1  0.5325900000000  0.4530350000000  0.5410680000000 1.0
C      1  0.5708740000000  0.4897590000000  0.4876520000000 1.0
C      1  0.4785530000000  0.5494200000000  0.4899160000000 1.0
C      1  0.4737910000000  0.4326600000000  0.4536290000000 1.0
END
