TITL C-950530-3293-335 6.64547362040767e-07 125000 -980.941312738514 0 0 157 (C1) n - 1
REM
REM in /home/bkarasulu/work/CARBON/AIRSS/Generating-Clusters/EDIP-Nigel-Params/with-SteepDescent/Only-C1/SD-CG/HFTN-CG
REM
REM
REM
REM
REM
REM ./C.cell (11c1c37f851c82e70ff6c80c92926a4b)
REM
REM compiler GCC version 9.2.1 20190827 (Red Hat 9.2.1-1)
REM options -cpp -mtune=generic -march=x86-64 -g -O0 -fpre-include=/usr/include/finclude/math-vector-fortran.h
REM seed -1499047918 1307766326 1922082950 1781219395 -2085131863 826901934 952916822 -971695084 1799790177 118913265 371970798 1799712658 -196432064 904257936 1380206773 -1325463623 1560152976 -1626742019 -1699302265 -1847190398 -438418392 -640331615 415139142 905456724 294786165 568146612 -337338708 -1342238920 -913997940 -606576236 1994936745 1056942134 1836309183
REM
CELL 1.54180   50.00000   50.00000   50.00000   90.00000   90.00000   90.00000
LATT -1
SFAC C  
C      1  0.4117750000000  0.5094880000000  0.4963330000000 1.0
C      1  0.5964410000000  0.4954760000000  0.5350720000000 1.0
C      1  0.5241300000000  0.5380230000000  0.4790810000000 1.0
C      1  0.4384590000000  0.4771630000000  0.4699910000000 1.0
C      1  0.5630680000000  0.4498950000000  0.4653910000000 1.0
C      1  0.4551380000000  0.5884630000000  0.4992680000000 1.0
C      1  0.5368920000000  0.4094810000000  0.4784260000000 1.0
C      1  0.4194480000000  0.5085700000000  0.4248350000000 1.0
C      1  0.4890010000000  0.4755850000000  0.5014050000000 1.0
C      1  0.4590560000000  0.4904550000000  0.6006380000000 1.0
C      1  0.5012430000000  0.3916180000000  0.5042260000000 1.0
C      1  0.4158450000000  0.5746400000000  0.4443340000000 1.0
C      1  0.4421470000000  0.5816520000000  0.4305670000000 1.0
C      1  0.4631590000000  0.4750800000000  0.5405210000000 1.0
C      1  0.4809220000000  0.4035060000000  0.5236850000000 1.0
C      1  0.4697140000000  0.4472290000000  0.5758010000000 1.0
C      1  0.5120340000000  0.5925410000000  0.5492590000000 1.0
C      1  0.6022960000000  0.4867070000000  0.4875270000000 1.0
C      1  0.4942020000000  0.4740150000000  0.5517550000000 1.0
C      1  0.5546310000000  0.4687100000000  0.5802910000000 1.0
C      1  0.5348230000000  0.4278640000000  0.5472420000000 1.0
C      1  0.5764660000000  0.5059310000000  0.4481190000000 1.0
C      1  0.4765870000000  0.5173810000000  0.4892010000000 1.0
C      1  0.5308670000000  0.5516660000000  0.4521430000000 1.0
C      1  0.4439660000000  0.4992610000000  0.5766260000000 1.0
C      1  0.4915460000000  0.4316370000000  0.5637120000000 1.0
C      1  0.4211730000000  0.4367400000000  0.4553280000000 1.0
C      1  0.5766910000000  0.5336260000000  0.4556860000000 1.0
C      1  0.5483430000000  0.4260970000000  0.4566800000000 1.0
C      1  0.4712260000000  0.5436630000000  0.4485230000000 1.0
C      1  0.5032770000000  0.4199850000000  0.4317220000000 1.0
C      1  0.4605490000000  0.4792790000000  0.5104970000000 1.0
C      1  0.3949450000000  0.4849370000000  0.4991720000000 1.0
C      1  0.4429650000000  0.4487020000000  0.5609460000000 1.0
C      1  0.4784990000000  0.4700120000000  0.5924570000000 1.0
C      1  0.4907100000000  0.4095210000000  0.4556460000000 1.0
C      1  0.4476940000000  0.5472370000000  0.4302270000000 1.0
C      1  0.4078180000000  0.4802110000000  0.5422260000000 1.0
C      1  0.5549270000000  0.5308550000000  0.4138990000000 1.0
C      1  0.4419170000000  0.5230010000000  0.4135480000000 1.0
C      1  0.4605300000000  0.4467750000000  0.4223810000000 1.0
C      1  0.4246530000000  0.5464860000000  0.4514330000000 1.0
C      1  0.5072080000000  0.4727860000000  0.6000160000000 1.0
C      1  0.5261350000000  0.5068800000000  0.4862470000000 1.0
C      1  0.5892760000000  0.4484640000000  0.5057210000000 1.0
C      1  0.4499730000000  0.5060890000000  0.5013780000000 1.0
C      1  0.5221760000000  0.4001570000000  0.5457940000000 1.0
C      1  0.4368100000000  0.5700120000000  0.5414470000000 1.0
C      1  0.5479900000000  0.5155950000000  0.5985370000000 1.0
C      1  0.4706900000000  0.5969850000000  0.5218700000000 1.0
C      1  0.5032130000000  0.5851430000000  0.4486010000000 1.0
C      1  0.5011390000000  0.5042630000000  0.4437650000000 1.0
C      1  0.4859980000000  0.4642380000000  0.4724150000000 1.0
C      1  0.4142330000000  0.5616990000000  0.4916310000000 1.0
C      1  0.4639560000000  0.4825870000000  0.4548530000000 1.0
C      1  0.4595670000000  0.5917880000000  0.4525520000000 1.0
C      1  0.5173800000000  0.5565630000000  0.5252100000000 1.0
C      1  0.5399740000000  0.5777790000000  0.5485210000000 1.0
C      1  0.4757820000000  0.5136320000000  0.4580910000000 1.0
C      1  0.4772260000000  0.5329040000000  0.5497750000000 1.0
C      1  0.5814660000000  0.5740250000000  0.4843580000000 1.0
C      1  0.5867190000000  0.4597800000000  0.4494190000000 1.0
C      1  0.4641190000000  0.5081440000000  0.4017150000000 1.0
C      1  0.5569310000000  0.4978060000000  0.5767000000000 1.0
C      1  0.5686710000000  0.5389630000000  0.5572140000000 1.0
C      1  0.4056370000000  0.5243820000000  0.4452640000000 1.0
C      1  0.5267490000000  0.3896120000000  0.5192810000000 1.0
C      1  0.5584780000000  0.5473150000000  0.4379140000000 1.0
C      1  0.5359840000000  0.5414130000000  0.5900890000000 1.0
C      1  0.4028630000000  0.4640490000000  0.5182840000000 1.0
C      1  0.5258390000000  0.5275370000000  0.4151800000000 1.0
C      1  0.3968690000000  0.5058270000000  0.5315900000000 1.0
C      1  0.4026000000000  0.5347480000000  0.4820710000000 1.0
C      1  0.5218240000000  0.5014720000000  0.4048100000000 1.0
C      1  0.4157830000000  0.5280640000000  0.5361250000000 1.0
C      1  0.5634240000000  0.5820220000000  0.5289170000000 1.0
C      1  0.5085580000000  0.4022410000000  0.4775100000000 1.0
C      1  0.4958120000000  0.4902640000000  0.4153520000000 1.0
C      1  0.6010150000000  0.5209250000000  0.5482660000000 1.0
C      1  0.5049330000000  0.5570930000000  0.4958320000000 1.0
C      1  0.5003210000000  0.5501770000000  0.5493750000000 1.0
C      1  0.4454610000000  0.4597870000000  0.4937440000000 1.0
C      1  0.5085640000000  0.5023700000000  0.5576780000000 1.0
C      1  0.4563160000000  0.4767200000000  0.4245600000000 1.0
C      1  0.4875330000000  0.4387120000000  0.4152190000000 1.0
C      1  0.4423360000000  0.5227400000000  0.5246260000000 1.0
C      1  0.4470880000000  0.4298110000000  0.4422910000000 1.0
C      1  0.5997100000000  0.5425290000000  0.5281680000000 1.0
C      1  0.4727390000000  0.4321850000000  0.5196880000000 1.0
C      1  0.5322140000000  0.4561180000000  0.4157610000000 1.0
C      1  0.5878260000000  0.4620340000000  0.4211900000000 1.0
C      1  0.5541870000000  0.4894560000000  0.5023970000000 1.0
C      1  0.4611680000000  0.4080270000000  0.4559170000000 1.0
C      1  0.4214410000000  0.4236970000000  0.4833470000000 1.0
C      1  0.4256500000000  0.4795680000000  0.4273240000000 1.0
C      1  0.5429660000000  0.4780870000000  0.5283750000000 1.0
C      1  0.4651970000000  0.5443730000000  0.5760870000000 1.0
C      1  0.4838000000000  0.5286520000000  0.3975770000000 1.0
C      1  0.5314040000000  0.4498050000000  0.5218730000000 1.0
C      1  0.5941230000000  0.4863030000000  0.4594950000000 1.0
C      1  0.5884490000000  0.4854470000000  0.4063880000000 1.0
C      1  0.4204740000000  0.5685580000000  0.5184640000000 1.0
C      1  0.4426310000000  0.5991050000000  0.4757200000000 1.0
C      1  0.4243750000000  0.4444720000000  0.5101240000000 1.0
C      1  0.4860460000000  0.5749110000000  0.5624230000000 1.0
C      1  0.4995590000000  0.5969270000000  0.5223930000000 1.0
C      1  0.4609590000000  0.5592910000000  0.4738690000000 1.0
C      1  0.5831760000000  0.5463800000000  0.4808520000000 1.0
C      1  0.5152510000000  0.4993600000000  0.6078610000000 1.0
C      1  0.4616420000000  0.5847010000000  0.5459140000000 1.0
C      1  0.5110830000000  0.6002040000000  0.4958860000000 1.0
C      1  0.4443780000000  0.4361850000000  0.5328960000000 1.0
C      1  0.5484310000000  0.4042840000000  0.5058480000000 1.0
C      1  0.5354280000000  0.5876670000000  0.4866580000000 1.0
C      1  0.4490300000000  0.4110090000000  0.4827810000000 1.0
C      1  0.4656030000000  0.5012960000000  0.5552990000000 1.0
C      1  0.4998760000000  0.4566720000000  0.5240050000000 1.0
C      1  0.5191210000000  0.4371350000000  0.5703190000000 1.0
C      1  0.4922220000000  0.5880230000000  0.4761760000000 1.0
C      1  0.4161620000000  0.5373740000000  0.5627600000000 1.0
C      1  0.4971570000000  0.5569570000000  0.4359850000000 1.0
C      1  0.5202170000000  0.4909140000000  0.4613820000000 1.0
C      1  0.5068390000000  0.5180480000000  0.5856480000000 1.0
C      1  0.5385620000000  0.4984930000000  0.5513320000000 1.0
C      1  0.5036680000000  0.5453100000000  0.4087440000000 1.0
C      1  0.5319720000000  0.5818140000000  0.4578370000000 1.0
C      1  0.4660510000000  0.4359490000000  0.4899180000000 1.0
C      1  0.5613990000000  0.5860250000000  0.4997300000000 1.0
C      1  0.4819610000000  0.5309710000000  0.5965000000000 1.0
C      1  0.5605010000000  0.4556780000000  0.4962920000000 1.0
C      1  0.4374890000000  0.5294840000000  0.5790630000000 1.0
C      1  0.5501780000000  0.5585860000000  0.5712090000000 1.0
C      1  0.5305760000000  0.4314000000000  0.4332140000000 1.0
C      1  0.4689260000000  0.5131750000000  0.6139420000000 1.0
C      1  0.5674470000000  0.5016520000000  0.4196920000000 1.0
C      1  0.5947500000000  0.4220580000000  0.5126980000000 1.0
C      1  0.4929180000000  0.4049340000000  0.5504830000000 1.0
C      1  0.5043930000000  0.4609140000000  0.4073940000000 1.0
C      1  0.5354850000000  0.5354570000000  0.5216240000000 1.0
C      1  0.5729000000000  0.4545000000000  0.5610550000000 1.0
C      1  0.4610470000000  0.5449480000000  0.5267370000000 1.0
C      1  0.5851220000000  0.5009060000000  0.5070300000000 1.0
C      1  0.5504630000000  0.5225120000000  0.5402130000000 1.0
C      1  0.4164630000000  0.4669060000000  0.4532830000000 1.0
C      1  0.5640310000000  0.4268530000000  0.5509980000000 1.0
C      1  0.5866350000000  0.5668820000000  0.5382370000000 1.0
C      1  0.4164610000000  0.5845950000000  0.4724090000000 1.0
C      1  0.6118160000000  0.4622430000000  0.4964200000000 1.0
C      1  0.5886930000000  0.5305040000000  0.5038780000000 1.0
C      1  0.5004310000000  0.5030080000000  0.5013250000000 1.0
C      1  0.5131710000000  0.4638870000000  0.4640600000000 1.0
C      1  0.4761500000000  0.5461970000000  0.4975510000000 1.0
C      1  0.5713120000000  0.4128040000000  0.5245580000000 1.0
C      1  0.4268070000000  0.4751870000000  0.5645870000000 1.0
C      1  0.5928290000000  0.4712370000000  0.5493670000000 1.0
C      1  0.5426110000000  0.4842410000000  0.4157470000000 1.0
C      1  0.5258580000000  0.4622100000000  0.5803930000000 1.0
END
