TITL C-951346-9544-121 -6.83532653438149e-06 125000 -1038.29172678525 0 0 168 (C1) n - 1
REM
REM in /home/bkarasulu/work/CARBON/AIRSS/Generating-Clusters/EDIP-Nigel-Params/with-SteepDescent/Only-C1/SD-CG/HFTN-CG
REM
REM
REM
REM
REM
REM ./C.cell (11c1c37f851c82e70ff6c80c92926a4b)
REM
REM compiler GCC version 9.2.1 20190827 (Red Hat 9.2.1-1)
REM options -cpp -mtune=generic -march=x86-64 -g -O0 -fpre-include=/usr/include/finclude/math-vector-fortran.h
REM seed -158233973 -1036127522 -556182316 1779639571 1739951414 -1220434545 1750842404 -1217102099 -1594257387 -482245598 1396764287 1849031634 1037816382 -1254640377 1102140727 555749265 810306605 929408079 1819743438 -1501027508 -1510073093 659568227 348554248 -290027443 148350669 2056282510 1179241227 1174876533 -236984283 1923988529 -1554481116 -1814581650 1575935992
REM
CELL 1.54180   50.00000   50.00000   50.00000   90.00000   90.00000   90.00000
LATT -1
SFAC C  
C      1  0.4147540000000  0.4655830000000  0.5242530000000 1.0
C      1  0.5450390000000  0.5467050000000  0.5942880000000 1.0
C      1  0.5920290000000  0.5474440000000  0.5273030000000 1.0
C      1  0.4422900000000  0.4873150000000  0.5814630000000 1.0
C      1  0.5069160000000  0.5217440000000  0.5630250000000 1.0
C      1  0.4158070000000  0.5366720000000  0.5211040000000 1.0
C      1  0.5736480000000  0.4809600000000  0.4482590000000 1.0
C      1  0.4588530000000  0.5483690000000  0.3913350000000 1.0
C      1  0.5947050000000  0.5160180000000  0.4833850000000 1.0
C      1  0.4232800000000  0.5718810000000  0.4733280000000 1.0
C      1  0.5428420000000  0.5000230000000  0.5426180000000 1.0
C      1  0.4202360000000  0.5890530000000  0.4950930000000 1.0
C      1  0.4223960000000  0.4869450000000  0.4097460000000 1.0
C      1  0.5267130000000  0.4740440000000  0.4020090000000 1.0
C      1  0.4747980000000  0.5437510000000  0.4676930000000 1.0
C      1  0.4319460000000  0.5408120000000  0.4282840000000 1.0
C      1  0.4859440000000  0.5944270000000  0.5310180000000 1.0
C      1  0.5734870000000  0.4778610000000  0.5799360000000 1.0
C      1  0.3911470000000  0.5392250000000  0.4921160000000 1.0
C      1  0.4695890000000  0.4869870000000  0.5926330000000 1.0
C      1  0.5623420000000  0.5228320000000  0.5900100000000 1.0
C      1  0.5642780000000  0.5667010000000  0.5674030000000 1.0
C      1  0.4634020000000  0.4552570000000  0.4637320000000 1.0
C      1  0.4718920000000  0.4975770000000  0.4037050000000 1.0
C      1  0.4554510000000  0.5676450000000  0.5728140000000 1.0
C      1  0.5490470000000  0.4073920000000  0.4597290000000 1.0
C      1  0.5483900000000  0.4943980000000  0.4902020000000 1.0
C      1  0.4032050000000  0.4928410000000  0.4799900000000 1.0
C      1  0.5258990000000  0.4926640000000  0.5980510000000 1.0
C      1  0.5019450000000  0.6012580000000  0.5090490000000 1.0
C      1  0.5934700000000  0.4567000000000  0.5461010000000 1.0
C      1  0.5544850000000  0.4955340000000  0.5962860000000 1.0
C      1  0.4419450000000  0.5038940000000  0.3977820000000 1.0
C      1  0.4661970000000  0.5947920000000  0.4598700000000 1.0
C      1  0.5301910000000  0.3999710000000  0.5316320000000 1.0
C      1  0.5240130000000  0.5553140000000  0.4226900000000 1.0
C      1  0.4616630000000  0.4215930000000  0.5808140000000 1.0
C      1  0.4624400000000  0.6106950000000  0.4828050000000 1.0
C      1  0.4976500000000  0.5683490000000  0.4220520000000 1.0
C      1  0.5503530000000  0.5369730000000  0.4990600000000 1.0
C      1  0.5011940000000  0.5045170000000  0.4665960000000 1.0
C      1  0.4810060000000  0.4908950000000  0.5079800000000 1.0
C      1  0.5082090000000  0.5143940000000  0.6064670000000 1.0
C      1  0.4275960000000  0.4258570000000  0.4803200000000 1.0
C      1  0.5671390000000  0.4526920000000  0.5617300000000 1.0
C      1  0.5563650000000  0.5173780000000  0.4210140000000 1.0
C      1  0.4946160000000  0.4338840000000  0.4102850000000 1.0
C      1  0.4775860000000  0.5156310000000  0.4531390000000 1.0
C      1  0.5864030000000  0.5735930000000  0.5163420000000 1.0
C      1  0.5705510000000  0.3996370000000  0.5080640000000 1.0
C      1  0.4825840000000  0.4052300000000  0.5409810000000 1.0
C      1  0.5096010000000  0.4765720000000  0.4676940000000 1.0
C      1  0.4266140000000  0.5025120000000  0.5613230000000 1.0
C      1  0.4585180000000  0.4078060000000  0.5564490000000 1.0
C      1  0.4566100000000  0.4375130000000  0.5039000000000 1.0
C      1  0.5085650000000  0.4299560000000  0.4746010000000 1.0
C      1  0.4194040000000  0.4380820000000  0.5334430000000 1.0
C      1  0.5220700000000  0.4452850000000  0.4089190000000 1.0
C      1  0.5600510000000  0.5537820000000  0.4535090000000 1.0
C      1  0.4065670000000  0.4876230000000  0.5429050000000 1.0
C      1  0.5595690000000  0.5255260000000  0.4487070000000 1.0
C      1  0.4323580000000  0.5141490000000  0.5189160000000 1.0
C      1  0.5562640000000  0.4882650000000  0.5185410000000 1.0
C      1  0.4238500000000  0.5323660000000  0.5679910000000 1.0
C      1  0.5890920000000  0.5687890000000  0.4883510000000 1.0
C      1  0.5610560000000  0.5621480000000  0.4817920000000 1.0
C      1  0.4126090000000  0.5311380000000  0.4472550000000 1.0
C      1  0.4805940000000  0.5087450000000  0.6067260000000 1.0
C      1  0.4092110000000  0.5466370000000  0.4710050000000 1.0
C      1  0.4987120000000  0.5861200000000  0.5553730000000 1.0
C      1  0.6198360000000  0.4800360000000  0.5132010000000 1.0
C      1  0.5722820000000  0.4541110000000  0.4615600000000 1.0
C      1  0.4099560000000  0.4496340000000  0.4755510000000 1.0
C      1  0.5281580000000  0.5544580000000  0.5604500000000 1.0
C      1  0.5052230000000  0.5108140000000  0.5101450000000 1.0
C      1  0.4462880000000  0.5754650000000  0.4565310000000 1.0
C      1  0.5448910000000  0.5700050000000  0.4355960000000 1.0
C      1  0.5306950000000  0.4737390000000  0.4458750000000 1.0
C      1  0.4662720000000  0.3824100000000  0.4592170000000 1.0
C      1  0.4852450000000  0.5471810000000  0.4024870000000 1.0
C      1  0.4743920000000  0.4957080000000  0.5385200000000 1.0
C      1  0.5703160000000  0.5043750000000  0.4678600000000 1.0
C      1  0.4979270000000  0.4918320000000  0.5592160000000 1.0
C      1  0.4382060000000  0.4396810000000  0.5563430000000 1.0
C      1  0.4876050000000  0.4632870000000  0.5915040000000 1.0
C      1  0.4532940000000  0.4726440000000  0.4407490000000 1.0
C      1  0.5128320000000  0.4828370000000  0.3788120000000 1.0
C      1  0.4044820000000  0.4676660000000  0.4971010000000 1.0
C      1  0.4812670000000  0.3874490000000  0.4813210000000 1.0
C      1  0.5160180000000  0.5022100000000  0.4252860000000 1.0
C      1  0.5338100000000  0.4437220000000  0.4358940000000 1.0
C      1  0.5028710000000  0.5495040000000  0.4808980000000 1.0
C      1  0.4602930000000  0.5386510000000  0.4935920000000 1.0
C      1  0.5163770000000  0.5226570000000  0.4852860000000 1.0
C      1  0.5259150000000  0.5936470000000  0.5589190000000 1.0
C      1  0.5464630000000  0.5869590000000  0.4943100000000 1.0
C      1  0.5807930000000  0.5452730000000  0.5543370000000 1.0
C      1  0.3890270000000  0.5033630000000  0.5263120000000 1.0
C      1  0.4912920000000  0.5875450000000  0.4459310000000 1.0
C      1  0.4482190000000  0.5655260000000  0.5440560000000 1.0
C      1  0.5623680000000  0.4322900000000  0.4437420000000 1.0
C      1  0.5575600000000  0.4878580000000  0.4222790000000 1.0
C      1  0.5488290000000  0.4047000000000  0.4896280000000 1.0
C      1  0.5802330000000  0.5264920000000  0.5080460000000 1.0
C      1  0.4933530000000  0.4413380000000  0.5384510000000 1.0
C      1  0.5027490000000  0.5595220000000  0.5100600000000 1.0
C      1  0.4504690000000  0.4673070000000  0.5497450000000 1.0
C      1  0.4373900000000  0.5326180000000  0.4007410000000 1.0
C      1  0.5690040000000  0.4373140000000  0.5119030000000 1.0
C      1  0.4424260000000  0.5455450000000  0.5859420000000 1.0
C      1  0.5195190000000  0.4703790000000  0.5017990000000 1.0
C      1  0.6144370000000  0.4985020000000  0.4927900000000 1.0
C      1  0.5299370000000  0.5478280000000  0.5241810000000 1.0
C      1  0.5925840000000  0.4966920000000  0.5655070000000 1.0
C      1  0.4929240000000  0.5024470000000  0.3811840000000 1.0
C      1  0.4989280000000  0.4063530000000  0.4918670000000 1.0
C      1  0.5816300000000  0.5002070000000  0.5226580000000 1.0
C      1  0.4731280000000  0.4488390000000  0.4005770000000 1.0
C      1  0.4253290000000  0.4686740000000  0.4309800000000 1.0
C      1  0.4208880000000  0.5517970000000  0.5448620000000 1.0
C      1  0.4899960000000  0.4125450000000  0.4298100000000 1.0
C      1  0.5210800000000  0.5199710000000  0.5337660000000 1.0
C      1  0.6024350000000  0.4844890000000  0.5393020000000 1.0
C      1  0.4921260000000  0.4529950000000  0.4635230000000 1.0
C      1  0.4531110000000  0.4988620000000  0.4542650000000 1.0
C      1  0.5051880000000  0.5292380000000  0.3870090000000 1.0
C      1  0.5492790000000  0.4390210000000  0.5376340000000 1.0
C      1  0.4689340000000  0.5264450000000  0.5404160000000 1.0
C      1  0.5179940000000  0.5902130000000  0.4880190000000 1.0
C      1  0.4727990000000  0.5484460000000  0.5189480000000 1.0
C      1  0.5530870000000  0.5886170000000  0.5499800000000 1.0
C      1  0.4653510000000  0.4068410000000  0.4450850000000 1.0
C      1  0.5239320000000  0.3958090000000  0.5032650000000 1.0
C      1  0.4461710000000  0.5973010000000  0.5018550000000 1.0
C      1  0.5121960000000  0.4238210000000  0.5741560000000 1.0
C      1  0.4976050000000  0.5622060000000  0.5986980000000 1.0
C      1  0.5580760000000  0.4565130000000  0.4887500000000 1.0
C      1  0.5210200000000  0.4188180000000  0.4502610000000 1.0
C      1  0.4870130000000  0.5147710000000  0.4244560000000 1.0
C      1  0.5290040000000  0.5282340000000  0.4092860000000 1.0
C      1  0.4853680000000  0.4379080000000  0.5763280000000 1.0
C      1  0.4318380000000  0.4212290000000  0.5123150000000 1.0
C      1  0.4581180000000  0.4694110000000  0.4920210000000 1.0
C      1  0.4494010000000  0.5117950000000  0.4966580000000 1.0
C      1  0.4518090000000  0.4279950000000  0.4612820000000 1.0
C      1  0.5585940000000  0.4019490000000  0.5347540000000 1.0
C      1  0.6169950000000  0.4534670000000  0.5049350000000 1.0
C      1  0.5315400000000  0.4470820000000  0.5772830000000 1.0
C      1  0.5142110000000  0.5991630000000  0.4596740000000 1.0
C      1  0.4060230000000  0.4662980000000  0.4519120000000 1.0
C      1  0.5713010000000  0.5181690000000  0.5618890000000 1.0
C      1  0.4307770000000  0.5081270000000  0.4722020000000 1.0
C      1  0.4533060000000  0.5562500000000  0.4381900000000 1.0
C      1  0.4688580000000  0.4543420000000  0.5277840000000 1.0
C      1  0.5376030000000  0.5952670000000  0.4449100000000 1.0
C      1  0.5095440000000  0.4032370000000  0.5522420000000 1.0
C      1  0.5207960000000  0.4558740000000  0.5322960000000 1.0
C      1  0.4581360000000  0.5881830000000  0.5266660000000 1.0
C      1  0.5241910000000  0.4771420000000  0.5539330000000 1.0
C      1  0.5966610000000  0.4429270000000  0.5211490000000 1.0
C      1  0.5582500000000  0.5818090000000  0.5217870000000 1.0
C      1  0.4813460000000  0.5333400000000  0.5640910000000 1.0
C      1  0.3873150000000  0.5111450000000  0.4985580000000 1.0
C      1  0.4719870000000  0.4714090000000  0.4169310000000 1.0
C      1  0.5297380000000  0.4444830000000  0.4903690000000 1.0
C      1  0.5166160000000  0.5416970000000  0.6010960000000 1.0
C      1  0.4836810000000  0.5752080000000  0.5779460000000 1.0
C      1  0.5164380000000  0.4659240000000  0.5955310000000 1.0
END
