TITL C-950531-5884-588 -6.47593750027549e-07 125000 -831.570103900288 0 0 133 (C1) n - 1
REM
REM in /home/bkarasulu/work/CARBON/AIRSS/Generating-Clusters/EDIP-Nigel-Params/with-SteepDescent/Only-C1/SD-CG/HFTN-CG
REM
REM
REM
REM
REM
REM ./C.cell (11c1c37f851c82e70ff6c80c92926a4b)
REM
REM compiler GCC version 9.2.1 20190827 (Red Hat 9.2.1-1)
REM options -cpp -mtune=generic -march=x86-64 -g -O0 -fpre-include=/usr/include/finclude/math-vector-fortran.h
REM seed -2122197734 -423982243 942762597 -1258437733 -3689364 1498171889 -2028982510 712156209 -1735370142 -893330179 966050680 -665333886 1556723243 -1722499490 673879014 705863122 -1760428661 -404104311 -1833712649 489872824 -1997233387 775504971 -753859239 -602358153 683664220 -1801124555 896230999 1400746586 -974158042 1115928263 122175874 704248592 -1154400265
REM
CELL 1.54180   50.00000   50.00000   50.00000   90.00000   90.00000   90.00000
LATT -1
SFAC C  
C      1  0.4344600000000  0.5078480000000  0.5701250000000 1.0
C      1  0.4273880000000  0.5477980000000  0.5275800000000 1.0
C      1  0.4083050000000  0.4864350000000  0.5271590000000 1.0
C      1  0.5594070000000  0.4799770000000  0.5677730000000 1.0
C      1  0.5485290000000  0.4051010000000  0.4887860000000 1.0
C      1  0.4406460000000  0.5284730000000  0.4702980000000 1.0
C      1  0.4544020000000  0.4591660000000  0.5822270000000 1.0
C      1  0.5179610000000  0.4089520000000  0.5307500000000 1.0
C      1  0.5360320000000  0.4512860000000  0.4839320000000 1.0
C      1  0.4348230000000  0.5127600000000  0.4444370000000 1.0
C      1  0.5561390000000  0.4335700000000  0.4445720000000 1.0
C      1  0.3929170000000  0.5096300000000  0.5154990000000 1.0
C      1  0.4710400000000  0.5245520000000  0.4109910000000 1.0
C      1  0.4726560000000  0.5025770000000  0.5971430000000 1.0
C      1  0.4879550000000  0.5178780000000  0.5469610000000 1.0
C      1  0.4162780000000  0.4974610000000  0.5516310000000 1.0
C      1  0.4201450000000  0.4508660000000  0.4868740000000 1.0
C      1  0.4814180000000  0.4303520000000  0.5527460000000 1.0
C      1  0.5257860000000  0.4412460000000  0.5712570000000 1.0
C      1  0.4676510000000  0.4115850000000  0.4668730000000 1.0
C      1  0.4468600000000  0.4209710000000  0.5127100000000 1.0
C      1  0.4528510000000  0.4411530000000  0.5568490000000 1.0
C      1  0.4307620000000  0.5105080000000  0.4927010000000 1.0
C      1  0.5184000000000  0.5397740000000  0.4139920000000 1.0
C      1  0.5349780000000  0.5585900000000  0.4601920000000 1.0
C      1  0.5171270000000  0.5345780000000  0.6031700000000 1.0
C      1  0.4599050000000  0.4889230000000  0.4783960000000 1.0
C      1  0.4977230000000  0.4132930000000  0.4621490000000 1.0
C      1  0.5575160000000  0.5478260000000  0.4780700000000 1.0
C      1  0.5863920000000  0.5471300000000  0.4373350000000 1.0
C      1  0.5143640000000  0.5280370000000  0.5356030000000 1.0
C      1  0.5327040000000  0.5135770000000  0.5937150000000 1.0
C      1  0.4360680000000  0.4246330000000  0.4863650000000 1.0
C      1  0.5571280000000  0.4298610000000  0.4753440000000 1.0
C      1  0.5160330000000  0.5567080000000  0.5349680000000 1.0
C      1  0.4653150000000  0.5773500000000  0.5127700000000 1.0
C      1  0.5874350000000  0.5004690000000  0.4530380000000 1.0
C      1  0.4626090000000  0.4400420000000  0.4624220000000 1.0
C      1  0.4770790000000  0.5270470000000  0.5782630000000 1.0
C      1  0.5201870000000  0.5960920000000  0.5159150000000 1.0
C      1  0.4482260000000  0.5346110000000  0.5718680000000 1.0
C      1  0.5303250000000  0.6013810000000  0.5417920000000 1.0
C      1  0.4845430000000  0.4405060000000  0.5009290000000 1.0
C      1  0.4855000000000  0.5854720000000  0.4491470000000 1.0
C      1  0.5487470000000  0.5188140000000  0.4900110000000 1.0
C      1  0.5155020000000  0.4758580000000  0.5451450000000 1.0
C      1  0.4903520000000  0.5444550000000  0.4197680000000 1.0
C      1  0.5294180000000  0.5876660000000  0.4685430000000 1.0
C      1  0.4883920000000  0.4056530000000  0.5373060000000 1.0
C      1  0.5939320000000  0.5183660000000  0.4753430000000 1.0
C      1  0.5847220000000  0.5445550000000  0.4652670000000 1.0
C      1  0.4479060000000  0.5591680000000  0.4319140000000 1.0
C      1  0.5799350000000  0.5266480000000  0.5240400000000 1.0
C      1  0.4402500000000  0.4482100000000  0.4420070000000 1.0
C      1  0.5604330000000  0.5053490000000  0.4399010000000 1.0
C      1  0.5310940000000  0.4687690000000  0.4165380000000 1.0
C      1  0.4716360000000  0.4064880000000  0.5138540000000 1.0
C      1  0.4255780000000  0.5629660000000  0.4791860000000 1.0
C      1  0.4903660000000  0.4500750000000  0.5308710000000 1.0
C      1  0.5300060000000  0.4425780000000  0.4325820000000 1.0
C      1  0.5279140000000  0.4733000000000  0.4642360000000 1.0
C      1  0.3905380000000  0.4970430000000  0.4668830000000 1.0
C      1  0.5115190000000  0.5439560000000  0.4706370000000 1.0
C      1  0.4944510000000  0.5465890000000  0.5926200000000 1.0
C      1  0.5039740000000  0.4284800000000  0.4368640000000 1.0
C      1  0.4898470000000  0.4892360000000  0.5504610000000 1.0
C      1  0.5796340000000  0.5075280000000  0.5469720000000 1.0
C      1  0.4979920000000  0.4738340000000  0.4571450000000 1.0
C      1  0.4584290000000  0.4924570000000  0.4462860000000 1.0
C      1  0.4428530000000  0.5563860000000  0.5521200000000 1.0
C      1  0.5257870000000  0.4852950000000  0.5181370000000 1.0
C      1  0.5477680000000  0.5856720000000  0.5562010000000 1.0
C      1  0.4013320000000  0.5123010000000  0.4875250000000 1.0
C      1  0.4379860000000  0.5656500000000  0.5049710000000 1.0
C      1  0.5001390000000  0.5924030000000  0.4718070000000 1.0
C      1  0.5031010000000  0.4840820000000  0.5012570000000 1.0
C      1  0.5091820000000  0.4283240000000  0.4865240000000 1.0
C      1  0.5722550000000  0.4611150000000  0.5492920000000 1.0
C      1  0.4726810000000  0.4738790000000  0.5341980000000 1.0
C      1  0.4879300000000  0.5057270000000  0.4408450000000 1.0
C      1  0.4816370000000  0.4547370000000  0.5944440000000 1.0
C      1  0.4375490000000  0.4419760000000  0.5307780000000 1.0
C      1  0.5733430000000  0.4575410000000  0.4367790000000 1.0
C      1  0.5107010000000  0.5161470000000  0.4612150000000 1.0
C      1  0.5762570000000  0.5104390000000  0.4983790000000 1.0
C      1  0.4975370000000  0.4349040000000  0.5781430000000 1.0
C      1  0.5912570000000  0.4626130000000  0.4858090000000 1.0
C      1  0.4329890000000  0.5680650000000  0.4534770000000 1.0
C      1  0.4486620000000  0.4888240000000  0.5870350000000 1.0
C      1  0.4696360000000  0.5235500000000  0.4753330000000 1.0
C      1  0.4937140000000  0.5673410000000  0.5534190000000 1.0
C      1  0.5548750000000  0.5191980000000  0.5746140000000 1.0
C      1  0.4004520000000  0.5343900000000  0.5295750000000 1.0
C      1  0.5460200000000  0.5598890000000  0.5460620000000 1.0
C      1  0.5033220000000  0.5508530000000  0.4997190000000 1.0
C      1  0.5663350000000  0.5536740000000  0.5253500000000 1.0
C      1  0.4759320000000  0.5663950000000  0.4315120000000 1.0
C      1  0.5128310000000  0.4908100000000  0.4079420000000 1.0
C      1  0.5315380000000  0.4708070000000  0.5715090000000 1.0
C      1  0.4846590000000  0.4506610000000  0.4418150000000 1.0
C      1  0.4667870000000  0.5722950000000  0.5421210000000 1.0
C      1  0.5228320000000  0.4063140000000  0.5010290000000 1.0
C      1  0.5380260000000  0.5026320000000  0.4640520000000 1.0
C      1  0.5248390000000  0.5153040000000  0.4018240000000 1.0
C      1  0.5478900000000  0.4661140000000  0.5087420000000 1.0
C      1  0.4678650000000  0.5207730000000  0.5237830000000 1.0
C      1  0.4976350000000  0.5712870000000  0.5808270000000 1.0
C      1  0.5532150000000  0.5480300000000  0.5703440000000 1.0
C      1  0.4771410000000  0.5362190000000  0.5006760000000 1.0
C      1  0.5870670000000  0.4809050000000  0.5337760000000 1.0
C      1  0.4852480000000  0.4911570000000  0.3992820000000 1.0
C      1  0.4372600000000  0.5188780000000  0.5222590000000 1.0
C      1  0.5534640000000  0.4463860000000  0.5308080000000 1.0
C      1  0.5832780000000  0.4361620000000  0.4856610000000 1.0
C      1  0.5763470000000  0.4800770000000  0.5054750000000 1.0
C      1  0.4845900000000  0.4714630000000  0.4845700000000 1.0
C      1  0.5414530000000  0.5902150000000  0.4959590000000 1.0
C      1  0.5596250000000  0.5666460000000  0.5000830000000 1.0
C      1  0.5398630000000  0.5512730000000  0.4302950000000 1.0
C      1  0.5321040000000  0.5137060000000  0.5166870000000 1.0
C      1  0.5209200000000  0.4872130000000  0.5932860000000 1.0
C      1  0.4606160000000  0.4819000000000  0.4100250000000 1.0
C      1  0.4436810000000  0.5315670000000  0.4215530000000 1.0
C      1  0.5894900000000  0.4718040000000  0.4580300000000 1.0
C      1  0.4124560000000  0.4901860000000  0.4507060000000 1.0
C      1  0.4617120000000  0.4561940000000  0.4212990000000 1.0
C      1  0.5580910000000  0.4793130000000  0.4219120000000 1.0
C      1  0.5635540000000  0.5338850000000  0.4276560000000 1.0
C      1  0.4933590000000  0.4815620000000  0.6018820000000 1.0
C      1  0.4210000000000  0.4615930000000  0.5150630000000 1.0
C      1  0.4956930000000  0.5811340000000  0.5004050000000 1.0
C      1  0.4265330000000  0.4660920000000  0.4615680000000 1.0
C      1  0.5295730000000  0.4339840000000  0.5428830000000 1.0
END
