TITL C-950528-5794-371 -1.71669501994351e-06 125000 -1169.25128806001 0 0 187 (C1) n - 1
REM
REM in /home/bkarasulu/work/CARBON/AIRSS/Generating-Clusters/EDIP-Nigel-Params/with-SteepDescent/Only-C1/SD-CG/HFTN-CG
REM
REM
REM
REM
REM
REM ./C.cell (11c1c37f851c82e70ff6c80c92926a4b)
REM
REM compiler GCC version 9.2.1 20190827 (Red Hat 9.2.1-1)
REM options -cpp -mtune=generic -march=x86-64 -g -O0 -fpre-include=/usr/include/finclude/math-vector-fortran.h
REM seed 1232685180 292176464 -175365803 607305358 1718117885 1618223566 -1678521806 911299287 95374899 890138116 -974655573 -874017861 -1653878385 -1501259581 524219149 899809732 -1547222000 43763812 -1368957536 -1857192153 2139197210 684418561 724921260 -1414943056 -2111883665 1724130717 195538516 -1406844859 1924298075 -2068404218 1152156644 -339178243 -138110129
REM
CELL 1.54180   50.00000   50.00000   50.00000   90.00000   90.00000   90.00000
LATT -1
SFAC C  
C      1  0.4559140000000  0.5404930000000  0.5921290000000 1.0
C      1  0.5387120000000  0.4966750000000  0.3911540000000 1.0
C      1  0.5677700000000  0.4705260000000  0.4903470000000 1.0
C      1  0.5625150000000  0.5516980000000  0.5697820000000 1.0
C      1  0.5377460000000  0.4722200000000  0.4104820000000 1.0
C      1  0.5071350000000  0.5633090000000  0.4907870000000 1.0
C      1  0.4439720000000  0.5630790000000  0.5763020000000 1.0
C      1  0.4039970000000  0.5693800000000  0.4611650000000 1.0
C      1  0.4431400000000  0.4553060000000  0.4775770000000 1.0
C      1  0.5724900000000  0.5046520000000  0.5289400000000 1.0
C      1  0.4225070000000  0.5581380000000  0.4434030000000 1.0
C      1  0.5722740000000  0.5723720000000  0.5226230000000 1.0
C      1  0.5654070000000  0.5591420000000  0.4756470000000 1.0
C      1  0.5853740000000  0.5634130000000  0.4978050000000 1.0
C      1  0.5303580000000  0.5525340000000  0.5071210000000 1.0
C      1  0.4131190000000  0.4815440000000  0.4346780000000 1.0
C      1  0.5700850000000  0.4366420000000  0.5679000000000 1.0
C      1  0.5785420000000  0.4966580000000  0.4146130000000 1.0
C      1  0.4751590000000  0.5429620000000  0.4544250000000 1.0
C      1  0.6022560000000  0.4699040000000  0.5655190000000 1.0
C      1  0.5221950000000  0.4829300000000  0.4362370000000 1.0
C      1  0.5340720000000  0.5981200000000  0.4977090000000 1.0
C      1  0.4023480000000  0.4827470000000  0.5717800000000 1.0
C      1  0.4137640000000  0.5576770000000  0.5327110000000 1.0
C      1  0.4890030000000  0.5970850000000  0.4282330000000 1.0
C      1  0.6019850000000  0.5190460000000  0.4824780000000 1.0
C      1  0.4613930000000  0.5931380000000  0.5342330000000 1.0
C      1  0.4746100000000  0.4879110000000  0.5025690000000 1.0
C      1  0.4878540000000  0.5146030000000  0.5010070000000 1.0
C      1  0.4700580000000  0.4324180000000  0.5189100000000 1.0
C      1  0.5075550000000  0.5543040000000  0.4439440000000 1.0
C      1  0.4837060000000  0.6074450000000  0.4835210000000 1.0
C      1  0.4632640000000  0.4122160000000  0.4338530000000 1.0
C      1  0.5787550000000  0.4548540000000  0.5126960000000 1.0
C      1  0.4297080000000  0.5167240000000  0.5291170000000 1.0
C      1  0.4673470000000  0.4031690000000  0.4820760000000 1.0
C      1  0.5521830000000  0.4225790000000  0.5498910000000 1.0
C      1  0.4523860000000  0.5275960000000  0.4669020000000 1.0
C      1  0.5468670000000  0.5750270000000  0.4195630000000 1.0
C      1  0.6078800000000  0.5164870000000  0.5530210000000 1.0
C      1  0.4695850000000  0.5368310000000  0.5068350000000 1.0
C      1  0.3943960000000  0.5109040000000  0.5665430000000 1.0
C      1  0.5169530000000  0.5754910000000  0.5936290000000 1.0
C      1  0.5287840000000  0.4205640000000  0.5650700000000 1.0
C      1  0.5583330000000  0.5030920000000  0.5027150000000 1.0
C      1  0.5210750000000  0.5381220000000  0.5300310000000 1.0
C      1  0.3939520000000  0.5072740000000  0.4776500000000 1.0
C      1  0.4807480000000  0.4776740000000  0.5306770000000 1.0
C      1  0.5306660000000  0.5803930000000  0.5485000000000 1.0
C      1  0.4476650000000  0.4366650000000  0.4323140000000 1.0
C      1  0.5488390000000  0.5346610000000  0.4879690000000 1.0
C      1  0.5394200000000  0.4077710000000  0.4521220000000 1.0
C      1  0.5315410000000  0.4913300000000  0.5115680000000 1.0
C      1  0.4504830000000  0.4559950000000  0.4099260000000 1.0
C      1  0.5324540000000  0.4400370000000  0.4072820000000 1.0
C      1  0.4418260000000  0.5555320000000  0.5462300000000 1.0
C      1  0.6107860000000  0.4889320000000  0.5445130000000 1.0
C      1  0.4898930000000  0.6003000000000  0.5300200000000 1.0
C      1  0.3993360000000  0.4690570000000  0.5459620000000 1.0
C      1  0.5710100000000  0.4464210000000  0.4340200000000 1.0
C      1  0.6150190000000  0.4798380000000  0.5156870000000 1.0
C      1  0.4986300000000  0.4981700000000  0.6028250000000 1.0
C      1  0.4413620000000  0.4545550000000  0.5848310000000 1.0
C      1  0.4258850000000  0.4112830000000  0.4965320000000 1.0
C      1  0.3943200000000  0.4504800000000  0.4946960000000 1.0
C      1  0.5194460000000  0.4854020000000  0.6168300000000 1.0
C      1  0.5270720000000  0.5378150000000  0.5922600000000 1.0
C      1  0.4796770000000  0.4836400000000  0.4551080000000 1.0
C      1  0.5792480000000  0.5502710000000  0.4513710000000 1.0
C      1  0.4841490000000  0.5545710000000  0.3989670000000 1.0
C      1  0.5124330000000  0.5106520000000  0.3848600000000 1.0
C      1  0.4906790000000  0.4369180000000  0.5877100000000 1.0
C      1  0.4255030000000  0.4786770000000  0.5894060000000 1.0
C      1  0.5065400000000  0.5989480000000  0.5533050000000 1.0
C      1  0.4096100000000  0.5576640000000  0.4857460000000 1.0
C      1  0.4364150000000  0.4825330000000  0.4132850000000 1.0
C      1  0.5189400000000  0.4423220000000  0.5282570000000 1.0
C      1  0.5551510000000  0.5040540000000  0.5541490000000 1.0
C      1  0.4127800000000  0.5065280000000  0.4525410000000 1.0
C      1  0.4452300000000  0.5881690000000  0.5095240000000 1.0
C      1  0.4830250000000  0.4194400000000  0.5652140000000 1.0
C      1  0.5877170000000  0.4443240000000  0.4575830000000 1.0
C      1  0.5163030000000  0.6050980000000  0.4313720000000 1.0
C      1  0.4624610000000  0.4974080000000  0.5683390000000 1.0
C      1  0.6004580000000  0.5386170000000  0.5040420000000 1.0
C      1  0.5073500000000  0.5088440000000  0.4283320000000 1.0
C      1  0.5549190000000  0.4102370000000  0.4768050000000 1.0
C      1  0.3827650000000  0.5131930000000  0.5383860000000 1.0
C      1  0.4508150000000  0.5938450000000  0.4568920000000 1.0
C      1  0.4810030000000  0.5187150000000  0.5561680000000 1.0
C      1  0.5069120000000  0.5516900000000  0.6108490000000 1.0
C      1  0.4155000000000  0.4454300000000  0.5394650000000 1.0
C      1  0.5173120000000  0.5651410000000  0.4164650000000 1.0
C      1  0.5175300000000  0.5713190000000  0.4661110000000 1.0
C      1  0.5947320000000  0.5263240000000  0.4548540000000 1.0
C      1  0.4558880000000  0.5068300000000  0.4153530000000 1.0
C      1  0.5683910000000  0.4670170000000  0.5373750000000 1.0
C      1  0.4830160000000  0.4804930000000  0.5843780000000 1.0
C      1  0.5350690000000  0.4923960000000  0.4624340000000 1.0
C      1  0.5222680000000  0.5297930000000  0.4424620000000 1.0
C      1  0.4421560000000  0.4497810000000  0.5547580000000 1.0
C      1  0.4415740000000  0.5129650000000  0.5845200000000 1.0
C      1  0.5432860000000  0.5778710000000  0.5191310000000 1.0
C      1  0.5672270000000  0.5575280000000  0.4274770000000 1.0
C      1  0.5081560000000  0.5402840000000  0.3893020000000 1.0
C      1  0.5940820000000  0.4447290000000  0.5555550000000 1.0
C      1  0.4896360000000  0.4926580000000  0.3910410000000 1.0
C      1  0.4779150000000  0.5581620000000  0.4858410000000 1.0
C      1  0.5893300000000  0.4707070000000  0.4699960000000 1.0
C      1  0.4216030000000  0.5222630000000  0.5641390000000 1.0
C      1  0.5423310000000  0.5964970000000  0.4393870000000 1.0
C      1  0.4671780000000  0.4336270000000  0.4895070000000 1.0
C      1  0.4536440000000  0.5886030000000  0.5624360000000 1.0
C      1  0.5230280000000  0.4439950000000  0.5828950000000 1.0
C      1  0.5326300000000  0.5202180000000  0.4669580000000 1.0
C      1  0.5644910000000  0.4726890000000  0.4228320000000 1.0
C      1  0.4372910000000  0.5274130000000  0.4146420000000 1.0
C      1  0.5237090000000  0.4786430000000  0.4852610000000 1.0
C      1  0.4951220000000  0.5816410000000  0.5745570000000 1.0
C      1  0.5065690000000  0.4128730000000  0.5501620000000 1.0
C      1  0.6130700000000  0.4932370000000  0.4891850000000 1.0
C      1  0.5592240000000  0.4584180000000  0.5862860000000 1.0
C      1  0.4726120000000  0.6108810000000  0.4473130000000 1.0
C      1  0.4282860000000  0.4402590000000  0.4550030000000 1.0
C      1  0.5444210000000  0.5740770000000  0.5756770000000 1.0
C      1  0.4508970000000  0.3992510000000  0.4572950000000 1.0
C      1  0.5039230000000  0.6054600000000  0.5041290000000 1.0
C      1  0.4249930000000  0.4740550000000  0.4984500000000 1.0
C      1  0.5498240000000  0.4257950000000  0.4282840000000 1.0
C      1  0.4603920000000  0.4268890000000  0.5469990000000 1.0
C      1  0.4124370000000  0.4343370000000  0.5111370000000 1.0
C      1  0.4895970000000  0.4496260000000  0.5337030000000 1.0
C      1  0.4936490000000  0.4440300000000  0.4816210000000 1.0
C      1  0.4190710000000  0.5735500000000  0.5088130000000 1.0
C      1  0.4624910000000  0.5861940000000  0.4846620000000 1.0
C      1  0.5797100000000  0.4228780000000  0.4742270000000 1.0
C      1  0.4741840000000  0.5719030000000  0.4211490000000 1.0
C      1  0.4666760000000  0.5394870000000  0.5364980000000 1.0
C      1  0.3971890000000  0.5323310000000  0.4937310000000 1.0
C      1  0.5162730000000  0.3960020000000  0.5010250000000 1.0
C      1  0.4980260000000  0.3938680000000  0.4785750000000 1.0
C      1  0.5956590000000  0.5093680000000  0.4326640000000 1.0
C      1  0.5449640000000  0.3992440000000  0.5018120000000 1.0
C      1  0.4525720000000  0.4802790000000  0.4645740000000 1.0
C      1  0.4374110000000  0.5043020000000  0.4688020000000 1.0
C      1  0.5001610000000  0.4406680000000  0.4517360000000 1.0
C      1  0.4654460000000  0.4737320000000  0.3879350000000 1.0
C      1  0.5394110000000  0.4517560000000  0.4807590000000 1.0
C      1  0.4480140000000  0.5723650000000  0.4368710000000 1.0
C      1  0.4695720000000  0.4568870000000  0.5962140000000 1.0
C      1  0.5140790000000  0.4673100000000  0.5650840000000 1.0
C      1  0.5123950000000  0.5555020000000  0.5517070000000 1.0
C      1  0.4170170000000  0.5315150000000  0.4332960000000 1.0
C      1  0.3932380000000  0.4812180000000  0.4974450000000 1.0
C      1  0.5915840000000  0.5298030000000  0.5319650000000 1.0
C      1  0.4843700000000  0.4606340000000  0.4379790000000 1.0
C      1  0.6073060000000  0.4525350000000  0.5127800000000 1.0
C      1  0.5112060000000  0.3977420000000  0.4520070000000 1.0
C      1  0.5361890000000  0.4691930000000  0.5342320000000 1.0
C      1  0.5561370000000  0.4063650000000  0.5269080000000 1.0
C      1  0.4943490000000  0.4606450000000  0.4101390000000 1.0
C      1  0.4788000000000  0.5097200000000  0.4371880000000 1.0
C      1  0.5308960000000  0.4938750000000  0.5710530000000 1.0
C      1  0.4794500000000  0.5456080000000  0.6073270000000 1.0
C      1  0.4033980000000  0.5300610000000  0.5229120000000 1.0
C      1  0.5106410000000  0.5123710000000  0.5203000000000 1.0
C      1  0.5624830000000  0.5112750000000  0.3964310000000 1.0
C      1  0.4395860000000  0.4904830000000  0.5204140000000 1.0
C      1  0.5436910000000  0.5845110000000  0.4691770000000 1.0
C      1  0.5821900000000  0.4795970000000  0.5857630000000 1.0
C      1  0.4487190000000  0.3945470000000  0.5040260000000 1.0
C      1  0.5489250000000  0.5217720000000  0.6064170000000 1.0
C      1  0.5708160000000  0.5311110000000  0.5895150000000 1.0
C      1  0.4941550000000  0.4154360000000  0.4332710000000 1.0
C      1  0.5042670000000  0.4313640000000  0.4067580000000 1.0
C      1  0.4979650000000  0.4992490000000  0.5415420000000 1.0
C      1  0.5097770000000  0.5160860000000  0.5801940000000 1.0
C      1  0.4932440000000  0.4745870000000  0.4821260000000 1.0
C      1  0.5776800000000  0.5531700000000  0.5442700000000 1.0
C      1  0.4247420000000  0.4123220000000  0.4665110000000 1.0
C      1  0.4060900000000  0.4563930000000  0.4455750000000 1.0
C      1  0.5424230000000  0.4917430000000  0.6005540000000 1.0
C      1  0.5189500000000  0.4342860000000  0.4983930000000 1.0
C      1  0.3843770000000  0.4855220000000  0.5265560000000 1.0
C      1  0.5796240000000  0.5076700000000  0.5727110000000 1.0
C      1  0.5296730000000  0.4501080000000  0.4500030000000 1.0
C      1  0.4537830000000  0.4779800000000  0.5447500000000 1.0
END
