TITL C-950529-3362-281 1.26466800300712e-06 125000 -219.729065688202 0 0 37 (C1) n - 1
REM
REM in /home/bkarasulu/work/CARBON/AIRSS/Generating-Clusters/EDIP-Nigel-Params/with-SteepDescent/Only-C1/SD-CG/HFTN-CG
REM
REM
REM
REM
REM
REM ./C.cell (11c1c37f851c82e70ff6c80c92926a4b)
REM
REM compiler GCC version 9.2.1 20190827 (Red Hat 9.2.1-1)
REM options -cpp -mtune=generic -march=x86-64 -g -O0 -fpre-include=/usr/include/finclude/math-vector-fortran.h
REM seed 2027432072 -1905219092 511209883 -1010633497 1530680502 -1426259203 1871877329 -887768302 196068292 -663349385 766432088 513435334 1257213981 1607676149 964688154 -1748904779 418890771 824930955 931655721 1284041576 90444073 -1567929053 -1933717118 -1604984481 -1583235340 787971915 1295304612 -396627518 277434678 -704534310 -1255689211 -2142589415 66504438
REM
CELL 1.54180   50.00000   50.00000   50.00000   90.00000   90.00000   90.00000
LATT -1
SFAC C  
C      1  0.5133400000000  0.5381540000000  0.5283060000000 1.0
C      1  0.5170310000000  0.4851710000000  0.5531120000000 1.0
C      1  0.5400020000000  0.5017690000000  0.4898060000000 1.0
C      1  0.4951020000000  0.5369040000000  0.4761610000000 1.0
C      1  0.5700030000000  0.4973070000000  0.5279540000000 1.0
C      1  0.4642870000000  0.4668380000000  0.5165640000000 1.0
C      1  0.4323720000000  0.5003630000000  0.5154580000000 1.0
C      1  0.4402720000000  0.4758470000000  0.4743880000000 1.0
C      1  0.5286680000000  0.4651900000000  0.5376370000000 1.0
C      1  0.5518580000000  0.5231130000000  0.4717800000000 1.0
C      1  0.4895420000000  0.4840270000000  0.5558940000000 1.0
C      1  0.4654040000000  0.5343770000000  0.4776830000000 1.0
C      1  0.4489490000000  0.5041130000000  0.5396200000000 1.0
C      1  0.4408400000000  0.4761150000000  0.5022540000000 1.0
C      1  0.4541130000000  0.5186350000000  0.4574360000000 1.0
C      1  0.4991020000000  0.4449320000000  0.4870520000000 1.0
C      1  0.5564480000000  0.5110980000000  0.5465820000000 1.0
C      1  0.5155610000000  0.4849110000000  0.4792780000000 1.0
C      1  0.5020550000000  0.5013190000000  0.5003800000000 1.0
C      1  0.4822230000000  0.4795940000000  0.4513230000000 1.0
C      1  0.5075430000000  0.5562100000000  0.5073340000000 1.0
C      1  0.5584050000000  0.4844790000000  0.5059830000000 1.0
C      1  0.4534620000000  0.5302580000000  0.5036810000000 1.0
C      1  0.4814160000000  0.4463290000000  0.5086430000000 1.0
C      1  0.5288070000000  0.5119100000000  0.5514950000000 1.0
C      1  0.5272330000000  0.4504050000000  0.4909410000000 1.0
C      1  0.4967210000000  0.5137130000000  0.5268930000000 1.0
C      1  0.5349340000000  0.5325320000000  0.4497410000000 1.0
C      1  0.5491360000000  0.5504900000000  0.4812950000000 1.0
C      1  0.4675570000000  0.5243600000000  0.5285670000000 1.0
C      1  0.4891170000000  0.4550540000000  0.4629560000000 1.0
C      1  0.5043410000000  0.4970310000000  0.4449820000000 1.0
C      1  0.5071600000000  0.5253450000000  0.4508360000000 1.0
C      1  0.4651190000000  0.4793590000000  0.5428740000000 1.0
C      1  0.4561130000000  0.4907530000000  0.4569240000000 1.0
C      1  0.5425700000000  0.4604940000000  0.5136740000000 1.0
C      1  0.5231930000000  0.5615040000000  0.4845140000000 1.0
END
