TITL C-950536-5891-12 -7.49104040467771e-07 125000 -1236.63741434641 0 0 195 (C1) n - 1
REM
REM in /home/bkarasulu/work/CARBON/AIRSS/Generating-Clusters/EDIP-Nigel-Params/with-SteepDescent/Only-C1/SD-CG/HFTN-CG
REM
REM
REM
REM
REM
REM ./C.cell (11c1c37f851c82e70ff6c80c92926a4b)
REM
REM compiler GCC version 9.2.1 20190827 (Red Hat 9.2.1-1)
REM options -cpp -mtune=generic -march=x86-64 -g -O0 -fpre-include=/usr/include/finclude/math-vector-fortran.h
REM seed -1360039108 -2011027232 -1944433011 -1189081257 1406704934 1701228533 136784275 -1528672561 -1453702206 1379367673 -1042193920 -1394464503 -1144768396 181846955 1909130611 -1060888760 494364212 -1511138335 482586987 1892922550 -2101968571 -2072897188 -1493126416 875711153 -240531810 172820316 -1501479731 1002478614 -2044249504 -1766280468 1775897095 696487058 -636155008
REM
CELL 1.54180   50.00000   50.00000   50.00000   90.00000   90.00000   90.00000
LATT -1
SFAC C  
C      1  0.4571870000000  0.5413950000000  0.5912110000000 1.0
C      1  0.4198210000000  0.5092520000000  0.5054090000000 1.0
C      1  0.4753610000000  0.4178740000000  0.5208190000000 1.0
C      1  0.5582040000000  0.5504270000000  0.4959230000000 1.0
C      1  0.5103240000000  0.4075720000000  0.4620790000000 1.0
C      1  0.4712140000000  0.5144010000000  0.4236740000000 1.0
C      1  0.4646680000000  0.4657760000000  0.5257780000000 1.0
C      1  0.5735770000000  0.5280720000000  0.5050170000000 1.0
C      1  0.4210460000000  0.4612780000000  0.5034220000000 1.0
C      1  0.4101600000000  0.5759530000000  0.4742890000000 1.0
C      1  0.5571460000000  0.4293780000000  0.4512120000000 1.0
C      1  0.5032370000000  0.5450680000000  0.5967770000000 1.0
C      1  0.5769530000000  0.4750450000000  0.5924710000000 1.0
C      1  0.4325590000000  0.4689690000000  0.5646210000000 1.0
C      1  0.4744270000000  0.6143400000000  0.4685670000000 1.0
C      1  0.5874830000000  0.5448200000000  0.4529960000000 1.0
C      1  0.5124860000000  0.5067210000000  0.4747460000000 1.0
C      1  0.5278110000000  0.5043190000000  0.6055470000000 1.0
C      1  0.4165800000000  0.4913920000000  0.5798310000000 1.0
C      1  0.4898210000000  0.4641560000000  0.4806660000000 1.0
C      1  0.4077910000000  0.5291890000000  0.5234330000000 1.0
C      1  0.4193990000000  0.4845680000000  0.5206560000000 1.0
C      1  0.5405080000000  0.3855370000000  0.5112720000000 1.0
C      1  0.4410030000000  0.5853760000000  0.4386590000000 1.0
C      1  0.4061190000000  0.4785140000000  0.4425200000000 1.0
C      1  0.5105690000000  0.4833840000000  0.5170820000000 1.0
C      1  0.5349850000000  0.4671790000000  0.4541820000000 1.0
C      1  0.4636740000000  0.5746500000000  0.4895570000000 1.0
C      1  0.5792310000000  0.4710810000000  0.4269070000000 1.0
C      1  0.4213120000000  0.4422490000000  0.5511730000000 1.0
C      1  0.4906930000000  0.4262260000000  0.4221680000000 1.0
C      1  0.4478220000000  0.4405720000000  0.4410250000000 1.0
C      1  0.5768140000000  0.4539610000000  0.4534540000000 1.0
C      1  0.4799960000000  0.5561760000000  0.5842010000000 1.0
C      1  0.5508290000000  0.4871530000000  0.3843380000000 1.0
C      1  0.5040230000000  0.4141210000000  0.5179770000000 1.0
C      1  0.4054190000000  0.4579370000000  0.4629480000000 1.0
C      1  0.4834240000000  0.4937370000000  0.5601400000000 1.0
C      1  0.4936750000000  0.4862260000000  0.4605110000000 1.0
C      1  0.4358130000000  0.5381900000000  0.4156760000000 1.0
C      1  0.3976030000000  0.5275720000000  0.4647730000000 1.0
C      1  0.3868860000000  0.4605110000000  0.4862120000000 1.0
C      1  0.5766400000000  0.4321480000000  0.5730350000000 1.0
C      1  0.5088860000000  0.5256010000000  0.3812410000000 1.0
C      1  0.5568170000000  0.4986490000000  0.5040140000000 1.0
C      1  0.5592700000000  0.5701770000000  0.5724420000000 1.0
C      1  0.4367050000000  0.4204810000000  0.5635880000000 1.0
C      1  0.5220080000000  0.4336640000000  0.5318590000000 1.0
C      1  0.5326890000000  0.5609160000000  0.4006500000000 1.0
C      1  0.6064660000000  0.5561790000000  0.5250220000000 1.0
C      1  0.6205530000000  0.5410510000000  0.5039080000000 1.0
C      1  0.4739420000000  0.5100590000000  0.5008860000000 1.0
C      1  0.5540040000000  0.4776690000000  0.5551400000000 1.0
C      1  0.5479220000000  0.4271500000000  0.5751360000000 1.0
C      1  0.5519070000000  0.4055730000000  0.4930860000000 1.0
C      1  0.4641900000000  0.4204520000000  0.4888410000000 1.0
C      1  0.5424040000000  0.4428400000000  0.4035130000000 1.0
C      1  0.4779170000000  0.4953130000000  0.4006330000000 1.0
C      1  0.4228700000000  0.5144280000000  0.4767650000000 1.0
C      1  0.4559810000000  0.4604410000000  0.5824560000000 1.0
C      1  0.4883760000000  0.3925290000000  0.5748670000000 1.0
C      1  0.4646100000000  0.4178090000000  0.4319170000000 1.0
C      1  0.4861790000000  0.5660510000000  0.5557400000000 1.0
C      1  0.5025880000000  0.5183620000000  0.6088420000000 1.0
C      1  0.5062640000000  0.4993090000000  0.3928450000000 1.0
C      1  0.5528090000000  0.5478740000000  0.6019880000000 1.0
C      1  0.5053090000000  0.5894420000000  0.4384220000000 1.0
C      1  0.4331920000000  0.5547470000000  0.4406120000000 1.0
C      1  0.5305060000000  0.5827280000000  0.4223850000000 1.0
C      1  0.3749530000000  0.4806040000000  0.5052440000000 1.0
C      1  0.4666670000000  0.5007050000000  0.4525890000000 1.0
C      1  0.5615330000000  0.4652940000000  0.4027660000000 1.0
C      1  0.5724380000000  0.4483440000000  0.5020200000000 1.0
C      1  0.5356970000000  0.4220090000000  0.4735220000000 1.0
C      1  0.4830140000000  0.4806660000000  0.5058830000000 1.0
C      1  0.5171760000000  0.4519050000000  0.3902720000000 1.0
C      1  0.5950470000000  0.5167530000000  0.4446390000000 1.0
C      1  0.4431580000000  0.4679870000000  0.4839450000000 1.0
C      1  0.5821200000000  0.5394830000000  0.5319550000000 1.0
C      1  0.5417200000000  0.5292870000000  0.5541580000000 1.0
C      1  0.5545470000000  0.5549610000000  0.5469870000000 1.0
C      1  0.5762370000000  0.5743090000000  0.4936440000000 1.0
C      1  0.5097620000000  0.4359840000000  0.5804030000000 1.0
C      1  0.4388750000000  0.3983360000000  0.5465200000000 1.0
C      1  0.4063040000000  0.5156610000000  0.5659960000000 1.0
C      1  0.4411840000000  0.5424970000000  0.5248290000000 1.0
C      1  0.3677310000000  0.5059520000000  0.4945400000000 1.0
C      1  0.6148490000000  0.4589290000000  0.5221360000000 1.0
C      1  0.6353150000000  0.5196590000000  0.5137060000000 1.0
C      1  0.5704480000000  0.4815750000000  0.4810440000000 1.0
C      1  0.5956870000000  0.5791360000000  0.5135550000000 1.0
C      1  0.5182620000000  0.4977700000000  0.4196080000000 1.0
C      1  0.5975570000000  0.5320290000000  0.4861580000000 1.0
C      1  0.5004520000000  0.6053320000000  0.5398640000000 1.0
C      1  0.5449250000000  0.5351400000000  0.4113130000000 1.0
C      1  0.5375100000000  0.4305480000000  0.4296200000000 1.0
C      1  0.4203080000000  0.5842990000000  0.5232180000000 1.0
C      1  0.4672330000000  0.5254080000000  0.5261340000000 1.0
C      1  0.6032610000000  0.4546850000000  0.4710090000000 1.0
C      1  0.4751890000000  0.5948630000000  0.4445660000000 1.0
C      1  0.6119200000000  0.4809310000000  0.4740890000000 1.0
C      1  0.4636880000000  0.3936410000000  0.5345870000000 1.0
C      1  0.6016370000000  0.4458870000000  0.4995570000000 1.0
C      1  0.5896740000000  0.4573540000000  0.5712630000000 1.0
C      1  0.4531910000000  0.5175720000000  0.6058360000000 1.0
C      1  0.4288850000000  0.5107310000000  0.4152690000000 1.0
C      1  0.4695800000000  0.5233830000000  0.4733300000000 1.0
C      1  0.5668840000000  0.4211830000000  0.5109290000000 1.0
C      1  0.6256500000000  0.4957130000000  0.5231250000000 1.0
C      1  0.5259310000000  0.4511600000000  0.4811210000000 1.0
C      1  0.5345460000000  0.5175450000000  0.4593790000000 1.0
C      1  0.5864070000000  0.5156540000000  0.5483270000000 1.0
C      1  0.4710640000000  0.4680290000000  0.4064130000000 1.0
C      1  0.6066550000000  0.4958120000000  0.5445430000000 1.0
C      1  0.5594610000000  0.5538510000000  0.4484390000000 1.0
C      1  0.5238060000000  0.4754200000000  0.5587100000000 1.0
C      1  0.4249010000000  0.4348870000000  0.4607250000000 1.0
C      1  0.5035760000000  0.4615130000000  0.5955720000000 1.0
C      1  0.4797520000000  0.4788180000000  0.5868100000000 1.0
C      1  0.4991110000000  0.6097050000000  0.4849080000000 1.0
C      1  0.4438620000000  0.4824380000000  0.5397880000000 1.0
C      1  0.5319510000000  0.5826550000000  0.5794910000000 1.0
C      1  0.4255300000000  0.4834390000000  0.4219860000000 1.0
C      1  0.4760680000000  0.4426200000000  0.5409920000000 1.0
C      1  0.4379370000000  0.5816710000000  0.5457020000000 1.0
C      1  0.5062650000000  0.5525780000000  0.3892420000000 1.0
C      1  0.5772780000000  0.5041900000000  0.5968190000000 1.0
C      1  0.3908710000000  0.4837380000000  0.5315180000000 1.0
C      1  0.5134590000000  0.5817780000000  0.5539020000000 1.0
C      1  0.5072510000000  0.4488210000000  0.5526680000000 1.0
C      1  0.4697840000000  0.5682290000000  0.4606670000000 1.0
C      1  0.3890530000000  0.5475130000000  0.5088380000000 1.0
C      1  0.5531140000000  0.5186660000000  0.6034950000000 1.0
C      1  0.5977160000000  0.4685030000000  0.5451310000000 1.0
C      1  0.4966250000000  0.4540690000000  0.4133670000000 1.0
C      1  0.5545220000000  0.5825370000000  0.4412450000000 1.0
C      1  0.4893580000000  0.5457030000000  0.4605780000000 1.0
C      1  0.4631710000000  0.4346260000000  0.5686980000000 1.0
C      1  0.5304010000000  0.4578310000000  0.5131500000000 1.0
C      1  0.5729290000000  0.4992300000000  0.4340550000000 1.0
C      1  0.5267510000000  0.5618090000000  0.6005110000000 1.0
C      1  0.4338380000000  0.4166870000000  0.4839690000000 1.0
C      1  0.4938850000000  0.5964110000000  0.5121120000000 1.0
C      1  0.3909640000000  0.5116740000000  0.5420570000000 1.0
C      1  0.5259130000000  0.5017980000000  0.5003760000000 1.0
C      1  0.5502910000000  0.4622030000000  0.5908300000000 1.0
C      1  0.4423150000000  0.5560260000000  0.4973360000000 1.0
C      1  0.4950200000000  0.5359470000000  0.4316490000000 1.0
C      1  0.5106660000000  0.4748370000000  0.4369420000000 1.0
C      1  0.5157590000000  0.5245590000000  0.5425740000000 1.0
C      1  0.4645420000000  0.4485720000000  0.4754650000000 1.0
C      1  0.4178800000000  0.4147350000000  0.5074350000000 1.0
C      1  0.4976140000000  0.5655430000000  0.5064170000000 1.0
C      1  0.5413740000000  0.5459700000000  0.4718520000000 1.0
C      1  0.4810020000000  0.3803250000000  0.5520480000000 1.0
C      1  0.5560410000000  0.5948060000000  0.4921000000000 1.0
C      1  0.4513980000000  0.6027440000000  0.4836710000000 1.0
C      1  0.5535510000000  0.3948630000000  0.5360730000000 1.0
C      1  0.4061030000000  0.5541710000000  0.4540040000000 1.0
C      1  0.5139820000000  0.4137210000000  0.4337310000000 1.0
C      1  0.4655780000000  0.3944430000000  0.4476530000000 1.0
C      1  0.5424150000000  0.4189470000000  0.5474860000000 1.0
C      1  0.4289250000000  0.5969570000000  0.4642440000000 1.0
C      1  0.5537860000000  0.4918350000000  0.4572300000000 1.0
C      1  0.6042590000000  0.5073820000000  0.4704030000000 1.0
C      1  0.5123590000000  0.5606090000000  0.4773130000000 1.0
C      1  0.4023520000000  0.5738340000000  0.5030650000000 1.0
C      1  0.3766840000000  0.5314620000000  0.4859170000000 1.0
C      1  0.5276030000000  0.4756100000000  0.6029520000000 1.0
C      1  0.5593670000000  0.4715520000000  0.5227630000000 1.0
C      1  0.5524280000000  0.5149940000000  0.3919430000000 1.0
C      1  0.4852340000000  0.5541830000000  0.4098230000000 1.0
C      1  0.5149440000000  0.5901690000000  0.4668610000000 1.0
C      1  0.4924670000000  0.5439970000000  0.5331900000000 1.0
C      1  0.4776600000000  0.5016090000000  0.6075720000000 1.0
C      1  0.5435640000000  0.5977200000000  0.4652410000000 1.0
C      1  0.5126530000000  0.3882260000000  0.5123690000000 1.0
C      1  0.4604750000000  0.5060310000000  0.5477410000000 1.0
C      1  0.4385680000000  0.5537330000000  0.5530180000000 1.0
C      1  0.4667880000000  0.5874490000000  0.5458390000000 1.0
C      1  0.5085010000000  0.4958750000000  0.5449570000000 1.0
C      1  0.4367670000000  0.4894100000000  0.4635010000000 1.0
C      1  0.4307010000000  0.5017660000000  0.6013780000000 1.0
C      1  0.4595820000000  0.5441500000000  0.4009320000000 1.0
C      1  0.5369730000000  0.5861810000000  0.5110390000000 1.0
C      1  0.4852920000000  0.4188630000000  0.5828260000000 1.0
C      1  0.4422230000000  0.5368460000000  0.4738770000000 1.0
C      1  0.4242690000000  0.4381380000000  0.5214540000000 1.0
C      1  0.4810080000000  0.4023380000000  0.4699940000000 1.0
C      1  0.4177760000000  0.5417050000000  0.5684020000000 1.0
C      1  0.5224010000000  0.4785760000000  0.3774800000000 1.0
C      1  0.5239140000000  0.5233660000000  0.4307270000000 1.0
C      1  0.5321080000000  0.5700820000000  0.5333750000000 1.0
C      1  0.5617350000000  0.5073690000000  0.5620760000000 1.0
C      1  0.4484660000000  0.4654960000000  0.4243460000000 1.0
END
