TITL C-950532-2784-620 4.79001164716085e-07 125000 -154.779792372701 0 0 27 (C1) n - 1
REM
REM in /home/bkarasulu/work/CARBON/AIRSS/Generating-Clusters/EDIP-Nigel-Params/with-SteepDescent/Only-C1/SD-CG/HFTN-CG
REM
REM
REM
REM
REM
REM ./C.cell (11c1c37f851c82e70ff6c80c92926a4b)
REM
REM compiler GCC version 9.2.1 20190827 (Red Hat 9.2.1-1)
REM options -cpp -mtune=generic -march=x86-64 -g -O0 -fpre-include=/usr/include/finclude/math-vector-fortran.h
REM seed 154372266 82782735 -68406128 41989699 1568548367 -2037162683 -1306881263 1549285179 1613913896 -2010700488 1794836820 2126770644 -969452255 -667041357 444254932 -1848512761 2146921118 45132954 1019686263 -1332984539 -1355167586 76237786 1712489124 -10941283 -2024953330 64126013 576469061 214601825 -7396290 -1295675281 -1911660952 1250569687 -967553958
REM
CELL 1.54180   50.00000   50.00000   50.00000   90.00000   90.00000   90.00000
LATT -1
SFAC C  
C      1  0.4841760000000  0.4770190000000  0.4834830000000 1.0
C      1  0.4602190000000  0.4848300000000  0.4686400000000 1.0
C      1  0.4341950000000  0.4847980000000  0.4809490000000 1.0
C      1  0.5340520000000  0.5474940000000  0.5469610000000 1.0
C      1  0.5129340000000  0.5281880000000  0.5547270000000 1.0
C      1  0.4976210000000  0.4932830000000  0.5030850000000 1.0
C      1  0.5245910000000  0.5012540000000  0.5494910000000 1.0
C      1  0.5348930000000  0.4921360000000  0.5743380000000 1.0
C      1  0.5410530000000  0.4826320000000  0.4796120000000 1.0
C      1  0.5448210000000  0.4752240000000  0.4540470000000 1.0
C      1  0.4130100000000  0.5025320000000  0.4745250000000 1.0
C      1  0.4244480000000  0.5045030000000  0.4988740000000 1.0
C      1  0.5344200000000  0.4679850000000  0.4302850000000 1.0
C      1  0.5097560000000  0.4629360000000  0.4198550000000 1.0
C      1  0.4498590000000  0.4797920000000  0.4206420000000 1.0
C      1  0.5269220000000  0.4945480000000  0.5006820000000 1.0
C      1  0.4986750000000  0.5516780000000  0.5179530000000 1.0
C      1  0.5073030000000  0.5285510000000  0.5835610000000 1.0
C      1  0.5414640000000  0.5047080000000  0.5247070000000 1.0
C      1  0.4836290000000  0.5081510000000  0.5221930000000 1.0
C      1  0.5251450000000  0.5506350000000  0.5092290000000 1.0
C      1  0.5222630000000  0.5075940000000  0.5931610000000 1.0
C      1  0.4643670000000  0.4740050000000  0.4420600000000 1.0
C      1  0.5462870000000  0.5352700000000  0.5231500000000 1.0
C      1  0.4916590000000  0.4649960000000  0.4411930000000 1.0
C      1  0.5024670000000  0.4634110000000  0.4669150000000 1.0
C      1  0.4897710000000  0.5318470000000  0.5356810000000 1.0
END
