TITL C-951336-9012-56 6.55685886146789e-07 125000 -1215.29225777471 0 0 194 (C1) n - 1
REM
REM in /home/bkarasulu/work/CARBON/AIRSS/Generating-Clusters/EDIP-Nigel-Params/with-SteepDescent/Only-C1/SD-CG/HFTN-CG
REM
REM
REM
REM
REM
REM ./C.cell (11c1c37f851c82e70ff6c80c92926a4b)
REM
REM compiler GCC version 9.2.1 20190827 (Red Hat 9.2.1-1)
REM options -cpp -mtune=generic -march=x86-64 -g -O0 -fpre-include=/usr/include/finclude/math-vector-fortran.h
REM seed -1285764912 -35095396 866798361 -1979286037 -1086289264 -821636564 1375535996 107367692 1603400027 -1180028221 -829510456 279779522 -223783885 1332668148 800788996 -975834928 -1748288998 -1267483318 2051080859 1251847428 398373744 1712831293 1837080353 1737332965 -181567247 585082769 689990270 168592851 -1155430519 410192896 -137522545 -700937470 1918498053
REM
CELL 1.54180   50.00000   50.00000   50.00000   90.00000   90.00000   90.00000
LATT -1
SFAC C  
C      1  0.5581810000000  0.4646160000000  0.4118280000000 1.0
C      1  0.4045490000000  0.5056680000000  0.5690770000000 1.0
C      1  0.5947470000000  0.5578220000000  0.5162610000000 1.0
C      1  0.4601740000000  0.4560860000000  0.5937510000000 1.0
C      1  0.5272700000000  0.4623680000000  0.6237750000000 1.0
C      1  0.5518750000000  0.5354230000000  0.5816050000000 1.0
C      1  0.5561390000000  0.4986880000000  0.4930340000000 1.0
C      1  0.3824930000000  0.5334220000000  0.4840560000000 1.0
C      1  0.6094700000000  0.5005090000000  0.4721750000000 1.0
C      1  0.4748140000000  0.4313000000000  0.4049550000000 1.0
C      1  0.5401670000000  0.6072290000000  0.4929680000000 1.0
C      1  0.5099510000000  0.4865380000000  0.4857910000000 1.0
C      1  0.3788080000000  0.4847330000000  0.4812960000000 1.0
C      1  0.5935570000000  0.5189810000000  0.4247130000000 1.0
C      1  0.4220860000000  0.4978420000000  0.4395990000000 1.0
C      1  0.4150490000000  0.4480970000000  0.4516880000000 1.0
C      1  0.4656910000000  0.4097960000000  0.5674310000000 1.0
C      1  0.5413610000000  0.4034710000000  0.5358580000000 1.0
C      1  0.5595420000000  0.5070530000000  0.4633450000000 1.0
C      1  0.4779230000000  0.5008840000000  0.5202170000000 1.0
C      1  0.5400780000000  0.4860420000000  0.6155270000000 1.0
C      1  0.4954410000000  0.3948960000000  0.4778150000000 1.0
C      1  0.4225460000000  0.5779410000000  0.4969130000000 1.0
C      1  0.5284700000000  0.5484170000000  0.5979340000000 1.0
C      1  0.4481410000000  0.5933410000000  0.4873480000000 1.0
C      1  0.3903910000000  0.4602910000000  0.4928690000000 1.0
C      1  0.5619580000000  0.5269310000000  0.5317010000000 1.0
C      1  0.6221680000000  0.4815860000000  0.5148460000000 1.0
C      1  0.5968770000000  0.5151780000000  0.5747520000000 1.0
C      1  0.4455950000000  0.4096890000000  0.4483350000000 1.0
C      1  0.4228180000000  0.4186850000000  0.4925900000000 1.0
C      1  0.5488630000000  0.5250250000000  0.5062390000000 1.0
C      1  0.4802140000000  0.5162530000000  0.5664000000000 1.0
C      1  0.4197340000000  0.4600440000000  0.5167100000000 1.0
C      1  0.4585360000000  0.4860160000000  0.5975320000000 1.0
C      1  0.4961590000000  0.6050450000000  0.5180540000000 1.0
C      1  0.4292540000000  0.4885700000000  0.5236780000000 1.0
C      1  0.4960400000000  0.6007190000000  0.4739770000000 1.0
C      1  0.4471220000000  0.4788540000000  0.4807360000000 1.0
C      1  0.5198760000000  0.5429430000000  0.5506290000000 1.0
C      1  0.5969130000000  0.5690690000000  0.5417240000000 1.0
C      1  0.4265470000000  0.5626290000000  0.4561130000000 1.0
C      1  0.4919560000000  0.4283360000000  0.4300420000000 1.0
C      1  0.4381750000000  0.4355580000000  0.4389770000000 1.0
C      1  0.5764490000000  0.4628030000000  0.5322700000000 1.0
C      1  0.4335420000000  0.4120550000000  0.5221880000000 1.0
C      1  0.3719110000000  0.5089150000000  0.4950710000000 1.0
C      1  0.5064520000000  0.3909610000000  0.5475660000000 1.0
C      1  0.5123740000000  0.5090350000000  0.3955670000000 1.0
C      1  0.4150870000000  0.4709780000000  0.5643760000000 1.0
C      1  0.5788840000000  0.4846010000000  0.5069500000000 1.0
C      1  0.3902830000000  0.5167710000000  0.5448670000000 1.0
C      1  0.4259000000000  0.5059300000000  0.4108020000000 1.0
C      1  0.5436410000000  0.4467570000000  0.5007130000000 1.0
C      1  0.5340500000000  0.3999220000000  0.4276660000000 1.0
C      1  0.4440760000000  0.4048970000000  0.4767060000000 1.0
C      1  0.4827600000000  0.4754350000000  0.5386130000000 1.0
C      1  0.4148060000000  0.5610740000000  0.5477600000000 1.0
C      1  0.4527990000000  0.5016170000000  0.5734630000000 1.0
C      1  0.3932170000000  0.5239520000000  0.4579000000000 1.0
C      1  0.5172110000000  0.4296610000000  0.5016780000000 1.0
C      1  0.5064170000000  0.4018520000000  0.4301470000000 1.0
C      1  0.4677100000000  0.5970830000000  0.5103590000000 1.0
C      1  0.5489120000000  0.5496680000000  0.5542130000000 1.0
C      1  0.5237870000000  0.4519590000000  0.4564920000000 1.0
C      1  0.5388630000000  0.4169980000000  0.5758160000000 1.0
C      1  0.5023910000000  0.4596470000000  0.5529990000000 1.0
C      1  0.4117030000000  0.5409190000000  0.4423250000000 1.0
C      1  0.5479710000000  0.4037220000000  0.4768040000000 1.0
C      1  0.5529380000000  0.4480720000000  0.4574910000000 1.0
C      1  0.5089050000000  0.4555140000000  0.4318190000000 1.0
C      1  0.5611360000000  0.4316080000000  0.4808290000000 1.0
C      1  0.5090940000000  0.5672100000000  0.4087400000000 1.0
C      1  0.4044550000000  0.4727510000000  0.4391190000000 1.0
C      1  0.4088230000000  0.4504620000000  0.5435870000000 1.0
C      1  0.5352650000000  0.4784290000000  0.5007520000000 1.0
C      1  0.5119730000000  0.4108420000000  0.5680150000000 1.0
C      1  0.4996220000000  0.5077030000000  0.5020830000000 1.0
C      1  0.3994800000000  0.5517630000000  0.5039450000000 1.0
C      1  0.5959840000000  0.4653400000000  0.4385890000000 1.0
C      1  0.4339490000000  0.5465410000000  0.5653670000000 1.0
C      1  0.5474000000000  0.3942010000000  0.4504520000000 1.0
C      1  0.4486240000000  0.4909760000000  0.4538670000000 1.0
C      1  0.4679340000000  0.5132290000000  0.4567020000000 1.0
C      1  0.4812020000000  0.5417750000000  0.5831170000000 1.0
C      1  0.4625670000000  0.4542460000000  0.4859210000000 1.0
C      1  0.4070080000000  0.5078250000000  0.5219810000000 1.0
C      1  0.6186410000000  0.4873200000000  0.5433810000000 1.0
C      1  0.4767160000000  0.6171250000000  0.4450920000000 1.0
C      1  0.4772640000000  0.3963820000000  0.5439200000000 1.0
C      1  0.5123380000000  0.4660100000000  0.3847160000000 1.0
C      1  0.4802910000000  0.5527110000000  0.5285920000000 1.0
C      1  0.5128690000000  0.5003190000000  0.5780040000000 1.0
C      1  0.4513210000000  0.4366220000000  0.5665580000000 1.0
C      1  0.5159360000000  0.5845570000000  0.5660690000000 1.0
C      1  0.4941280000000  0.5714780000000  0.4741700000000 1.0
C      1  0.4585910000000  0.5594380000000  0.5740360000000 1.0
C      1  0.4842450000000  0.5790050000000  0.4244740000000 1.0
C      1  0.5681700000000  0.5324960000000  0.4168670000000 1.0
C      1  0.4688920000000  0.5779240000000  0.5551030000000 1.0
C      1  0.4187840000000  0.5302630000000  0.5094710000000 1.0
C      1  0.5433560000000  0.5070150000000  0.5728280000000 1.0
C      1  0.4762140000000  0.5018200000000  0.6149640000000 1.0
C      1  0.4966320000000  0.3864330000000  0.4511180000000 1.0
C      1  0.5736500000000  0.5833160000000  0.4693330000000 1.0
C      1  0.6031790000000  0.5006140000000  0.5024420000000 1.0
C      1  0.5140000000000  0.5017970000000  0.6086050000000 1.0
C      1  0.4410350000000  0.5248460000000  0.4943470000000 1.0
C      1  0.4691310000000  0.3995650000000  0.4914160000000 1.0
C      1  0.3857720000000  0.4937750000000  0.4539140000000 1.0
C      1  0.4534020000000  0.5005330000000  0.4003860000000 1.0
C      1  0.4507320000000  0.4983200000000  0.5036460000000 1.0
C      1  0.5051580000000  0.5422650000000  0.4386360000000 1.0
C      1  0.5213910000000  0.4028990000000  0.4907490000000 1.0
C      1  0.5111360000000  0.6146010000000  0.4949540000000 1.0
C      1  0.5719120000000  0.4097030000000  0.5370600000000 1.0
C      1  0.4669070000000  0.5274350000000  0.3986950000000 1.0
C      1  0.6109920000000  0.5164720000000  0.5484420000000 1.0
C      1  0.4826330000000  0.4473760000000  0.6079300000000 1.0
C      1  0.5133040000000  0.5314820000000  0.6170750000000 1.0
C      1  0.5266430000000  0.4975680000000  0.4187090000000 1.0
C      1  0.5059770000000  0.6140520000000  0.4393480000000 1.0
C      1  0.5570780000000  0.4846230000000  0.5884850000000 1.0
C      1  0.4952490000000  0.4333180000000  0.5600720000000 1.0
C      1  0.5525750000000  0.5889490000000  0.5119920000000 1.0
C      1  0.5935170000000  0.5274730000000  0.5244510000000 1.0
C      1  0.5514880000000  0.5100020000000  0.4161570000000 1.0
C      1  0.4513890000000  0.5493860000000  0.4826030000000 1.0
C      1  0.4759500000000  0.4297440000000  0.4605560000000 1.0
C      1  0.4072450000000  0.4408790000000  0.4790970000000 1.0
C      1  0.5490640000000  0.6000580000000  0.4658560000000 1.0
C      1  0.5085240000000  0.4570130000000  0.6035790000000 1.0
C      1  0.5795630000000  0.5687250000000  0.4462550000000 1.0
C      1  0.5279350000000  0.4684310000000  0.4107210000000 1.0
C      1  0.4552480000000  0.5746130000000  0.4166230000000 1.0
C      1  0.4784720000000  0.5568020000000  0.4956750000000 1.0
C      1  0.5648160000000  0.4137550000000  0.5654670000000 1.0
C      1  0.4848180000000  0.4747340000000  0.4339470000000 1.0
C      1  0.5899720000000  0.4327920000000  0.4936730000000 1.0
C      1  0.5342090000000  0.5722170000000  0.4262730000000 1.0
C      1  0.4227890000000  0.5348280000000  0.4157710000000 1.0
C      1  0.5467590000000  0.5806400000000  0.5618580000000 1.0
C      1  0.4628850000000  0.4049080000000  0.5195780000000 1.0
C      1  0.4277220000000  0.5775250000000  0.5267500000000 1.0
C      1  0.5575810000000  0.5527900000000  0.4366930000000 1.0
C      1  0.4844290000000  0.5600110000000  0.4485150000000 1.0
C      1  0.6098300000000  0.4712840000000  0.4657680000000 1.0
C      1  0.5040200000000  0.4413890000000  0.4763800000000 1.0
C      1  0.5336090000000  0.4823410000000  0.5311730000000 1.0
C      1  0.4902730000000  0.5011110000000  0.4428000000000 1.0
C      1  0.4406260000000  0.4818130000000  0.5518000000000 1.0
C      1  0.5163450000000  0.5005970000000  0.4561180000000 1.0
C      1  0.4595310000000  0.5424300000000  0.4535660000000 1.0
C      1  0.5507070000000  0.5027080000000  0.5445720000000 1.0
C      1  0.5871060000000  0.5057760000000  0.4521280000000 1.0
C      1  0.4256740000000  0.4272110000000  0.5487980000000 1.0
C      1  0.5962840000000  0.4711340000000  0.5554110000000 1.0
C      1  0.5890610000000  0.4875860000000  0.4178310000000 1.0
C      1  0.5158840000000  0.4691280000000  0.5769740000000 1.0
C      1  0.3900310000000  0.5476420000000  0.5379750000000 1.0
C      1  0.5448410000000  0.4610020000000  0.5737010000000 1.0
C      1  0.4762400000000  0.5240940000000  0.5381100000000 1.0
C      1  0.4662000000000  0.4730980000000  0.4103790000000 1.0
C      1  0.4824520000000  0.5314340000000  0.6120700000000 1.0
C      1  0.4912390000000  0.4634240000000  0.4886410000000 1.0
C      1  0.4385570000000  0.5846150000000  0.4396130000000 1.0
C      1  0.5820600000000  0.5396480000000  0.5824090000000 1.0
C      1  0.5808030000000  0.4342810000000  0.5218730000000 1.0
C      1  0.4869930000000  0.4514910000000  0.3864080000000 1.0
C      1  0.6078930000000  0.4557410000000  0.4903980000000 1.0
C      1  0.5519670000000  0.5970690000000  0.5389650000000 1.0
C      1  0.5484910000000  0.5351490000000  0.4616790000000 1.0
C      1  0.5089260000000  0.5558990000000  0.5760680000000 1.0
C      1  0.5148100000000  0.5861650000000  0.5336910000000 1.0
C      1  0.5546110000000  0.5464380000000  0.4885070000000 1.0
C      1  0.5282780000000  0.5945380000000  0.4449400000000 1.0
C      1  0.4537910000000  0.5873190000000  0.5331350000000 1.0
C      1  0.4489460000000  0.4465810000000  0.5142690000000 1.0
C      1  0.5288970000000  0.4311520000000  0.5328160000000 1.0
C      1  0.4490260000000  0.4452070000000  0.4134160000000 1.0
C      1  0.5866460000000  0.4872650000000  0.5794730000000 1.0
C      1  0.4290760000000  0.5203270000000  0.5772160000000 1.0
C      1  0.5083330000000  0.4916050000000  0.3738840000000 1.0
C      1  0.5713210000000  0.5696050000000  0.4975170000000 1.0
C      1  0.5700380000000  0.4515120000000  0.4345730000000 1.0
C      1  0.4592420000000  0.4580200000000  0.5422800000000 1.0
C      1  0.5191960000000  0.5299460000000  0.4628360000000 1.0
C      1  0.4959620000000  0.5319720000000  0.4028580000000 1.0
C      1  0.4550540000000  0.6001780000000  0.4583270000000 1.0
C      1  0.5916420000000  0.5612390000000  0.5670820000000 1.0
C      1  0.5074650000000  0.5349070000000  0.4940110000000 1.0
C      1  0.5101230000000  0.5563250000000  0.5265070000000 1.0
C      1  0.4491160000000  0.5462610000000  0.4112970000000 1.0
C      1  0.5468920000000  0.4583050000000  0.5435090000000 1.0
END
