TITL C-951333-8791-491 -1.38835887553339e-06 125000 -228.123930157936 0 0 39 (C1) n - 1
REM
REM in /home/bkarasulu/work/CARBON/AIRSS/Generating-Clusters/EDIP-Nigel-Params/with-SteepDescent/Only-C1/SD-CG/HFTN-CG
REM
REM
REM
REM
REM
REM ./C.cell (11c1c37f851c82e70ff6c80c92926a4b)
REM
REM compiler GCC version 9.2.1 20190827 (Red Hat 9.2.1-1)
REM options -cpp -mtune=generic -march=x86-64 -g -O0 -fpre-include=/usr/include/finclude/math-vector-fortran.h
REM seed 981319838 -956575044 1652868660 1270610960 -1177006790 -890500891 23967715 1802565118 1791946047 185207798 915459315 -830371259 70023655 1972308601 279118306 1647860385 64142929 -408151680 2028236361 1580915177 8791896 -195544507 686938080 516810981 1828285264 -1751412415 -1290549811 -288452834 841330696 -1402960332 2067515390 1572487359 1224512826
REM
CELL 1.54180   50.00000   50.00000   50.00000   90.00000   90.00000   90.00000
LATT -1
SFAC C  
C      1  0.5056540000000  0.5072750000000  0.4546300000000 1.0
C      1  0.4900390000000  0.5329860000000  0.5028270000000 1.0
C      1  0.5428580000000  0.5188070000000  0.5419630000000 1.0
C      1  0.4316660000000  0.5057800000000  0.4763440000000 1.0
C      1  0.5621080000000  0.5467760000000  0.4916220000000 1.0
C      1  0.5315780000000  0.5224410000000  0.5024080000000 1.0
C      1  0.4942050000000  0.5384580000000  0.5326140000000 1.0
C      1  0.4544940000000  0.5134280000000  0.5486030000000 1.0
C      1  0.4721570000000  0.4496800000000  0.4874050000000 1.0
C      1  0.4872980000000  0.4332380000000  0.5051830000000 1.0
C      1  0.5332640000000  0.4921300000000  0.4996990000000 1.0
C      1  0.5516090000000  0.4843100000000  0.5212070000000 1.0
C      1  0.5348010000000  0.5036380000000  0.4499470000000 1.0
C      1  0.4482320000000  0.5148970000000  0.4983160000000 1.0
C      1  0.5562910000000  0.4936420000000  0.5463570000000 1.0
C      1  0.4887740000000  0.4607030000000  0.5451350000000 1.0
C      1  0.4536980000000  0.4709680000000  0.4959210000000 1.0
C      1  0.5128670000000  0.4472130000000  0.5040350000000 1.0
C      1  0.4636660000000  0.5400020000000  0.4913910000000 1.0
C      1  0.5486560000000  0.5281630000000  0.4495550000000 1.0
C      1  0.5446690000000  0.5479430000000  0.4690600000000 1.0
C      1  0.5370190000000  0.4562610000000  0.4754730000000 1.0
C      1  0.4649170000000  0.4766350000000  0.5466060000000 1.0
C      1  0.4698940000000  0.5363260000000  0.5460640000000 1.0
C      1  0.4356580000000  0.4791260000000  0.4759340000000 1.0
C      1  0.5120600000000  0.5165070000000  0.5416460000000 1.0
C      1  0.5551360000000  0.5361280000000  0.5177900000000 1.0
C      1  0.5013020000000  0.4890430000000  0.4779040000000 1.0
C      1  0.5123150000000  0.4653580000000  0.5278750000000 1.0
C      1  0.4383930000000  0.5054990000000  0.5258940000000 1.0
C      1  0.5138520000000  0.4444880000000  0.4650730000000 1.0
C      1  0.4847760000000  0.5018650000000  0.5002720000000 1.0
C      1  0.4988450000000  0.4936040000000  0.5265700000000 1.0
C      1  0.4912470000000  0.4616060000000  0.4682630000000 1.0
C      1  0.4460080000000  0.4770530000000  0.5241240000000 1.0
C      1  0.5160460000000  0.5484730000000  0.4777720000000 1.0
C      1  0.4972820000000  0.5360000000000  0.4587990000000 1.0
C      1  0.5468130000000  0.4818580000000  0.4657450000000 1.0
C      1  0.4698530000000  0.5416930000000  0.4639750000000 1.0
END
