TITL C-950535-5962-632 -4.88534910095421e-05 125000 -990.984877833173 0 0 159 (C1) n - 1
REM
REM in /home/bkarasulu/work/CARBON/AIRSS/Generating-Clusters/EDIP-Nigel-Params/with-SteepDescent/Only-C1/SD-CG/HFTN-CG
REM
REM
REM
REM
REM
REM ./C.cell (11c1c37f851c82e70ff6c80c92926a4b)
REM
REM compiler GCC version 9.2.1 20190827 (Red Hat 9.2.1-1)
REM options -cpp -mtune=generic -march=x86-64 -g -O0 -fpre-include=/usr/include/finclude/math-vector-fortran.h
REM seed 33567651 -1808569728 2080241074 -597752222 1623587008 644434358 -1344737171 -83750758 -2030580586 -2019184847 -333390307 1814339498 1258410383 401424537 -205015273 539041683 132434290 1961544997 -712420522 415271144 -504492917 -1990806917 -1190102335 -1438087340 535382494 -2063281570 2120834558 -1110144226 -1883438151 1036398017 333764038 -1412426369 -1910728261
REM
CELL 1.54180   50.00000   50.00000   50.00000   90.00000   90.00000   90.00000
LATT -1
SFAC C  
C      1  0.4655740000000  0.5632670000000  0.5623860000000 1.0
C      1  0.4730940000000  0.4738420000000  0.4080920000000 1.0
C      1  0.3973220000000  0.4727350000000  0.5039790000000 1.0
C      1  0.5618550000000  0.5024610000000  0.4093360000000 1.0
C      1  0.4922700000000  0.5024420000000  0.5711890000000 1.0
C      1  0.4228650000000  0.5672520000000  0.4386530000000 1.0
C      1  0.5043590000000  0.5023740000000  0.4551000000000 1.0
C      1  0.4594640000000  0.4682520000000  0.4358600000000 1.0
C      1  0.4182260000000  0.4535270000000  0.4418460000000 1.0
C      1  0.5528880000000  0.4422410000000  0.5130120000000 1.0
C      1  0.5204750000000  0.4022690000000  0.5034100000000 1.0
C      1  0.4073880000000  0.5625080000000  0.4618240000000 1.0
C      1  0.4140290000000  0.4829050000000  0.4375930000000 1.0
C      1  0.5584450000000  0.4782390000000  0.4256390000000 1.0
C      1  0.5052700000000  0.5809500000000  0.5869610000000 1.0
C      1  0.5949640000000  0.5461320000000  0.4666570000000 1.0
C      1  0.5188860000000  0.5474060000000  0.4669300000000 1.0
C      1  0.5507530000000  0.5812950000000  0.5225760000000 1.0
C      1  0.5104010000000  0.5800590000000  0.4935980000000 1.0
C      1  0.4279740000000  0.4952680000000  0.5626630000000 1.0
C      1  0.4583480000000  0.5290770000000  0.5255370000000 1.0
C      1  0.5320670000000  0.5137850000000  0.4969220000000 1.0
C      1  0.4116380000000  0.5656720000000  0.4898260000000 1.0
C      1  0.4938930000000  0.4525490000000  0.4013140000000 1.0
C      1  0.4455940000000  0.5842180000000  0.4402410000000 1.0
C      1  0.5805140000000  0.5145670000000  0.4373190000000 1.0
C      1  0.3979920000000  0.4731790000000  0.5320850000000 1.0
C      1  0.5219790000000  0.4851090000000  0.5346000000000 1.0
C      1  0.4704760000000  0.4553670000000  0.5738750000000 1.0
C      1  0.4310360000000  0.4423810000000  0.5491270000000 1.0
C      1  0.5045930000000  0.5894930000000  0.5411000000000 1.0
C      1  0.5100840000000  0.4967200000000  0.4846220000000 1.0
C      1  0.5456970000000  0.4367470000000  0.5629240000000 1.0
C      1  0.5442260000000  0.4563340000000  0.4129000000000 1.0
C      1  0.4884840000000  0.5737360000000  0.4158510000000 1.0
C      1  0.4702080000000  0.3961240000000  0.5021960000000 1.0
C      1  0.5264570000000  0.5260700000000  0.5704370000000 1.0
C      1  0.4476920000000  0.4290930000000  0.4758730000000 1.0
C      1  0.4708620000000  0.5948510000000  0.5126900000000 1.0
C      1  0.4799270000000  0.5727030000000  0.4538900000000 1.0
C      1  0.5405200000000  0.4315630000000  0.4267270000000 1.0
C      1  0.5406880000000  0.5627370000000  0.4270610000000 1.0
C      1  0.5894750000000  0.4807690000000  0.5032000000000 1.0
C      1  0.6011070000000  0.5001320000000  0.4548530000000 1.0
C      1  0.5869930000000  0.5435240000000  0.4386500000000 1.0
C      1  0.5168230000000  0.5170900000000  0.6151820000000 1.0
C      1  0.4470080000000  0.5795290000000  0.5174520000000 1.0
C      1  0.4723990000000  0.6073170000000  0.4872960000000 1.0
C      1  0.4933530000000  0.5770000000000  0.5181590000000 1.0
C      1  0.5110650000000  0.4774640000000  0.4375880000000 1.0
C      1  0.4814450000000  0.4800820000000  0.6138330000000 1.0
C      1  0.4445150000000  0.4793270000000  0.4700410000000 1.0
C      1  0.5521610000000  0.5067620000000  0.4519490000000 1.0
C      1  0.4092660000000  0.4263770000000  0.5076300000000 1.0
C      1  0.5304900000000  0.5722720000000  0.4536160000000 1.0
C      1  0.5568400000000  0.4098710000000  0.4693700000000 1.0
C      1  0.4191990000000  0.5172690000000  0.4979080000000 1.0
C      1  0.5177890000000  0.4701700000000  0.4086640000000 1.0
C      1  0.5362530000000  0.5949840000000  0.4979870000000 1.0
C      1  0.6009250000000  0.5090710000000  0.5043530000000 1.0
C      1  0.5240510000000  0.5376020000000  0.4200480000000 1.0
C      1  0.4478360000000  0.5556580000000  0.5370020000000 1.0
C      1  0.5400000000000  0.5074360000000  0.5258900000000 1.0
C      1  0.5858340000000  0.4501730000000  0.5401510000000 1.0
C      1  0.4553850000000  0.5444550000000  0.4842460000000 1.0
C      1  0.4960670000000  0.4025440000000  0.4877630000000 1.0
C      1  0.5232940000000  0.4600870000000  0.5186160000000 1.0
C      1  0.4629130000000  0.5843610000000  0.4183570000000 1.0
C      1  0.5053280000000  0.4657680000000  0.6035960000000 1.0
C      1  0.5173930000000  0.4468470000000  0.5619080000000 1.0
C      1  0.5617780000000  0.4808550000000  0.4935060000000 1.0
C      1  0.4868960000000  0.5850930000000  0.5640000000000 1.0
C      1  0.4924230000000  0.5561860000000  0.5971170000000 1.0
C      1  0.4708470000000  0.4713650000000  0.5384720000000 1.0
C      1  0.5282870000000  0.5442850000000  0.4964670000000 1.0
C      1  0.4777290000000  0.4410600000000  0.5304200000000 1.0
C      1  0.5079590000000  0.4389140000000  0.5347310000000 1.0
C      1  0.5043040000000  0.5420470000000  0.5315840000000 1.0
C      1  0.5774300000000  0.4528920000000  0.4567900000000 1.0
C      1  0.4628430000000  0.4807600000000  0.4921020000000 1.0
C      1  0.4950540000000  0.5462810000000  0.4126970000000 1.0
C      1  0.4529530000000  0.4045060000000  0.5262320000000 1.0
C      1  0.4666740000000  0.4122460000000  0.5510600000000 1.0
C      1  0.4857190000000  0.5005430000000  0.4025620000000 1.0
C      1  0.5506120000000  0.5862850000000  0.4723170000000 1.0
C      1  0.4013680000000  0.4938520000000  0.4600870000000 1.0
C      1  0.5149510000000  0.4968050000000  0.3940480000000 1.0
C      1  0.4638500000000  0.5513370000000  0.5897460000000 1.0
C      1  0.4926540000000  0.4277510000000  0.4152320000000 1.0
C      1  0.4485340000000  0.5055880000000  0.4543160000000 1.0
C      1  0.5727990000000  0.5035210000000  0.5296040000000 1.0
C      1  0.4274260000000  0.4514420000000  0.4709340000000 1.0
C      1  0.4425440000000  0.4436380000000  0.4287880000000 1.0
C      1  0.5829640000000  0.4260890000000  0.4691950000000 1.0
C      1  0.5486670000000  0.4211340000000  0.5375460000000 1.0
C      1  0.4562920000000  0.4232300000000  0.4471550000000 1.0
C      1  0.4776300000000  0.5172940000000  0.4520340000000 1.0
C      1  0.4973990000000  0.5335220000000  0.5688850000000 1.0
C      1  0.4931810000000  0.4934450000000  0.5417610000000 1.0
C      1  0.4495270000000  0.4985440000000  0.5826060000000 1.0
C      1  0.4058540000000  0.5424240000000  0.5093260000000 1.0
C      1  0.5341380000000  0.4146430000000  0.4490970000000 1.0
C      1  0.5465590000000  0.5114130000000  0.6111030000000 1.0
C      1  0.4411550000000  0.5702210000000  0.4904940000000 1.0
C      1  0.5954280000000  0.4534310000000  0.5144580000000 1.0
C      1  0.5367230000000  0.5763780000000  0.5763110000000 1.0
C      1  0.4178460000000  0.5450460000000  0.5382880000000 1.0
C      1  0.4735170000000  0.5260690000000  0.4088670000000 1.0
C      1  0.4174290000000  0.4692110000000  0.5518470000000 1.0
C      1  0.4807630000000  0.4592350000000  0.4863240000000 1.0
C      1  0.5534510000000  0.4860080000000  0.5985680000000 1.0
C      1  0.4052350000000  0.4482590000000  0.4907690000000 1.0
C      1  0.5554850000000  0.5559720000000  0.5063360000000 1.0
C      1  0.5678940000000  0.4558100000000  0.5607940000000 1.0
C      1  0.5351100000000  0.5483290000000  0.5889970000000 1.0
C      1  0.4842760000000  0.4141130000000  0.4384570000000 1.0
C      1  0.5315140000000  0.5316350000000  0.5412890000000 1.0
C      1  0.4596500000000  0.4741380000000  0.5940640000000 1.0
C      1  0.5909920000000  0.4325480000000  0.4960520000000 1.0
C      1  0.4697060000000  0.4348430000000  0.4991340000000 1.0
C      1  0.5547830000000  0.4581600000000  0.4765240000000 1.0
C      1  0.4439500000000  0.5247100000000  0.4150410000000 1.0
C      1  0.5784620000000  0.5043270000000  0.5594640000000 1.0
C      1  0.5817440000000  0.5550870000000  0.5593690000000 1.0
C      1  0.4319660000000  0.4986370000000  0.4199590000000 1.0
C      1  0.5410530000000  0.4204990000000  0.4924120000000 1.0
C      1  0.4651330000000  0.5209950000000  0.5953920000000 1.0
C      1  0.5049040000000  0.4087350000000  0.4586790000000 1.0
C      1  0.5683510000000  0.5607090000000  0.4276310000000 1.0
C      1  0.4513490000000  0.4817280000000  0.5180110000000 1.0
C      1  0.5254680000000  0.5233420000000  0.4479680000000 1.0
C      1  0.5295730000000  0.5752200000000  0.5451440000000 1.0
C      1  0.4791180000000  0.4534980000000  0.4564750000000 1.0
C      1  0.4279130000000  0.5466180000000  0.4209580000000 1.0
C      1  0.4976220000000  0.4466330000000  0.5829870000000 1.0
C      1  0.4916410000000  0.5924760000000  0.4734200000000 1.0
C      1  0.5698700000000  0.5662160000000  0.4832610000000 1.0
C      1  0.4798590000000  0.5442870000000  0.4667110000000 1.0
C      1  0.4856700000000  0.5198740000000  0.5284610000000 1.0
C      1  0.5772260000000  0.5309830000000  0.5731460000000 1.0
C      1  0.5601250000000  0.5351590000000  0.5979140000000 1.0
C      1  0.4294060000000  0.4235300000000  0.5266790000000 1.0
C      1  0.4000750000000  0.4968790000000  0.4878650000000 1.0
C      1  0.5247130000000  0.4504800000000  0.4734730000000 1.0
C      1  0.5093740000000  0.4673620000000  0.4921150000000 1.0
C      1  0.5671920000000  0.4818070000000  0.5740000000000 1.0
C      1  0.6049660000000  0.5197340000000  0.4770040000000 1.0
C      1  0.5971970000000  0.4728960000000  0.4613830000000 1.0
C      1  0.5084930000000  0.4496700000000  0.4474820000000 1.0
C      1  0.5558000000000  0.5064860000000  0.4815230000000 1.0
C      1  0.4373000000000  0.5081210000000  0.5224570000000 1.0
C      1  0.5665950000000  0.5788190000000  0.5579400000000 1.0
C      1  0.5206610000000  0.4111970000000  0.5309840000000 1.0
C      1  0.5163020000000  0.4895540000000  0.5879930000000 1.0
C      1  0.4148430000000  0.5189060000000  0.5521990000000 1.0
C      1  0.4362230000000  0.5252430000000  0.4742630000000 1.0
C      1  0.4528350000000  0.4332910000000  0.5659880000000 1.0
C      1  0.5363360000000  0.5167980000000  0.4007950000000 1.0
C      1  0.4872070000000  0.5096660000000  0.6146330000000 1.0
END
