TITL C-950536-5891-46 -9.04212216914603e-07 125000 -214.727344522529 0 0 37 (C1) n - 1
REM
REM in /home/bkarasulu/work/CARBON/AIRSS/Generating-Clusters/EDIP-Nigel-Params/with-SteepDescent/Only-C1/SD-CG/HFTN-CG
REM
REM
REM
REM
REM
REM ./C.cell (11c1c37f851c82e70ff6c80c92926a4b)
REM
REM compiler GCC version 9.2.1 20190827 (Red Hat 9.2.1-1)
REM options -cpp -mtune=generic -march=x86-64 -g -O0 -fpre-include=/usr/include/finclude/math-vector-fortran.h
REM seed 2126954179 169949959 -235558278 828248209 495228592 1866606412 -95446780 -98958654 253686782 334158302 616419669 -493498794 -1000654319 232606539 2086533540 1657343011 926801759 -1784625660 819224741 -1381701379 -1209294789 -1881622392 1404037835 -958391938 -21344748 -1221082146 -761573721 -653418354 1889813883 -1016425766 1610269152 1018288022 974483546
REM
CELL 1.54180   50.00000   50.00000   50.00000   90.00000   90.00000   90.00000
LATT -1
SFAC C  
C      1  0.5152560000000  0.5132210000000  0.4590200000000 1.0
C      1  0.5308870000000  0.5018790000000  0.5513840000000 1.0
C      1  0.5513830000000  0.4897920000000  0.5367720000000 1.0
C      1  0.5374780000000  0.4704740000000  0.4691740000000 1.0
C      1  0.5095730000000  0.4879470000000  0.5031430000000 1.0
C      1  0.4548730000000  0.4931580000000  0.5303770000000 1.0
C      1  0.4723010000000  0.5144900000000  0.5317730000000 1.0
C      1  0.5327170000000  0.5612740000000  0.4851300000000 1.0
C      1  0.5064530000000  0.4470160000000  0.5273910000000 1.0
C      1  0.5051850000000  0.4336880000000  0.4743940000000 1.0
C      1  0.5417350000000  0.5406260000000  0.5233980000000 1.0
C      1  0.5434490000000  0.5356300000000  0.4942280000000 1.0
C      1  0.4719740000000  0.5640050000000  0.5156100000000 1.0
C      1  0.5121540000000  0.4835890000000  0.5610960000000 1.0
C      1  0.4831900000000  0.5720340000000  0.4903340000000 1.0
C      1  0.4863000000000  0.5344040000000  0.4949340000000 1.0
C      1  0.5139130000000  0.4888180000000  0.4725680000000 1.0
C      1  0.4834250000000  0.4491730000000  0.4845300000000 1.0
C      1  0.4574730000000  0.5136680000000  0.4696430000000 1.0
C      1  0.5069450000000  0.4584210000000  0.5529750000000 1.0
C      1  0.5056660000000  0.5599680000000  0.4731080000000 1.0
C      1  0.4336580000000  0.4633790000000  0.4950930000000 1.0
C      1  0.4991050000000  0.5145720000000  0.5169320000000 1.0
C      1  0.4635710000000  0.4668570000000  0.4567200000000 1.0
C      1  0.5556590000000  0.4824830000000  0.4884290000000 1.0
C      1  0.4469460000000  0.4516490000000  0.4741820000000 1.0
C      1  0.4593050000000  0.4940790000000  0.4503730000000 1.0
C      1  0.4376730000000  0.4778150000000  0.5170550000000 1.0
C      1  0.4910170000000  0.4644930000000  0.5091240000000 1.0
C      1  0.5202830000000  0.5250570000000  0.5363830000000 1.0
C      1  0.5305710000000  0.4436640000000  0.4824070000000 1.0
C      1  0.5327560000000  0.4491380000000  0.5130690000000 1.0
C      1  0.4612870000000  0.5401860000000  0.5263030000000 1.0
C      1  0.5004540000000  0.5363000000000  0.4535210000000 1.0
C      1  0.5388590000000  0.4789410000000  0.5126520000000 1.0
C      1  0.4721530000000  0.5303540000000  0.4529680000000 1.0
C      1  0.5343700000000  0.5677590000000  0.5138070000000 1.0
END
