TITL C-951343-2256-24 1.28672726972793e-06 125000 -472.050899275411 0 0 77 (C1) n - 1
REM
REM in /home/bkarasulu/work/CARBON/AIRSS/Generating-Clusters/EDIP-Nigel-Params/with-SteepDescent/Only-C1/SD-CG/HFTN-CG
REM
REM
REM
REM
REM
REM ./C.cell (11c1c37f851c82e70ff6c80c92926a4b)
REM
REM compiler GCC version 9.2.1 20190827 (Red Hat 9.2.1-1)
REM options -cpp -mtune=generic -march=x86-64 -g -O0 -fpre-include=/usr/include/finclude/math-vector-fortran.h
REM seed 410248435 -1399966984 -1441049202 1455842137 -1452185844 1665261323 1671399916 415857116 -1873459802 -647844782 133594650 1147296295 2144786767 38715844 694587880 -66724666 -469635833 -1022245250 618978072 -1052156867 -512398404 -433365485 -90680036 531167526 -1740097376 938153440 -671533080 -1453280724 -923512145 39098710 -423848842 -2065473557 -236127825
REM
CELL 1.54180   50.00000   50.00000   50.00000   90.00000   90.00000   90.00000
LATT -1
SFAC C  
C      1  0.5441280000000  0.4871240000000  0.5608750000000 1.0
C      1  0.4582130000000  0.4278360000000  0.5182560000000 1.0
C      1  0.4835030000000  0.4270620000000  0.4757190000000 1.0
C      1  0.5852670000000  0.5095190000000  0.4960660000000 1.0
C      1  0.4492470000000  0.5148800000000  0.4336640000000 1.0
C      1  0.4854630000000  0.4966700000000  0.4602830000000 1.0
C      1  0.5034960000000  0.4391050000000  0.4550650000000 1.0
C      1  0.5367280000000  0.4508120000000  0.4910700000000 1.0
C      1  0.5711390000000  0.5245830000000  0.5458980000000 1.0
C      1  0.5057090000000  0.5599700000000  0.4503500000000 1.0
C      1  0.4842690000000  0.4250330000000  0.5054910000000 1.0
C      1  0.5539550000000  0.5034970000000  0.5385540000000 1.0
C      1  0.4980240000000  0.5678950000000  0.5012380000000 1.0
C      1  0.4918790000000  0.4703710000000  0.4753620000000 1.0
C      1  0.5176430000000  0.4743640000000  0.4929410000000 1.0
C      1  0.5061730000000  0.4836770000000  0.5839880000000 1.0
C      1  0.5321550000000  0.5189050000000  0.4984040000000 1.0
C      1  0.4897430000000  0.4773900000000  0.5620330000000 1.0
C      1  0.4886040000000  0.4541960000000  0.4354420000000 1.0
C      1  0.4242680000000  0.4679180000000  0.4595060000000 1.0
C      1  0.5023860000000  0.5088940000000  0.4393120000000 1.0
C      1  0.4867250000000  0.5175970000000  0.4814120000000 1.0
C      1  0.5024860000000  0.4385680000000  0.5230880000000 1.0
C      1  0.5367910000000  0.5564140000000  0.5334730000000 1.0
C      1  0.4609460000000  0.5507110000000  0.4674870000000 1.0
C      1  0.4515400000000  0.4849210000000  0.5377800000000 1.0
C      1  0.5470440000000  0.5615540000000  0.4868620000000 1.0
C      1  0.5116440000000  0.5350770000000  0.4852980000000 1.0
C      1  0.5681240000000  0.4856380000000  0.4593780000000 1.0
C      1  0.4874730000000  0.4516360000000  0.5467050000000 1.0
C      1  0.5629360000000  0.4609980000000  0.5014860000000 1.0
C      1  0.4345010000000  0.4713330000000  0.4861310000000 1.0
C      1  0.4652420000000  0.4924820000000  0.5631070000000 1.0
C      1  0.5755140000000  0.4832070000000  0.4877230000000 1.0
C      1  0.5114370000000  0.4818510000000  0.5236110000000 1.0
C      1  0.5261380000000  0.5095300000000  0.5264510000000 1.0
C      1  0.4833460000000  0.5368750000000  0.5564740000000 1.0
C      1  0.4657040000000  0.4628630000000  0.4925570000000 1.0
C      1  0.4624350000000  0.4654400000000  0.4344120000000 1.0
C      1  0.4206160000000  0.4522320000000  0.5026040000000 1.0
C      1  0.5300770000000  0.5044150000000  0.4481320000000 1.0
C      1  0.5472470000000  0.5282260000000  0.4442690000000 1.0
C      1  0.4891810000000  0.5847260000000  0.5475410000000 1.0
C      1  0.4537260000000  0.4321890000000  0.4717300000000 1.0
C      1  0.4350700000000  0.5090090000000  0.5269030000000 1.0
C      1  0.4550840000000  0.5280110000000  0.5147380000000 1.0
C      1  0.5482150000000  0.4471190000000  0.5339740000000 1.0
C      1  0.4425230000000  0.4491990000000  0.4486890000000 1.0
C      1  0.5292950000000  0.4657990000000  0.5457790000000 1.0
C      1  0.5232640000000  0.5038840000000  0.5741000000000 1.0
C      1  0.4858410000000  0.5675340000000  0.4723170000000 1.0
C      1  0.5881710000000  0.5267520000000  0.4733840000000 1.0
C      1  0.4789910000000  0.5716360000000  0.5246960000000 1.0
C      1  0.4767850000000  0.5101600000000  0.5071170000000 1.0
C      1  0.4191820000000  0.5247750000000  0.4842340000000 1.0
C      1  0.4591320000000  0.4923750000000  0.4474120000000 1.0
C      1  0.5445820000000  0.4696420000000  0.4474060000000 1.0
C      1  0.5332180000000  0.5500800000000  0.4612450000000 1.0
C      1  0.4975810000000  0.5634370000000  0.5643010000000 1.0
C      1  0.5277350000000  0.5690870000000  0.5083270000000 1.0
C      1  0.4664760000000  0.5471730000000  0.5339900000000 1.0
C      1  0.4671190000000  0.5189240000000  0.5726550000000 1.0
C      1  0.5346590000000  0.4959610000000  0.4796860000000 1.0
C      1  0.5136520000000  0.5239820000000  0.5522860000000 1.0
C      1  0.4593260000000  0.4475310000000  0.5396540000000 1.0
C      1  0.4372030000000  0.4292880000000  0.4978720000000 1.0
C      1  0.4923370000000  0.5380620000000  0.4332590000000 1.0
C      1  0.4753300000000  0.4818320000000  0.5166410000000 1.0
C      1  0.5634830000000  0.5460710000000  0.5298950000000 1.0
C      1  0.5334240000000  0.4457500000000  0.4610180000000 1.0
C      1  0.4167430000000  0.5070510000000  0.5051790000000 1.0
C      1  0.4422810000000  0.5401490000000  0.4897180000000 1.0
C      1  0.5261270000000  0.5594960000000  0.5601080000000 1.0
C      1  0.5303440000000  0.4336790000000  0.5152070000000 1.0
C      1  0.5679700000000  0.5440920000000  0.5005140000000 1.0
C      1  0.4624470000000  0.5392130000000  0.4394550000000 1.0
C      1  0.5735470000000  0.5150640000000  0.4510160000000 1.0
END
