TITL C-950528-5794-745 -1.68253483400149e-06 125000 -228.062499456801 0 0 38 (C1) n - 1
REM
REM in /home/bkarasulu/work/CARBON/AIRSS/Generating-Clusters/EDIP-Nigel-Params/with-SteepDescent/Only-C1/SD-CG/HFTN-CG
REM
REM
REM
REM
REM
REM ./C.cell (11c1c37f851c82e70ff6c80c92926a4b)
REM
REM compiler GCC version 9.2.1 20190827 (Red Hat 9.2.1-1)
REM options -cpp -mtune=generic -march=x86-64 -g -O0 -fpre-include=/usr/include/finclude/math-vector-fortran.h
REM seed 1755792381 1141017993 -648328680 267526823 817674140 -821663928 -871135141 1278631457 -1625484265 545526847 -1246232068 1066223569 -1308066680 2052167572 -1352103798 1242408196 320078555 1791980585 980385397 685896372 2111145791 -1815233745 610629901 -1555998179 -509906162 -1675977941 -971729246 1374998145 -197719196 734069325 402395003 564988854 -1173007108
REM
CELL 1.54180   50.00000   50.00000   50.00000   90.00000   90.00000   90.00000
LATT -1
SFAC C  
C      1  0.5712270000000  0.5150770000000  0.5100610000000 1.0
C      1  0.5323520000000  0.4743270000000  0.5466060000000 1.0
C      1  0.4796850000000  0.4637050000000  0.5301120000000 1.0
C      1  0.5012520000000  0.4470410000000  0.5185780000000 1.0
C      1  0.4635670000000  0.5326200000000  0.4850440000000 1.0
C      1  0.4608840000000  0.5265060000000  0.4579110000000 1.0
C      1  0.4919170000000  0.5344580000000  0.4945020000000 1.0
C      1  0.5208600000000  0.4982180000000  0.5355360000000 1.0
C      1  0.5125680000000  0.5499080000000  0.4796680000000 1.0
C      1  0.5349440000000  0.5449050000000  0.4973360000000 1.0
C      1  0.4483640000000  0.4647520000000  0.4876950000000 1.0
C      1  0.5127590000000  0.4716340000000  0.4513780000000 1.0
C      1  0.5278460000000  0.4523600000000  0.5304170000000 1.0
C      1  0.4345060000000  0.4901560000000  0.5018400000000 1.0
C      1  0.5470160000000  0.5172570000000  0.4939750000000 1.0
C      1  0.5360920000000  0.5239110000000  0.5422680000000 1.0
C      1  0.4993410000000  0.5047460000000  0.4927400000000 1.0
C      1  0.4946480000000  0.4538180000000  0.4675480000000 1.0
C      1  0.5322270000000  0.5201830000000  0.4460430000000 1.0
C      1  0.5047610000000  0.4606560000000  0.4935840000000 1.0
C      1  0.4514640000000  0.5148710000000  0.5053950000000 1.0
C      1  0.4883500000000  0.4923620000000  0.5282450000000 1.0
C      1  0.4672300000000  0.4588470000000  0.4675830000000 1.0
C      1  0.4943860000000  0.5440480000000  0.5227890000000 1.0
C      1  0.4514750000000  0.4594230000000  0.5188840000000 1.0
C      1  0.4651300000000  0.5117720000000  0.5323590000000 1.0
C      1  0.5325150000000  0.4697750000000  0.4955750000000 1.0
C      1  0.5064930000000  0.5277520000000  0.4381850000000 1.0
C      1  0.5476310000000  0.5058160000000  0.4649410000000 1.0
C      1  0.4326650000000  0.4808130000000  0.5319170000000 1.0
C      1  0.4761290000000  0.5364930000000  0.5428950000000 1.0
C      1  0.4999810000000  0.4975520000000  0.4621730000000 1.0
C      1  0.5632950000000  0.5210060000000  0.5354450000000 1.0
C      1  0.5240820000000  0.5459110000000  0.5258800000000 1.0
C      1  0.4814430000000  0.5138870000000  0.4439240000000 1.0
C      1  0.5263450000000  0.4978590000000  0.5054240000000 1.0
C      1  0.5392470000000  0.4765990000000  0.4659430000000 1.0
C      1  0.4453210000000  0.4989800000000  0.5496000000000 1.0
END
