TITL C-950525-1983-511 -9.81695456620874e-07 125000 -719.956229818251 0 0 116 (C1) n - 1
REM
REM in /home/bkarasulu/work/CARBON/AIRSS/Generating-Clusters/EDIP-Nigel-Params/with-SteepDescent/Only-C1/SD-CG/HFTN-CG
REM
REM
REM
REM
REM
REM ./C.cell (11c1c37f851c82e70ff6c80c92926a4b)
REM
REM compiler GCC version 9.2.1 20190827 (Red Hat 9.2.1-1)
REM options -cpp -mtune=generic -march=x86-64 -g -O0 -fpre-include=/usr/include/finclude/math-vector-fortran.h
REM seed -675726998 -566980957 1695099807 406420255 147002890 1936892287 -980186479 71685361 2053010214 -1870185124 842595165 508740490 -781010637 -1667958895 -2079078025 -1631579109 1928355088 -708344405 -653773588 -251748615 683064096 -1321024137 1118656829 -1978958735 -376929713 -848206677 -1220284196 -54389109 -803121067 -188100607 -1212314037 -1562798214 -1125613618
REM
CELL 1.54180   50.00000   50.00000   50.00000   90.00000   90.00000   90.00000
LATT -1
SFAC C  
C      1  0.5242510000000  0.5851060000000  0.5018670000000 1.0
C      1  0.4571240000000  0.4921890000000  0.5183670000000 1.0
C      1  0.5694070000000  0.4853820000000  0.4861980000000 1.0
C      1  0.5129180000000  0.5488410000000  0.4233840000000 1.0
C      1  0.5305160000000  0.4615800000000  0.5527230000000 1.0
C      1  0.4614550000000  0.5663790000000  0.5252620000000 1.0
C      1  0.5453740000000  0.4715990000000  0.4082850000000 1.0
C      1  0.5332290000000  0.5622520000000  0.5910520000000 1.0
C      1  0.5559280000000  0.5091180000000  0.5496000000000 1.0
C      1  0.4891180000000  0.5754910000000  0.5314320000000 1.0
C      1  0.5222060000000  0.4605450000000  0.4864480000000 1.0
C      1  0.4480770000000  0.5677110000000  0.4588450000000 1.0
C      1  0.5302370000000  0.5086930000000  0.5332470000000 1.0
C      1  0.5610820000000  0.5637680000000  0.4900600000000 1.0
C      1  0.4227030000000  0.5357570000000  0.4999520000000 1.0
C      1  0.4900620000000  0.5044910000000  0.4053450000000 1.0
C      1  0.4912740000000  0.5603050000000  0.5739670000000 1.0
C      1  0.5355180000000  0.4878290000000  0.5943940000000 1.0
C      1  0.4990990000000  0.4328100000000  0.4320490000000 1.0
C      1  0.5140390000000  0.4823000000000  0.5354810000000 1.0
C      1  0.5075040000000  0.4114950000000  0.5055570000000 1.0
C      1  0.5362020000000  0.5402980000000  0.4363490000000 1.0
C      1  0.4935290000000  0.4134570000000  0.4790660000000 1.0
C      1  0.5257320000000  0.4925470000000  0.4433750000000 1.0
C      1  0.4809160000000  0.5138180000000  0.5649190000000 1.0
C      1  0.4447520000000  0.5123500000000  0.4218330000000 1.0
C      1  0.5532250000000  0.4991660000000  0.5762750000000 1.0
C      1  0.5572400000000  0.4520100000000  0.4526050000000 1.0
C      1  0.5395470000000  0.5605880000000  0.5161590000000 1.0
C      1  0.5950830000000  0.5362480000000  0.4843470000000 1.0
C      1  0.5473170000000  0.5715550000000  0.4659940000000 1.0
C      1  0.5050200000000  0.5624490000000  0.5995710000000 1.0
C      1  0.4791560000000  0.5910070000000  0.4877360000000 1.0
C      1  0.5343420000000  0.5183760000000  0.4576250000000 1.0
C      1  0.4326670000000  0.4453420000000  0.4511270000000 1.0
C      1  0.5860120000000  0.5427700000000  0.5317020000000 1.0
C      1  0.4663250000000  0.4987920000000  0.4608010000000 1.0
C      1  0.4747950000000  0.5687040000000  0.4468190000000 1.0
C      1  0.5516910000000  0.4174610000000  0.4841160000000 1.0
C      1  0.4586530000000  0.5693580000000  0.4930360000000 1.0
C      1  0.4770600000000  0.4740700000000  0.5029070000000 1.0
C      1  0.4825200000000  0.5250790000000  0.4637420000000 1.0
C      1  0.4978260000000  0.5928880000000  0.5106870000000 1.0
C      1  0.4186770000000  0.4626070000000  0.5243300000000 1.0
C      1  0.4602930000000  0.4609480000000  0.5417040000000 1.0
C      1  0.4295820000000  0.5514720000000  0.4458970000000 1.0
C      1  0.5347190000000  0.4374730000000  0.4689250000000 1.0
C      1  0.5236310000000  0.4524100000000  0.4087540000000 1.0
C      1  0.4168960000000  0.5077710000000  0.4657650000000 1.0
C      1  0.5187970000000  0.5065930000000  0.4136160000000 1.0
C      1  0.5867330000000  0.5227170000000  0.4612460000000 1.0
C      1  0.4285780000000  0.4471860000000  0.5008230000000 1.0
C      1  0.4803350000000  0.4787980000000  0.4153700000000 1.0
C      1  0.5000520000000  0.4336720000000  0.5249330000000 1.0
C      1  0.5675870000000  0.5372400000000  0.5522170000000 1.0
C      1  0.5370270000000  0.4042710000000  0.5060220000000 1.0
C      1  0.5339250000000  0.5759220000000  0.5639260000000 1.0
C      1  0.4201470000000  0.5383200000000  0.5288380000000 1.0
C      1  0.4325690000000  0.4588040000000  0.5501470000000 1.0
C      1  0.4515500000000  0.4256810000000  0.4558810000000 1.0
C      1  0.4120780000000  0.5114750000000  0.5392870000000 1.0
C      1  0.4380000000000  0.4650880000000  0.4326340000000 1.0
C      1  0.4757140000000  0.4211640000000  0.5516500000000 1.0
C      1  0.4931310000000  0.4694170000000  0.5817520000000 1.0
C      1  0.4995270000000  0.5319560000000  0.5038950000000 1.0
C      1  0.5226250000000  0.4651440000000  0.5816470000000 1.0
C      1  0.4184810000000  0.4909150000000  0.5195320000000 1.0
C      1  0.5511660000000  0.4123220000000  0.5313640000000 1.0
C      1  0.4492570000000  0.4259630000000  0.5037320000000 1.0
C      1  0.5346640000000  0.4131680000000  0.5541440000000 1.0
C      1  0.5012860000000  0.4602720000000  0.4244960000000 1.0
C      1  0.5824540000000  0.4965980000000  0.5100000000000 1.0
C      1  0.4567960000000  0.4867620000000  0.4321740000000 1.0
C      1  0.4886000000000  0.4996920000000  0.5908580000000 1.0
C      1  0.5646640000000  0.5042740000000  0.4630630000000 1.0
C      1  0.5746630000000  0.4583010000000  0.4765520000000 1.0
C      1  0.5541870000000  0.5610050000000  0.4411370000000 1.0
C      1  0.5176740000000  0.4348990000000  0.5494030000000 1.0
C      1  0.5034800000000  0.5800860000000  0.5567640000000 1.0
C      1  0.5552870000000  0.5645580000000  0.5422950000000 1.0
C      1  0.4016430000000  0.5242490000000  0.4847680000000 1.0
C      1  0.4937670000000  0.5844210000000  0.4634330000000 1.0
C      1  0.5157130000000  0.5087550000000  0.6012050000000 1.0
C      1  0.4284750000000  0.4791910000000  0.5689940000000 1.0
C      1  0.5589450000000  0.4616040000000  0.5392630000000 1.0
C      1  0.5036440000000  0.4624050000000  0.5116260000000 1.0
C      1  0.4524370000000  0.5239910000000  0.5607910000000 1.0
C      1  0.4708740000000  0.5266020000000  0.4137970000000 1.0
C      1  0.4774030000000  0.4481290000000  0.5627390000000 1.0
C      1  0.4242410000000  0.5245890000000  0.4401780000000 1.0
C      1  0.4488860000000  0.5196830000000  0.5004130000000 1.0
C      1  0.5680260000000  0.4366500000000  0.5253340000000 1.0
C      1  0.5103890000000  0.5230850000000  0.4771040000000 1.0
C      1  0.4281480000000  0.5068780000000  0.5637840000000 1.0
C      1  0.5528210000000  0.4776400000000  0.4372370000000 1.0
C      1  0.4472040000000  0.5438820000000  0.5391250000000 1.0
C      1  0.5112340000000  0.4217580000000  0.4560880000000 1.0
C      1  0.4063950000000  0.4805210000000  0.4665310000000 1.0
C      1  0.5284000000000  0.5329180000000  0.5900320000000 1.0
C      1  0.5167180000000  0.5354280000000  0.5280940000000 1.0
C      1  0.4852600000000  0.5493290000000  0.4270120000000 1.0
C      1  0.4597650000000  0.4189140000000  0.5288520000000 1.0
C      1  0.5371190000000  0.4951270000000  0.3949270000000 1.0
C      1  0.5726820000000  0.4878340000000  0.5363410000000 1.0
C      1  0.5209440000000  0.5790740000000  0.4737580000000 1.0
C      1  0.4645140000000  0.4195630000000  0.4795340000000 1.0
C      1  0.4993630000000  0.5359980000000  0.5571260000000 1.0
C      1  0.5894020000000  0.5636220000000  0.4865060000000 1.0
C      1  0.4431360000000  0.5028870000000  0.4777290000000 1.0
C      1  0.4821060000000  0.4796280000000  0.4750130000000 1.0
C      1  0.5854090000000  0.5253670000000  0.5089040000000 1.0
C      1  0.4864550000000  0.4885110000000  0.5483150000000 1.0
C      1  0.4192600000000  0.4561910000000  0.4739330000000 1.0
C      1  0.5090010000000  0.4755090000000  0.4653540000000 1.0
C      1  0.4713860000000  0.5384240000000  0.4917710000000 1.0
C      1  0.5732650000000  0.4347280000000  0.4953050000000 1.0
END
