TITL C-950536-5891-315 6.49127640225919e-07 125000 -359.328169363753 0 0 60 (C1) n - 1
REM
REM in /home/bkarasulu/work/CARBON/AIRSS/Generating-Clusters/EDIP-Nigel-Params/with-SteepDescent/Only-C1/SD-CG/HFTN-CG
REM
REM
REM
REM
REM
REM ./C.cell (11c1c37f851c82e70ff6c80c92926a4b)
REM
REM compiler GCC version 9.2.1 20190827 (Red Hat 9.2.1-1)
REM options -cpp -mtune=generic -march=x86-64 -g -O0 -fpre-include=/usr/include/finclude/math-vector-fortran.h
REM seed -2136978368 165866661 -797007455 -1017987064 -699958107 -835113305 598561515 -152725434 -1333823466 1794767121 2069021253 1310859650 -1385317897 727018141 -1725396198 545779377 1877301549 1406061015 1267520906 -1339238764 -1193051720 -481595684 27816816 -1405593749 -1892242642 1799244741 -456820325 -306050942 -1143689559 440937119 23174781 483103839 -1320896799
REM
CELL 1.54180   50.00000   50.00000   50.00000   90.00000   90.00000   90.00000
LATT -1
SFAC C  
C      1  0.5279740000000  0.4433420000000  0.5268030000000 1.0
C      1  0.5521360000000  0.5515360000000  0.5071560000000 1.0
C      1  0.4732700000000  0.5080930000000  0.5685140000000 1.0
C      1  0.5431150000000  0.5221750000000  0.4619450000000 1.0
C      1  0.4508790000000  0.5486160000000  0.5089310000000 1.0
C      1  0.4241830000000  0.4521570000000  0.5452300000000 1.0
C      1  0.5258800000000  0.5475430000000  0.5507930000000 1.0
C      1  0.4309950000000  0.5020110000000  0.4883770000000 1.0
C      1  0.5096530000000  0.5244440000000  0.5496660000000 1.0
C      1  0.4464350000000  0.5425110000000  0.4651650000000 1.0
C      1  0.4365920000000  0.5000330000000  0.5401480000000 1.0
C      1  0.4301480000000  0.5324270000000  0.4905970000000 1.0
C      1  0.5101490000000  0.4653500000000  0.5316180000000 1.0
C      1  0.5317670000000  0.4411120000000  0.4778630000000 1.0
C      1  0.5459790000000  0.4903420000000  0.5401490000000 1.0
C      1  0.4597650000000  0.5392410000000  0.5340110000000 1.0
C      1  0.4680930000000  0.5520150000000  0.4846370000000 1.0
C      1  0.4694240000000  0.4658790000000  0.5491390000000 1.0
C      1  0.5370420000000  0.5060780000000  0.5162640000000 1.0
C      1  0.4396010000000  0.4296060000000  0.5454540000000 1.0
C      1  0.4957950000000  0.4934580000000  0.4323920000000 1.0
C      1  0.5232800000000  0.4271150000000  0.5033980000000 1.0
C      1  0.5158760000000  0.4881250000000  0.5523870000000 1.0
C      1  0.5633440000000  0.4704950000000  0.5304750000000 1.0
C      1  0.4934760000000  0.4245450000000  0.5019880000000 1.0
C      1  0.5137940000000  0.5794640000000  0.5139980000000 1.0
C      1  0.5270050000000  0.4871470000000  0.4941230000000 1.0
C      1  0.4507410000000  0.5049190000000  0.5122970000000 1.0
C      1  0.5057450000000  0.5752950000000  0.4873720000000 1.0
C      1  0.4437390000000  0.4945620000000  0.4621030000000 1.0
C      1  0.5007940000000  0.4758460000000  0.5056760000000 1.0
C      1  0.4788890000000  0.5776690000000  0.4806160000000 1.0
C      1  0.5822240000000  0.4908610000000  0.4772260000000 1.0
C      1  0.5290440000000  0.5582450000000  0.5243510000000 1.0
C      1  0.5159770000000  0.5504670000000  0.4441150000000 1.0
C      1  0.4709730000000  0.4866530000000  0.4681400000000 1.0
C      1  0.4508630000000  0.5192940000000  0.4458400000000 1.0
C      1  0.5493600000000  0.5562830000000  0.4786800000000 1.0
C      1  0.5088630000000  0.5188500000000  0.5217290000000 1.0
C      1  0.4906270000000  0.5389700000000  0.4493300000000 1.0
C      1  0.4667800000000  0.4367040000000  0.5462800000000 1.0
C      1  0.4415670000000  0.4734020000000  0.5520660000000 1.0
C      1  0.5189450000000  0.5063740000000  0.4734950000000 1.0
C      1  0.4871160000000  0.4839590000000  0.5643260000000 1.0
C      1  0.5694370000000  0.5170040000000  0.4798200000000 1.0
C      1  0.4896120000000  0.5143230000000  0.4754550000000 1.0
C      1  0.5178900000000  0.4769150000000  0.4405280000000 1.0
C      1  0.5699670000000  0.4660570000000  0.5037600000000 1.0
C      1  0.5233960000000  0.5611120000000  0.4692280000000 1.0
C      1  0.4749590000000  0.4580580000000  0.4647210000000 1.0
C      1  0.4526260000000  0.5205230000000  0.5537920000000 1.0
C      1  0.4827550000000  0.4231840000000  0.5278790000000 1.0
C      1  0.5446660000000  0.4896540000000  0.4426020000000 1.0
C      1  0.5114630000000  0.4509970000000  0.4561270000000 1.0
C      1  0.4905740000000  0.4523110000000  0.4887810000000 1.0
C      1  0.4849340000000  0.5041880000000  0.5066110000000 1.0
C      1  0.5468160000000  0.4655980000000  0.4849180000000 1.0
C      1  0.4799940000000  0.5176760000000  0.4324030000000 1.0
C      1  0.5606850000000  0.5237540000000  0.5075420000000 1.0
C      1  0.5623290000000  0.4754310000000  0.4609680000000 1.0
END
