TITL C-951333-8791-425 -6.07388411603885e-07 125000 -275.831243295232 0 0 46 (C1) n - 1
REM
REM in /home/bkarasulu/work/CARBON/AIRSS/Generating-Clusters/EDIP-Nigel-Params/with-SteepDescent/Only-C1/SD-CG/HFTN-CG
REM
REM
REM
REM
REM
REM ./C.cell (11c1c37f851c82e70ff6c80c92926a4b)
REM
REM compiler GCC version 9.2.1 20190827 (Red Hat 9.2.1-1)
REM options -cpp -mtune=generic -march=x86-64 -g -O0 -fpre-include=/usr/include/finclude/math-vector-fortran.h
REM seed -1739780753 -1624766307 -1048824726 1160508585 -974796570 431969238 1850397664 425100688 449062638 -1414451376 1603777748 1876459349 -103378540 119736167 766827280 1455215223 -1592928833 -1264072385 1684869324 -1014726244 -1324778791 1953377011 -1646842477 814138090 -78953284 -1877083489 899779913 -1536524577 -2138353680 532808500 1427359041 -1486804843 803736404
REM
CELL 1.54180   50.00000   50.00000   50.00000   90.00000   90.00000   90.00000
LATT -1
SFAC C  
C      1  0.5046640000000  0.5476990000000  0.5022680000000 1.0
C      1  0.5206600000000  0.4347850000000  0.4828870000000 1.0
C      1  0.5483780000000  0.4360850000000  0.4773620000000 1.0
C      1  0.4611150000000  0.5575750000000  0.5201400000000 1.0
C      1  0.4753820000000  0.5515300000000  0.4568840000000 1.0
C      1  0.5148320000000  0.4633400000000  0.4171710000000 1.0
C      1  0.5306820000000  0.5059060000000  0.5067270000000 1.0
C      1  0.4802290000000  0.5143260000000  0.5694590000000 1.0
C      1  0.5067430000000  0.5093490000000  0.4364750000000 1.0
C      1  0.4947460000000  0.5395580000000  0.4753960000000 1.0
C      1  0.4593680000000  0.5297970000000  0.5254680000000 1.0
C      1  0.5259890000000  0.5169850000000  0.5524590000000 1.0
C      1  0.4816550000000  0.4440080000000  0.5141690000000 1.0
C      1  0.4886750000000  0.5628060000000  0.5215640000000 1.0
C      1  0.5425830000000  0.4945040000000  0.5555350000000 1.0
C      1  0.5105150000000  0.4463630000000  0.5079520000000 1.0
C      1  0.4992310000000  0.4937830000000  0.5256480000000 1.0
C      1  0.5523430000000  0.4625680000000  0.4692800000000 1.0
C      1  0.4507510000000  0.4878310000000  0.5357770000000 1.0
C      1  0.5251980000000  0.4730860000000  0.4617310000000 1.0
C      1  0.4486410000000  0.5496740000000  0.4643690000000 1.0
C      1  0.5073630000000  0.5230420000000  0.5741020000000 1.0
C      1  0.4764970000000  0.4603090000000  0.5380670000000 1.0
C      1  0.5101930000000  0.4420400000000  0.4334570000000 1.0
C      1  0.5653430000000  0.4771070000000  0.4887030000000 1.0
C      1  0.5026540000000  0.4649720000000  0.5499410000000 1.0
C      1  0.5160880000000  0.4970350000000  0.4805630000000 1.0
C      1  0.4753080000000  0.5074410000000  0.5409880000000 1.0
C      1  0.5240740000000  0.4578290000000  0.5317770000000 1.0
C      1  0.4983940000000  0.5635460000000  0.5477340000000 1.0
C      1  0.4979300000000  0.5276720000000  0.4171690000000 1.0
C      1  0.5564310000000  0.4913000000000  0.5107490000000 1.0
C      1  0.5115080000000  0.5198640000000  0.4627590000000 1.0
C      1  0.5219950000000  0.4845300000000  0.4339960000000 1.0
C      1  0.5364170000000  0.5399790000000  0.5393230000000 1.0
C      1  0.4256870000000  0.5147090000000  0.4945820000000 1.0
C      1  0.5295520000000  0.5352290000000  0.5122950000000 1.0
C      1  0.4309570000000  0.5329220000000  0.4755920000000 1.0
C      1  0.4640170000000  0.4493950000000  0.4925860000000 1.0
C      1  0.5037290000000  0.4414070000000  0.4603990000000 1.0
C      1  0.4960530000000  0.5496620000000  0.5715350000000 1.0
C      1  0.5480500000000  0.4761060000000  0.5348050000000 1.0
C      1  0.4906980000000  0.4911860000000  0.4953240000000 1.0
C      1  0.4706270000000  0.4746920000000  0.4845920000000 1.0
C      1  0.4814460000000  0.5450500000000  0.4302770000000 1.0
C      1  0.4366080000000  0.5114190000000  0.5199640000000 1.0
END
