TITL C-950521-2237-446 3.84154122879876e-06 125000 -785.464603441554 0 0 126 (C1) n - 1
REM
REM in /home/bkarasulu/work/CARBON/AIRSS/Generating-Clusters/EDIP-Nigel-Params/with-SteepDescent/Only-C1/SD-CG/HFTN-CG
REM
REM
REM
REM
REM
REM ./C.cell (11c1c37f851c82e70ff6c80c92926a4b)
REM
REM compiler GCC version 9.2.1 20190827 (Red Hat 9.2.1-1)
REM options -cpp -mtune=generic -march=x86-64 -g -O0 -fpre-include=/usr/include/finclude/math-vector-fortran.h
REM seed -1015868357 1247768194 216206293 -1601629078 -830575817 -1672489408 -302996529 -952997473 1769867976 -1839853514 663509251 -404724138 -116535906 -791997158 1537018045 -385487694 1674407022 974510504 2109194812 -1604096336 -1651191015 1599538541 -64337286 1652235766 -368383238 -2135791259 -982896581 342852004 417966182 402016979 -1678578236 1175563328 413993733
REM
CELL 1.54180   50.00000   50.00000   50.00000   90.00000   90.00000   90.00000
LATT -1
SFAC C  
C      1  0.3993830000000  0.4934790000000  0.5005990000000 1.0
C      1  0.4465420000000  0.4571190000000  0.5107290000000 1.0
C      1  0.4342400000000  0.5289990000000  0.5398480000000 1.0
C      1  0.4290040000000  0.4166490000000  0.4888000000000 1.0
C      1  0.4745740000000  0.4962620000000  0.4783350000000 1.0
C      1  0.4321820000000  0.4686400000000  0.4395130000000 1.0
C      1  0.4805260000000  0.4531020000000  0.5723660000000 1.0
C      1  0.5556880000000  0.5321120000000  0.5662000000000 1.0
C      1  0.4978030000000  0.5899670000000  0.5291540000000 1.0
C      1  0.4495780000000  0.5744820000000  0.5431640000000 1.0
C      1  0.4628900000000  0.5839770000000  0.4468140000000 1.0
C      1  0.5150430000000  0.5571990000000  0.5744830000000 1.0
C      1  0.4805940000000  0.4239050000000  0.5674710000000 1.0
C      1  0.4704530000000  0.6005460000000  0.4675640000000 1.0
C      1  0.5592720000000  0.5801700000000  0.4653840000000 1.0
C      1  0.4867580000000  0.4878830000000  0.5314950000000 1.0
C      1  0.4998760000000  0.4095040000000  0.4928310000000 1.0
C      1  0.5853230000000  0.5132600000000  0.4606940000000 1.0
C      1  0.4294950000000  0.5197740000000  0.4314390000000 1.0
C      1  0.4416670000000  0.5454170000000  0.4288070000000 1.0
C      1  0.4548350000000  0.4867870000000  0.5222320000000 1.0
C      1  0.4703890000000  0.5459860000000  0.4192450000000 1.0
C      1  0.5113900000000  0.4660890000000  0.4577700000000 1.0
C      1  0.5471260000000  0.4779660000000  0.5633300000000 1.0
C      1  0.5450920000000  0.5721510000000  0.4392000000000 1.0
C      1  0.4938730000000  0.4639620000000  0.5484130000000 1.0
C      1  0.5096190000000  0.5126650000000  0.4269610000000 1.0
C      1  0.5412750000000  0.5933840000000  0.4867860000000 1.0
C      1  0.5809680000000  0.4477910000000  0.4967520000000 1.0
C      1  0.4466930000000  0.4932080000000  0.5719260000000 1.0
C      1  0.5638420000000  0.4140090000000  0.5362830000000 1.0
C      1  0.4241660000000  0.4547230000000  0.4894290000000 1.0
C      1  0.5274940000000  0.5065190000000  0.4669080000000 1.0
C      1  0.4892620000000  0.4158090000000  0.4599940000000 1.0
C      1  0.5244630000000  0.5391660000000  0.5285620000000 1.0
C      1  0.4284730000000  0.5407410000000  0.5139440000000 1.0
C      1  0.5686910000000  0.4637340000000  0.5209510000000 1.0
C      1  0.5918580000000  0.4944520000000  0.4829840000000 1.0
C      1  0.5527500000000  0.5727180000000  0.5360930000000 1.0
C      1  0.5155950000000  0.4460510000000  0.5416590000000 1.0
C      1  0.5616090000000  0.4252000000000  0.4890510000000 1.0
C      1  0.5129440000000  0.4380690000000  0.4901530000000 1.0
C      1  0.5778930000000  0.5607500000000  0.5246140000000 1.0
C      1  0.4058180000000  0.4592680000000  0.5316200000000 1.0
C      1  0.5145130000000  0.5325970000000  0.5912750000000 1.0
C      1  0.5173390000000  0.5518290000000  0.4691920000000 1.0
C      1  0.5188680000000  0.5582510000000  0.5009360000000 1.0
C      1  0.4882270000000  0.4684710000000  0.4798250000000 1.0
C      1  0.4751480000000  0.4094220000000  0.5102240000000 1.0
C      1  0.5380280000000  0.5524840000000  0.5531680000000 1.0
C      1  0.5525850000000  0.4984070000000  0.4161330000000 1.0
C      1  0.5222220000000  0.3992370000000  0.5117580000000 1.0
C      1  0.4439710000000  0.5666320000000  0.5145420000000 1.0
C      1  0.4624560000000  0.4993790000000  0.4471700000000 1.0
C      1  0.4889870000000  0.5441280000000  0.4596170000000 1.0
C      1  0.5636120000000  0.4417950000000  0.5424120000000 1.0
C      1  0.4707170000000  0.4443080000000  0.4944880000000 1.0
C      1  0.4413690000000  0.5498430000000  0.5592800000000 1.0
C      1  0.3997470000000  0.4641950000000  0.5020540000000 1.0
C      1  0.4928250000000  0.5994000000000  0.4838510000000 1.0
C      1  0.4609180000000  0.5455190000000  0.4731770000000 1.0
C      1  0.5676980000000  0.5337000000000  0.4741300000000 1.0
C      1  0.5385690000000  0.4349690000000  0.4740320000000 1.0
C      1  0.4436320000000  0.5625220000000  0.4538420000000 1.0
C      1  0.5702930000000  0.4869020000000  0.5480920000000 1.0
C      1  0.5088240000000  0.4814550000000  0.4284440000000 1.0
C      1  0.5175680000000  0.5767060000000  0.4502850000000 1.0
C      1  0.4680960000000  0.4980080000000  0.4084710000000 1.0
C      1  0.5419410000000  0.4747970000000  0.5068900000000 1.0
C      1  0.4796630000000  0.5326770000000  0.5148570000000 1.0
C      1  0.4324680000000  0.4445790000000  0.5346390000000 1.0
C      1  0.5404160000000  0.5325820000000  0.4591600000000 1.0
C      1  0.5354780000000  0.4310530000000  0.4455770000000 1.0
C      1  0.5196830000000  0.5146050000000  0.4932340000000 1.0
C      1  0.5180340000000  0.5995500000000  0.4695770000000 1.0
C      1  0.5872790000000  0.5710890000000  0.5004500000000 1.0
C      1  0.4208880000000  0.4454930000000  0.4526060000000 1.0
C      1  0.4551440000000  0.4665580000000  0.5756710000000 1.0
C      1  0.4619980000000  0.4682070000000  0.4402120000000 1.0
C      1  0.5686610000000  0.5169210000000  0.5015890000000 1.0
C      1  0.4658070000000  0.4330970000000  0.4660910000000 1.0
C      1  0.5707240000000  0.4956630000000  0.4406550000000 1.0
C      1  0.4458830000000  0.4095300000000  0.5110980000000 1.0
C      1  0.5354780000000  0.4726980000000  0.4149990000000 1.0
C      1  0.4638170000000  0.5428840000000  0.5771400000000 1.0
C      1  0.4847950000000  0.5650230000000  0.4373600000000 1.0
C      1  0.4502810000000  0.4985050000000  0.4951790000000 1.0
C      1  0.5069980000000  0.4311660000000  0.4426840000000 1.0
C      1  0.5489360000000  0.4125480000000  0.5126050000000 1.0
C      1  0.4839190000000  0.5203110000000  0.4147500000000 1.0
C      1  0.5358920000000  0.5231310000000  0.4166640000000 1.0
C      1  0.5405650000000  0.5071880000000  0.5127230000000 1.0
C      1  0.5857750000000  0.4668760000000  0.4744910000000 1.0
C      1  0.5734360000000  0.5163070000000  0.5490250000000 1.0
C      1  0.4335000000000  0.4162800000000  0.5354490000000 1.0
C      1  0.4939190000000  0.5770640000000  0.5035180000000 1.0
C      1  0.5818020000000  0.5308480000000  0.5247280000000 1.0
C      1  0.5513630000000  0.5467950000000  0.4253830000000 1.0
C      1  0.4956270000000  0.5092660000000  0.5812680000000 1.0
C      1  0.5373390000000  0.4899400000000  0.5882270000000 1.0
C      1  0.4360200000000  0.5242160000000  0.4893470000000 1.0
C      1  0.4882690000000  0.5545300000000  0.5612580000000 1.0
C      1  0.5407600000000  0.4504480000000  0.5582050000000 1.0
C      1  0.5513670000000  0.4525010000000  0.4319550000000 1.0
C      1  0.5413550000000  0.5195400000000  0.5890210000000 1.0
C      1  0.5792170000000  0.5617460000000  0.4755320000000 1.0
C      1  0.4352860000000  0.4993020000000  0.5438440000000 1.0
C      1  0.4793980000000  0.5803600000000  0.5495050000000 1.0
C      1  0.5628410000000  0.4709430000000  0.4546710000000 1.0
C      1  0.4808750000000  0.4733490000000  0.4171360000000 1.0
C      1  0.4379990000000  0.4234140000000  0.4622590000000 1.0
C      1  0.4967380000000  0.5083180000000  0.5508580000000 1.0
C      1  0.5085400000000  0.4852780000000  0.5954220000000 1.0
C      1  0.5108390000000  0.3961980000000  0.5372950000000 1.0
C      1  0.5381720000000  0.4790220000000  0.4718420000000 1.0
C      1  0.5023870000000  0.4201770000000  0.5492960000000 1.0
C      1  0.4080770000000  0.4885940000000  0.5372780000000 1.0
C      1  0.4693560000000  0.5573200000000  0.5012080000000 1.0
C      1  0.4238870000000  0.4978680000000  0.4497490000000 1.0
C      1  0.4976250000000  0.4594570000000  0.5944640000000 1.0
C      1  0.4114700000000  0.5092650000000  0.4775870000000 1.0
C      1  0.4925070000000  0.5085600000000  0.5012570000000 1.0
C      1  0.5199150000000  0.4550320000000  0.5135900000000 1.0
C      1  0.4654090000000  0.5137760000000  0.5853950000000 1.0
C      1  0.5345550000000  0.5892140000000  0.5176450000000 1.0
C      1  0.4964040000000  0.5345420000000  0.5389330000000 1.0
END
