TITL C-950535-5962-318 -4.02542048245499e-06 125000 -658.667302307076 0 0 106 (C1) n - 1
REM
REM in /home/bkarasulu/work/CARBON/AIRSS/Generating-Clusters/EDIP-Nigel-Params/with-SteepDescent/Only-C1/SD-CG/HFTN-CG
REM
REM
REM
REM
REM
REM ./C.cell (11c1c37f851c82e70ff6c80c92926a4b)
REM
REM compiler GCC version 9.2.1 20190827 (Red Hat 9.2.1-1)
REM options -cpp -mtune=generic -march=x86-64 -g -O0 -fpre-include=/usr/include/finclude/math-vector-fortran.h
REM seed 1325124268 347659144 1161992222 -1462877388 -642233955 700305380 -1762373010 297063816 -1845224149 2025169862 1477277062 -1217305452 621240799 -392554666 255348997 -442082671 -1317044483 -131402417 1643308412 1566266099 -361127396 583238127 -17050612 -372722254 -168560269 -925962753 -638771408 898642679 1016341036 -827738221 1329536342 1988787500 -1057218393
REM
CELL 1.54180   50.00000   50.00000   50.00000   90.00000   90.00000   90.00000
LATT -1
SFAC C  
C      1  0.4882340000000  0.4857860000000  0.5409910000000 1.0
C      1  0.5038440000000  0.5152760000000  0.4701530000000 1.0
C      1  0.5117650000000  0.5887740000000  0.4911360000000 1.0
C      1  0.4522440000000  0.4343970000000  0.4476590000000 1.0
C      1  0.4442940000000  0.5227930000000  0.4530560000000 1.0
C      1  0.5625590000000  0.5196560000000  0.5156860000000 1.0
C      1  0.5288600000000  0.5511990000000  0.4295240000000 1.0
C      1  0.4313190000000  0.4546800000000  0.5176450000000 1.0
C      1  0.4788090000000  0.4618500000000  0.5289440000000 1.0
C      1  0.5352140000000  0.5174750000000  0.4742320000000 1.0
C      1  0.5482200000000  0.5225550000000  0.5616160000000 1.0
C      1  0.4366200000000  0.4852020000000  0.5573710000000 1.0
C      1  0.5045450000000  0.5522210000000  0.5550230000000 1.0
C      1  0.4811630000000  0.5442420000000  0.5091880000000 1.0
C      1  0.4178460000000  0.4646390000000  0.4691420000000 1.0
C      1  0.4837690000000  0.4945170000000  0.5696180000000 1.0
C      1  0.4647200000000  0.4608360000000  0.4809590000000 1.0
C      1  0.4946450000000  0.5041030000000  0.5194050000000 1.0
C      1  0.5340430000000  0.5007340000000  0.4195020000000 1.0
C      1  0.4948600000000  0.4556550000000  0.4827880000000 1.0
C      1  0.4311310000000  0.5458070000000  0.5035880000000 1.0
C      1  0.4232040000000  0.4433720000000  0.4895190000000 1.0
C      1  0.4933300000000  0.4487170000000  0.5769160000000 1.0
C      1  0.4577830000000  0.5036110000000  0.4902310000000 1.0
C      1  0.4335330000000  0.5274310000000  0.5294930000000 1.0
C      1  0.5207930000000  0.5663150000000  0.5351070000000 1.0
C      1  0.5546460000000  0.4651010000000  0.5138850000000 1.0
C      1  0.4745340000000  0.5027120000000  0.4110170000000 1.0
C      1  0.5987040000000  0.4913880000000  0.5023350000000 1.0
C      1  0.4502410000000  0.4624460000000  0.5703970000000 1.0
C      1  0.4772030000000  0.4876030000000  0.4342660000000 1.0
C      1  0.5433010000000  0.5828910000000  0.4570800000000 1.0
C      1  0.4520220000000  0.4101690000000  0.5201900000000 1.0
C      1  0.5264970000000  0.4548520000000  0.4438610000000 1.0
C      1  0.4643340000000  0.5220620000000  0.5350730000000 1.0
C      1  0.4652140000000  0.4131560000000  0.4959030000000 1.0
C      1  0.4567780000000  0.4693550000000  0.5094160000000 1.0
C      1  0.4488480000000  0.5580060000000  0.5609420000000 1.0
C      1  0.5586450000000  0.5251790000000  0.4549170000000 1.0
C      1  0.4990990000000  0.5695640000000  0.4716820000000 1.0
C      1  0.4082370000000  0.5335000000000  0.4865680000000 1.0
C      1  0.5028870000000  0.4923400000000  0.4479360000000 1.0
C      1  0.5272050000000  0.4739190000000  0.5074700000000 1.0
C      1  0.4878690000000  0.4957520000000  0.4906990000000 1.0
C      1  0.5047780000000  0.5446690000000  0.4894190000000 1.0
C      1  0.4749760000000  0.5617050000000  0.5496060000000 1.0
C      1  0.3961110000000  0.5111630000000  0.5022140000000 1.0
C      1  0.5935840000000  0.5310190000000  0.5369660000000 1.0
C      1  0.6060150000000  0.5212420000000  0.5116780000000 1.0
C      1  0.5637320000000  0.4378060000000  0.4731130000000 1.0
C      1  0.4525470000000  0.5747780000000  0.4962040000000 1.0
C      1  0.5091110000000  0.4170360000000  0.5227240000000 1.0
C      1  0.4149850000000  0.5044290000000  0.5230300000000 1.0
C      1  0.4741550000000  0.5471310000000  0.4272870000000 1.0
C      1  0.5495040000000  0.5629640000000  0.5301450000000 1.0
C      1  0.4370220000000  0.4613060000000  0.4461260000000 1.0
C      1  0.4791620000000  0.4343290000000  0.4387070000000 1.0
C      1  0.5934910000000  0.5379790000000  0.4906350000000 1.0
C      1  0.5346950000000  0.5234000000000  0.5030600000000 1.0
C      1  0.5228150000000  0.4735520000000  0.4202740000000 1.0
C      1  0.4426340000000  0.4318730000000  0.5346850000000 1.0
C      1  0.4280000000000  0.5388370000000  0.5570740000000 1.0
C      1  0.4219080000000  0.4916360000000  0.4815050000000 1.0
C      1  0.5554980000000  0.5511450000000  0.4409330000000 1.0
C      1  0.5532080000000  0.4935680000000  0.5681040000000 1.0
C      1  0.5658970000000  0.4404340000000  0.5005310000000 1.0
C      1  0.5172520000000  0.5729550000000  0.4463080000000 1.0
C      1  0.5411100000000  0.5874500000000  0.4859720000000 1.0
C      1  0.5585080000000  0.5718560000000  0.5040210000000 1.0
C      1  0.5837700000000  0.5639240000000  0.4953950000000 1.0
C      1  0.5088430000000  0.5057230000000  0.5810600000000 1.0
C      1  0.5194220000000  0.4588130000000  0.5691470000000 1.0
C      1  0.5638420000000  0.5376840000000  0.5406800000000 1.0
C      1  0.5081850000000  0.4182140000000  0.4721540000000 1.0
C      1  0.5563280000000  0.4534680000000  0.4516770000000 1.0
C      1  0.4187170000000  0.4780930000000  0.5350380000000 1.0
C      1  0.5038720000000  0.5840720000000  0.5188930000000 1.0
C      1  0.4366830000000  0.5124940000000  0.5719690000000 1.0
C      1  0.4947840000000  0.4139170000000  0.4968730000000 1.0
C      1  0.4503910000000  0.4335100000000  0.4783210000000 1.0
C      1  0.5227130000000  0.5009040000000  0.5174540000000 1.0
C      1  0.4759920000000  0.5729140000000  0.5210690000000 1.0
C      1  0.5586910000000  0.5021590000000  0.4359280000000 1.0
C      1  0.5689020000000  0.4800150000000  0.4531200000000 1.0
C      1  0.5136700000000  0.4707160000000  0.4654150000000 1.0
C      1  0.5041290000000  0.4537090000000  0.5121500000000 1.0
C      1  0.5286530000000  0.4839980000000  0.5810950000000 1.0
C      1  0.5200300000000  0.5293210000000  0.5672490000000 1.0
C      1  0.4186650000000  0.5161710000000  0.4643240000000 1.0
C      1  0.4886130000000  0.5264550000000  0.4153080000000 1.0
C      1  0.4746020000000  0.4698040000000  0.5848890000000 1.0
C      1  0.4651440000000  0.4437290000000  0.5507950000000 1.0
C      1  0.5853750000000  0.5219480000000  0.4680400000000 1.0
C      1  0.5061010000000  0.4311230000000  0.4469840000000 1.0
C      1  0.4573920000000  0.5343660000000  0.4918560000000 1.0
C      1  0.4657550000000  0.5176230000000  0.5660750000000 1.0
C      1  0.5629250000000  0.4700330000000  0.5510770000000 1.0
C      1  0.5352340000000  0.4283170000000  0.5299820000000 1.0
C      1  0.5165540000000  0.5253730000000  0.4228650000000 1.0
C      1  0.5406410000000  0.4484650000000  0.5516330000000 1.0
C      1  0.4677660000000  0.5705570000000  0.4694850000000 1.0
C      1  0.5736110000000  0.4900840000000  0.5193690000000 1.0
C      1  0.5574170000000  0.4186660000000  0.5155370000000 1.0
C      1  0.4545080000000  0.4853690000000  0.4521710000000 1.0
C      1  0.4579360000000  0.5490860000000  0.4501240000000 1.0
C      1  0.5898320000000  0.4930770000000  0.4723510000000 1.0
END
