TITL C-951340-9809-411 -1.83163971506077e-06 125000 -500.884785711066 0 0 81 (C1) n - 1
REM
REM in /home/bkarasulu/work/CARBON/AIRSS/Generating-Clusters/EDIP-Nigel-Params/with-SteepDescent/Only-C1/SD-CG/HFTN-CG
REM
REM
REM
REM
REM
REM ./C.cell (11c1c37f851c82e70ff6c80c92926a4b)
REM
REM compiler GCC version 9.2.1 20190827 (Red Hat 9.2.1-1)
REM options -cpp -mtune=generic -march=x86-64 -g -O0 -fpre-include=/usr/include/finclude/math-vector-fortran.h
REM seed 431207995 1595362914 497499681 1618712461 -1687586650 -1515598161 -802769794 795816041 1946899310 -391805465 2032952837 -1644760966 -1071708672 2096055583 -148700570 -1210890697 1040529833 1907025030 1334250682 131580790 -1728232289 846487992 -1062702477 -1103266777 193221696 1701420606 -1714492530 1137636364 -1047502810 -772426569 730208491 534262351 -1022118228
REM
CELL 1.54180   50.00000   50.00000   50.00000   90.00000   90.00000   90.00000
LATT -1
SFAC C  
C      1  0.5303570000000  0.4779530000000  0.5915010000000 1.0
C      1  0.4334930000000  0.4416720000000  0.5274100000000 1.0
C      1  0.5800760000000  0.5191630000000  0.4514930000000 1.0
C      1  0.5225570000000  0.5710060000000  0.4717190000000 1.0
C      1  0.4583340000000  0.4810440000000  0.5715270000000 1.0
C      1  0.5301900000000  0.4646690000000  0.4375270000000 1.0
C      1  0.5481600000000  0.4999330000000  0.4697400000000 1.0
C      1  0.5371720000000  0.5367260000000  0.5558690000000 1.0
C      1  0.5359870000000  0.5354220000000  0.4474240000000 1.0
C      1  0.5550590000000  0.4813960000000  0.5496540000000 1.0
C      1  0.5005460000000  0.5162390000000  0.5307000000000 1.0
C      1  0.5542830000000  0.4734790000000  0.4533920000000 1.0
C      1  0.4283380000000  0.5038510000000  0.4566790000000 1.0
C      1  0.4870910000000  0.4250810000000  0.5205680000000 1.0
C      1  0.5164080000000  0.5358300000000  0.4868340000000 1.0
C      1  0.5718570000000  0.5031640000000  0.5398870000000 1.0
C      1  0.5661180000000  0.5447250000000  0.4893330000000 1.0
C      1  0.4916550000000  0.4906130000000  0.4134930000000 1.0
C      1  0.5827890000000  0.5175300000000  0.4903680000000 1.0
C      1  0.5359490000000  0.4398280000000  0.4757340000000 1.0
C      1  0.5039960000000  0.5785140000000  0.5150960000000 1.0
C      1  0.5153540000000  0.5156570000000  0.5576290000000 1.0
C      1  0.4119980000000  0.4756550000000  0.5079660000000 1.0
C      1  0.5674890000000  0.4683050000000  0.5046540000000 1.0
C      1  0.5363690000000  0.5125530000000  0.4289390000000 1.0
C      1  0.4453520000000  0.4439110000000  0.5006030000000 1.0
C      1  0.4092590000000  0.4561570000000  0.5286260000000 1.0
C      1  0.4533410000000  0.5259770000000  0.5161500000000 1.0
C      1  0.4254780000000  0.5435880000000  0.4824190000000 1.0
C      1  0.4804730000000  0.4760250000000  0.4707560000000 1.0
C      1  0.4443470000000  0.4564780000000  0.5737630000000 1.0
C      1  0.5197930000000  0.4419400000000  0.4512710000000 1.0
C      1  0.5043240000000  0.4487330000000  0.5585330000000 1.0
C      1  0.4857520000000  0.5431790000000  0.4921680000000 1.0
C      1  0.4878300000000  0.5160210000000  0.4031980000000 1.0
C      1  0.4518370000000  0.4427200000000  0.5503990000000 1.0
C      1  0.5310920000000  0.5686890000000  0.5229670000000 1.0
C      1  0.5596540000000  0.4980380000000  0.4973420000000 1.0
C      1  0.5170800000000  0.5563180000000  0.4481500000000 1.0
C      1  0.4730220000000  0.4343050000000  0.4962240000000 1.0
C      1  0.4348950000000  0.4771240000000  0.4613880000000 1.0
C      1  0.4681910000000  0.4794770000000  0.4239790000000 1.0
C      1  0.5168960000000  0.4513010000000  0.4948680000000 1.0
C      1  0.4911140000000  0.5159330000000  0.5776370000000 1.0
C      1  0.4856650000000  0.5400490000000  0.4146900000000 1.0
C      1  0.5155540000000  0.4308420000000  0.5165990000000 1.0
C      1  0.4922630000000  0.4485120000000  0.4772380000000 1.0
C      1  0.4801080000000  0.4377790000000  0.5457890000000 1.0
C      1  0.5271750000000  0.4436960000000  0.5397070000000 1.0
C      1  0.4605450000000  0.4704730000000  0.4494550000000 1.0
C      1  0.5565380000000  0.5275850000000  0.5365720000000 1.0
C      1  0.4482750000000  0.5039080000000  0.5569430000000 1.0
C      1  0.5311010000000  0.4896080000000  0.5650730000000 1.0
C      1  0.4703630000000  0.4904900000000  0.4986390000000 1.0
C      1  0.5192010000000  0.5037650000000  0.4800220000000 1.0
C      1  0.4154950000000  0.5023380000000  0.5187760000000 1.0
C      1  0.5621930000000  0.5406970000000  0.4593890000000 1.0
C      1  0.5915080000000  0.4939040000000  0.5190010000000 1.0
C      1  0.4712850000000  0.5702070000000  0.4496880000000 1.0
C      1  0.4441030000000  0.4999490000000  0.5267680000000 1.0
C      1  0.4763600000000  0.5696280000000  0.4775090000000 1.0
C      1  0.4338150000000  0.4683650000000  0.4894570000000 1.0
C      1  0.5050300000000  0.4666870000000  0.5834510000000 1.0
C      1  0.5613370000000  0.4545400000000  0.4766590000000 1.0
C      1  0.5011750000000  0.5839530000000  0.4856320000000 1.0
C      1  0.5402940000000  0.5443040000000  0.5065170000000 1.0
C      1  0.4950600000000  0.4913020000000  0.5167130000000 1.0
C      1  0.5307480000000  0.5633500000000  0.5507160000000 1.0
C      1  0.4268720000000  0.5373700000000  0.5092470000000 1.0
C      1  0.4764860000000  0.5342700000000  0.5346720000000 1.0
C      1  0.4820490000000  0.5620100000000  0.5258480000000 1.0
C      1  0.5486500000000  0.4622670000000  0.5291990000000 1.0
C      1  0.4688710000000  0.5181810000000  0.4812930000000 1.0
C      1  0.4902920000000  0.5536750000000  0.4382430000000 1.0
C      1  0.5002960000000  0.4956070000000  0.4596730000000 1.0
C      1  0.4831340000000  0.4875940000000  0.5850800000000 1.0
C      1  0.5143120000000  0.4905700000000  0.4336550000000 1.0
C      1  0.4416580000000  0.5249040000000  0.4692240000000 1.0
C      1  0.5187540000000  0.4818380000000  0.5027690000000 1.0
C      1  0.4671620000000  0.5269710000000  0.5625800000000 1.0
C      1  0.5649200000000  0.5028920000000  0.4319360000000 1.0
END
