TITL C-951345-2650-314 1.31786043633914e-06 125000 -1177.99241998341 0 0 187 (C1) n - 1
REM
REM in /home/bkarasulu/work/CARBON/AIRSS/Generating-Clusters/EDIP-Nigel-Params/with-SteepDescent/Only-C1/SD-CG/HFTN-CG
REM
REM
REM
REM
REM
REM ./C.cell (11c1c37f851c82e70ff6c80c92926a4b)
REM
REM compiler GCC version 9.2.1 20190827 (Red Hat 9.2.1-1)
REM options -cpp -mtune=generic -march=x86-64 -g -O0 -fpre-include=/usr/include/finclude/math-vector-fortran.h
REM seed 1923322853 958020212 -1566469919 -1707335109 1200401212 -1502060338 -945213893 -1016989976 -1012282652 -235693512 -218587876 265653115 81366467 2106779756 -3811389 416624088 831993577 -740609711 -144440076 -121284479 -1594486607 -1272626799 -1324231082 -411609918 428719704 -130880783 -702147764 1993694684 287885530 -1946798889 904144122 -1491894629 -1472268299
REM
CELL 1.54180   50.00000   50.00000   50.00000   90.00000   90.00000   90.00000
LATT -1
SFAC C  
C      1  0.4298180000000  0.5636330000000  0.5629450000000 1.0
C      1  0.5325680000000  0.5055530000000  0.6074030000000 1.0
C      1  0.5549790000000  0.4293280000000  0.5676320000000 1.0
C      1  0.6047160000000  0.4979800000000  0.5144160000000 1.0
C      1  0.5576900000000  0.4538060000000  0.4719680000000 1.0
C      1  0.5942870000000  0.4682020000000  0.4483550000000 1.0
C      1  0.5570410000000  0.5498470000000  0.4271280000000 1.0
C      1  0.4787380000000  0.4433600000000  0.5791170000000 1.0
C      1  0.5495440000000  0.5514040000000  0.5891340000000 1.0
C      1  0.4497120000000  0.4805940000000  0.5830940000000 1.0
C      1  0.5672700000000  0.5937710000000  0.4451560000000 1.0
C      1  0.5877420000000  0.5717590000000  0.5065530000000 1.0
C      1  0.5188650000000  0.4018860000000  0.4484390000000 1.0
C      1  0.5626490000000  0.4262340000000  0.4452420000000 1.0
C      1  0.4909620000000  0.5662110000000  0.4924190000000 1.0
C      1  0.4985100000000  0.5360730000000  0.4415910000000 1.0
C      1  0.5786660000000  0.4219150000000  0.4982820000000 1.0
C      1  0.5399680000000  0.5609410000000  0.5310550000000 1.0
C      1  0.5190630000000  0.4620610000000  0.3946960000000 1.0
C      1  0.4055300000000  0.4960910000000  0.5514170000000 1.0
C      1  0.5551160000000  0.4733510000000  0.5791730000000 1.0
C      1  0.4739810000000  0.5236430000000  0.3892100000000 1.0
C      1  0.4279250000000  0.5850300000000  0.5448660000000 1.0
C      1  0.3993510000000  0.5610230000000  0.4854900000000 1.0
C      1  0.4788950000000  0.5762140000000  0.5695580000000 1.0
C      1  0.5044590000000  0.4075430000000  0.5536480000000 1.0
C      1  0.5322540000000  0.5028590000000  0.4247300000000 1.0
C      1  0.5618640000000  0.4907140000000  0.5064870000000 1.0
C      1  0.5193110000000  0.4794130000000  0.6115960000000 1.0
C      1  0.4291190000000  0.5173280000000  0.4189090000000 1.0
C      1  0.5315300000000  0.4459260000000  0.4907580000000 1.0
C      1  0.4931180000000  0.4886790000000  0.5592310000000 1.0
C      1  0.5826320000000  0.4569430000000  0.5402980000000 1.0
C      1  0.5109480000000  0.4201450000000  0.4222130000000 1.0
C      1  0.4755470000000  0.4654880000000  0.4681210000000 1.0
C      1  0.4658160000000  0.4079680000000  0.4294870000000 1.0
C      1  0.4874450000000  0.4453060000000  0.5187240000000 1.0
C      1  0.5084500000000  0.5440540000000  0.4140510000000 1.0
C      1  0.4344270000000  0.5782710000000  0.4562290000000 1.0
C      1  0.4792720000000  0.3927450000000  0.5142130000000 1.0
C      1  0.4338660000000  0.4598670000000  0.5691170000000 1.0
C      1  0.5184810000000  0.4848500000000  0.4741120000000 1.0
C      1  0.5649910000000  0.5495950000000  0.5656960000000 1.0
C      1  0.5220000000000  0.5936370000000  0.5728210000000 1.0
C      1  0.4714300000000  0.4671850000000  0.3800340000000 1.0
C      1  0.4602420000000  0.4455350000000  0.5326840000000 1.0
C      1  0.5826120000000  0.4235060000000  0.5272120000000 1.0
C      1  0.5218920000000  0.5519330000000  0.5934670000000 1.0
C      1  0.3807040000000  0.5013420000000  0.4783290000000 1.0
C      1  0.5547890000000  0.4475710000000  0.4284590000000 1.0
C      1  0.4981450000000  0.5066620000000  0.3890670000000 1.0
C      1  0.4951510000000  0.3986450000000  0.4679670000000 1.0
C      1  0.4413780000000  0.5395030000000  0.5492740000000 1.0
C      1  0.3947000000000  0.5144120000000  0.4559630000000 1.0
C      1  0.4845720000000  0.5163250000000  0.4886990000000 1.0
C      1  0.4173560000000  0.4706850000000  0.4313960000000 1.0
C      1  0.5524080000000  0.4075350000000  0.4885650000000 1.0
C      1  0.4049420000000  0.4607970000000  0.4765480000000 1.0
C      1  0.4844650000000  0.5236740000000  0.6052750000000 1.0
C      1  0.3879120000000  0.5487180000000  0.5080000000000 1.0
C      1  0.4465830000000  0.5446000000000  0.4945910000000 1.0
C      1  0.5101800000000  0.5168180000000  0.5637700000000 1.0
C      1  0.5134130000000  0.5514570000000  0.5455940000000 1.0
C      1  0.5310570000000  0.3962420000000  0.5055980000000 1.0
C      1  0.4729300000000  0.5886650000000  0.4816480000000 1.0
C      1  0.5641440000000  0.4888080000000  0.4753170000000 1.0
C      1  0.5253990000000  0.3879240000000  0.5545780000000 1.0
C      1  0.4480670000000  0.5918900000000  0.5003190000000 1.0
C      1  0.4501960000000  0.4776310000000  0.3949350000000 1.0
C      1  0.6033950000000  0.5467570000000  0.4992770000000 1.0
C      1  0.4753590000000  0.4582330000000  0.4353670000000 1.0
C      1  0.5395520000000  0.5032490000000  0.4633040000000 1.0
C      1  0.5021160000000  0.3968860000000  0.4963140000000 1.0
C      1  0.4624800000000  0.5301680000000  0.5868510000000 1.0
C      1  0.5061490000000  0.5893480000000  0.4310850000000 1.0
C      1  0.4419810000000  0.4143370000000  0.4685280000000 1.0
C      1  0.5193660000000  0.4801200000000  0.5051620000000 1.0
C      1  0.5812200000000  0.4501090000000  0.4892830000000 1.0
C      1  0.4839000000000  0.5505330000000  0.3982010000000 1.0
C      1  0.5339840000000  0.4551070000000  0.6046770000000 1.0
C      1  0.5381150000000  0.4429430000000  0.5219820000000 1.0
C      1  0.5760200000000  0.5690270000000  0.4362480000000 1.0
C      1  0.4461840000000  0.4713890000000  0.5262080000000 1.0
C      1  0.4806780000000  0.3933180000000  0.5430480000000 1.0
C      1  0.5920110000000  0.5554770000000  0.4542160000000 1.0
C      1  0.5647030000000  0.5225570000000  0.5492890000000 1.0
C      1  0.5451920000000  0.6049890000000  0.5334680000000 1.0
C      1  0.5211390000000  0.5472170000000  0.4596220000000 1.0
C      1  0.6032610000000  0.4637280000000  0.4748880000000 1.0
C      1  0.5301560000000  0.5636040000000  0.4194580000000 1.0
C      1  0.4911290000000  0.5030630000000  0.4414160000000 1.0
C      1  0.4629180000000  0.4941150000000  0.4341500000000 1.0
C      1  0.5611850000000  0.4981430000000  0.4250230000000 1.0
C      1  0.4932070000000  0.6101710000000  0.4779470000000 1.0
C      1  0.4899420000000  0.4798870000000  0.6111270000000 1.0
C      1  0.6119230000000  0.4886590000000  0.4873350000000 1.0
C      1  0.5882570000000  0.5079480000000  0.4647500000000 1.0
C      1  0.3998870000000  0.5447120000000  0.4597450000000 1.0
C      1  0.4789900000000  0.5026620000000  0.6228200000000 1.0
C      1  0.4517400000000  0.5817100000000  0.5285790000000 1.0
C      1  0.5360380000000  0.5290300000000  0.4754840000000 1.0
C      1  0.4114880000000  0.5088090000000  0.5003770000000 1.0
C      1  0.4745400000000  0.5920180000000  0.5448250000000 1.0
C      1  0.4892670000000  0.5460940000000  0.5257370000000 1.0
C      1  0.5131000000000  0.5972220000000  0.4585080000000 1.0
C      1  0.6012620000000  0.5063400000000  0.5840730000000 1.0
C      1  0.5082290000000  0.5683810000000  0.5718220000000 1.0
C      1  0.4937400000000  0.4388200000000  0.4855510000000 1.0
C      1  0.5206210000000  0.5196690000000  0.4028700000000 1.0
C      1  0.5441690000000  0.5862210000000  0.4885000000000 1.0
C      1  0.5436830000000  0.4131310000000  0.4615920000000 1.0
C      1  0.5138320000000  0.4674040000000  0.5540640000000 1.0
C      1  0.4184800000000  0.4997660000000  0.4415250000000 1.0
C      1  0.4822000000000  0.4295650000000  0.4229760000000 1.0
C      1  0.5662960000000  0.5191440000000  0.5158750000000 1.0
C      1  0.5870460000000  0.5022950000000  0.5599540000000 1.0
C      1  0.5555630000000  0.4680580000000  0.5288120000000 1.0
C      1  0.5117530000000  0.4806080000000  0.4283310000000 1.0
C      1  0.5832960000000  0.5076670000000  0.6040740000000 1.0
C      1  0.3816880000000  0.4734540000000  0.4862630000000 1.0
C      1  0.4020490000000  0.4518400000000  0.5260940000000 1.0
C      1  0.4911010000000  0.4731580000000  0.5127990000000 1.0
C      1  0.5864350000000  0.5371720000000  0.4759840000000 1.0
C      1  0.5111030000000  0.4418880000000  0.5374360000000 1.0
C      1  0.4783700000000  0.4731750000000  0.5843450000000 1.0
C      1  0.4569100000000  0.5512320000000  0.5251650000000 1.0
C      1  0.4296030000000  0.5712110000000  0.4852880000000 1.0
C      1  0.4202430000000  0.4703040000000  0.5438930000000 1.0
C      1  0.4939150000000  0.5172560000000  0.5166390000000 1.0
C      1  0.5235670000000  0.5084350000000  0.5185830000000 1.0
C      1  0.5359510000000  0.6087770000000  0.5061520000000 1.0
C      1  0.4706890000000  0.5473090000000  0.4511480000000 1.0
C      1  0.3804940000000  0.4656290000000  0.5134530000000 1.0
C      1  0.4779370000000  0.4927140000000  0.5319300000000 1.0
C      1  0.3971670000000  0.5247670000000  0.5186940000000 1.0
C      1  0.5065390000000  0.6127690000000  0.5053040000000 1.0
C      1  0.4359330000000  0.4614120000000  0.4993880000000 1.0
C      1  0.4415600000000  0.4621050000000  0.4174250000000 1.0
C      1  0.4427470000000  0.4129170000000  0.5675430000000 1.0
C      1  0.5402990000000  0.4795790000000  0.5527800000000 1.0
C      1  0.4239310000000  0.4268340000000  0.4511760000000 1.0
C      1  0.4692890000000  0.5736600000000  0.4045650000000 1.0
C      1  0.4202060000000  0.5574620000000  0.4421130000000 1.0
C      1  0.4500440000000  0.5069550000000  0.3997490000000 1.0
C      1  0.5030120000000  0.4257770000000  0.5773560000000 1.0
C      1  0.3841280000000  0.5085530000000  0.5376420000000 1.0
C      1  0.4374410000000  0.4175310000000  0.4968920000000 1.0
C      1  0.4981750000000  0.6037820000000  0.5324500000000 1.0
C      1  0.5299370000000  0.4373850000000  0.5822730000000 1.0
C      1  0.4478010000000  0.4721850000000  0.4744180000000 1.0
C      1  0.4432740000000  0.5087020000000  0.5808080000000 1.0
C      1  0.4347530000000  0.5175520000000  0.4870080000000 1.0
C      1  0.5215070000000  0.6074760000000  0.5490210000000 1.0
C      1  0.4909010000000  0.4938360000000  0.4697720000000 1.0
C      1  0.5172540000000  0.5721830000000  0.4752800000000 1.0
C      1  0.4676790000000  0.4053700000000  0.4571970000000 1.0
C      1  0.5571950000000  0.5647400000000  0.5053030000000 1.0
C      1  0.5993690000000  0.4831130000000  0.5398630000000 1.0
C      1  0.4498400000000  0.3963610000000  0.5116420000000 1.0
C      1  0.5705910000000  0.4717870000000  0.4336580000000 1.0
C      1  0.5725680000000  0.5232920000000  0.4334280000000 1.0
C      1  0.5747490000000  0.4516840000000  0.5692700000000 1.0
C      1  0.5547330000000  0.4208980000000  0.5380340000000 1.0
C      1  0.5588690000000  0.5723590000000  0.5491510000000 1.0
C      1  0.4642120000000  0.5776060000000  0.4525310000000 1.0
C      1  0.5353600000000  0.5087160000000  0.5470620000000 1.0
C      1  0.4521620000000  0.3949300000000  0.5492610000000 1.0
C      1  0.4421930000000  0.4994510000000  0.4625140000000 1.0
C      1  0.5083920000000  0.4390240000000  0.4565160000000 1.0
C      1  0.5671860000000  0.5971640000000  0.4728260000000 1.0
C      1  0.4960900000000  0.4777700000000  0.3874720000000 1.0
C      1  0.4542920000000  0.4386640000000  0.5621270000000 1.0
C      1  0.5414630000000  0.3951210000000  0.5330840000000 1.0
C      1  0.4771210000000  0.5882000000000  0.4272700000000 1.0
C      1  0.5592140000000  0.5380430000000  0.4917200000000 1.0
C      1  0.4735490000000  0.5426050000000  0.4810600000000 1.0
C      1  0.4560840000000  0.5593470000000  0.5795820000000 1.0
C      1  0.4135330000000  0.4308640000000  0.5079730000000 1.0
C      1  0.5908590000000  0.5924390000000  0.4874410000000 1.0
C      1  0.5123890000000  0.5242690000000  0.5936620000000 1.0
C      1  0.4084910000000  0.4502250000000  0.4503920000000 1.0
C      1  0.4189600000000  0.5145380000000  0.5678620000000 1.0
C      1  0.5291910000000  0.4429330000000  0.4139560000000 1.0
C      1  0.5213200000000  0.4645860000000  0.4518860000000 1.0
C      1  0.5583700000000  0.5000370000000  0.5937380000000 1.0
C      1  0.6040330000000  0.5264030000000  0.5192130000000 1.0
C      1  0.4394690000000  0.5407820000000  0.4300900000000 1.0
END
