TITL C-950536-5891-76 5.58388133032485e-07 125000 -161.116734165869 0 0 27 (C1) n - 1
REM
REM in /home/bkarasulu/work/CARBON/AIRSS/Generating-Clusters/EDIP-Nigel-Params/with-SteepDescent/Only-C1/SD-CG/HFTN-CG
REM
REM
REM
REM
REM
REM ./C.cell (11c1c37f851c82e70ff6c80c92926a4b)
REM
REM compiler GCC version 9.2.1 20190827 (Red Hat 9.2.1-1)
REM options -cpp -mtune=generic -march=x86-64 -g -O0 -fpre-include=/usr/include/finclude/math-vector-fortran.h
REM seed 1207643927 -2068775881 -280397536 -661157396 360138040 -1013520918 1914886548 -1091761200 -1822435762 -1263221540 1386912865 -897405215 1537279543 1350751674 -1942710981 104833135 42887135 -1554512072 1400811342 -1544663249 -278031876 1327998026 -809820621 697915088 -2127680232 -602349669 28470457 19008541 1587385635 224395264 313519243 -1478878060 566189877
REM
CELL 1.54180   50.00000   50.00000   50.00000   90.00000   90.00000   90.00000
LATT -1
SFAC C  
C      1  0.4837660000000  0.4685860000000  0.4540810000000 1.0
C      1  0.4543400000000  0.5196780000000  0.4893010000000 1.0
C      1  0.4826130000000  0.5189200000000  0.5524580000000 1.0
C      1  0.5282650000000  0.5073390000000  0.4775100000000 1.0
C      1  0.4871880000000  0.4850670000000  0.4332520000000 1.0
C      1  0.4656970000000  0.4893870000000  0.5240810000000 1.0
C      1  0.5123640000000  0.4640580000000  0.4954710000000 1.0
C      1  0.4753620000000  0.4915940000000  0.5505890000000 1.0
C      1  0.5525240000000  0.4549650000000  0.5221450000000 1.0
C      1  0.5152110000000  0.4461930000000  0.5188590000000 1.0
C      1  0.4850910000000  0.4917500000000  0.4999170000000 1.0
C      1  0.4659420000000  0.5345930000000  0.5333560000000 1.0
C      1  0.5097600000000  0.5239020000000  0.5476440000000 1.0
C      1  0.5546500000000  0.4807140000000  0.5089430000000 1.0
C      1  0.4972670000000  0.5106440000000  0.4371400000000 1.0
C      1  0.5323040000000  0.4497090000000  0.5402830000000 1.0
C      1  0.5365940000000  0.4799610000000  0.4852560000000 1.0
C      1  0.5213890000000  0.5107470000000  0.4507230000000 1.0
C      1  0.4714230000000  0.5361480000000  0.4741660000000 1.0
C      1  0.4851930000000  0.4663460000000  0.4815520000000 1.0
C      1  0.5232070000000  0.5173620000000  0.5242600000000 1.0
C      1  0.4934820000000  0.5415280000000  0.4927590000000 1.0
C      1  0.4819860000000  0.5513080000000  0.5166990000000 1.0
C      1  0.5077740000000  0.5151150000000  0.4985730000000 1.0
C      1  0.5462440000000  0.5020100000000  0.5254190000000 1.0
C      1  0.4792490000000  0.5282090000000  0.4486490000000 1.0
C      1  0.4511160000000  0.5141680000000  0.5169130000000 1.0
END
