TITL C-951337-3020-311 -8.88937429350864e-07 125000 -653.481078628463 0 0 105 (C1) n - 1
REM
REM in /home/bkarasulu/work/CARBON/AIRSS/Generating-Clusters/EDIP-Nigel-Params/with-SteepDescent/Only-C1/SD-CG/HFTN-CG
REM
REM
REM
REM
REM
REM ./C.cell (11c1c37f851c82e70ff6c80c92926a4b)
REM
REM compiler GCC version 9.2.1 20190827 (Red Hat 9.2.1-1)
REM options -cpp -mtune=generic -march=x86-64 -g -O0 -fpre-include=/usr/include/finclude/math-vector-fortran.h
REM seed 1731210540 815787574 1196112758 953248012 305663119 651104801 -617144789 -283444620 1908735042 -1789287168 1211456114 64728500 938574539 -1734543800 2135984675 -959904048 902557422 289359333 1119896272 -362712284 -45589191 -1754971313 -830081419 802734740 2091081249 -218618480 -302551926 -531216329 1482259818 -583235917 -1826852267 -858479100 1601963662
REM
CELL 1.54180   50.00000   50.00000   50.00000   90.00000   90.00000   90.00000
LATT -1
SFAC C  
C      1  0.5780770000000  0.5231480000000  0.5421010000000 1.0
C      1  0.5741550000000  0.4744980000000  0.5399070000000 1.0
C      1  0.5147380000000  0.5541610000000  0.5404240000000 1.0
C      1  0.4461420000000  0.5157650000000  0.5005810000000 1.0
C      1  0.5666070000000  0.5486200000000  0.4860160000000 1.0
C      1  0.4265160000000  0.4441640000000  0.5291650000000 1.0
C      1  0.4277370000000  0.5005960000000  0.5405650000000 1.0
C      1  0.5087860000000  0.5522180000000  0.5840540000000 1.0
C      1  0.5111140000000  0.4733980000000  0.4051900000000 1.0
C      1  0.4600090000000  0.4804550000000  0.5739950000000 1.0
C      1  0.4708260000000  0.4222690000000  0.5296770000000 1.0
C      1  0.4364630000000  0.4971500000000  0.5690300000000 1.0
C      1  0.5108890000000  0.4330010000000  0.5518300000000 1.0
C      1  0.5569340000000  0.5012150000000  0.5025630000000 1.0
C      1  0.5152330000000  0.4900210000000  0.5587250000000 1.0
C      1  0.4333010000000  0.4971380000000  0.4763930000000 1.0
C      1  0.5800550000000  0.4904830000000  0.4851150000000 1.0
C      1  0.4987210000000  0.4298910000000  0.5251850000000 1.0
C      1  0.5459610000000  0.5087570000000  0.4205810000000 1.0
C      1  0.4954800000000  0.4952390000000  0.3966670000000 1.0
C      1  0.4451380000000  0.5578230000000  0.5571720000000 1.0
C      1  0.5446570000000  0.5282600000000  0.4936450000000 1.0
C      1  0.4127450000000  0.5235420000000  0.5313160000000 1.0
C      1  0.4193560000000  0.4688700000000  0.4820520000000 1.0
C      1  0.4697440000000  0.5693600000000  0.5201850000000 1.0
C      1  0.4455540000000  0.5578440000000  0.5294000000000 1.0
C      1  0.5281970000000  0.5040580000000  0.5361130000000 1.0
C      1  0.4545350000000  0.4713850000000  0.5087590000000 1.0
C      1  0.5809210000000  0.4993000000000  0.5235720000000 1.0
C      1  0.4483780000000  0.4868300000000  0.4232610000000 1.0
C      1  0.4841200000000  0.4400760000000  0.4390680000000 1.0
C      1  0.5370890000000  0.5591060000000  0.5687680000000 1.0
C      1  0.4318150000000  0.4680540000000  0.4357520000000 1.0
C      1  0.5323680000000  0.5212520000000  0.4654820000000 1.0
C      1  0.5499710000000  0.4751350000000  0.4554740000000 1.0
C      1  0.4510920000000  0.4380810000000  0.5422400000000 1.0
C      1  0.5223590000000  0.5266830000000  0.5956210000000 1.0
C      1  0.5660800000000  0.4651680000000  0.4778360000000 1.0
C      1  0.4587020000000  0.5425960000000  0.5761160000000 1.0
C      1  0.5535590000000  0.5043620000000  0.4502420000000 1.0
C      1  0.4420080000000  0.5211140000000  0.5822390000000 1.0
C      1  0.4140630000000  0.5121980000000  0.4605350000000 1.0
C      1  0.4286370000000  0.5537200000000  0.4848640000000 1.0
C      1  0.5005240000000  0.5086750000000  0.5798690000000 1.0
C      1  0.4925030000000  0.5158040000000  0.5121400000000 1.0
C      1  0.5016480000000  0.5700020000000  0.4806120000000 1.0
C      1  0.5372460000000  0.4468210000000  0.5518030000000 1.0
C      1  0.4899850000000  0.5681870000000  0.5388820000000 1.0
C      1  0.4726600000000  0.5276630000000  0.4929000000000 1.0
C      1  0.4780140000000  0.4675250000000  0.4644140000000 1.0
C      1  0.4464010000000  0.4332530000000  0.4662510000000 1.0
C      1  0.4914920000000  0.4461210000000  0.5692060000000 1.0
C      1  0.4741180000000  0.5426840000000  0.4495160000000 1.0
C      1  0.5064520000000  0.4961970000000  0.4959880000000 1.0
C      1  0.4996430000000  0.4590300000000  0.5174520000000 1.0
C      1  0.5265850000000  0.4265660000000  0.4571030000000 1.0
C      1  0.5725800000000  0.5491740000000  0.5301940000000 1.0
C      1  0.4777070000000  0.5012530000000  0.5337920000000 1.0
C      1  0.4512890000000  0.4961280000000  0.5223720000000 1.0
C      1  0.5288080000000  0.5741450000000  0.4927070000000 1.0
C      1  0.5108390000000  0.4163730000000  0.5010350000000 1.0
C      1  0.4985150000000  0.4182800000000  0.4532160000000 1.0
C      1  0.5189930000000  0.5298620000000  0.5218510000000 1.0
C      1  0.5353730000000  0.5800050000000  0.5212130000000 1.0
C      1  0.5402310000000  0.4804520000000  0.4093820000000 1.0
C      1  0.4761020000000  0.5658170000000  0.4930180000000 1.0
C      1  0.5516400000000  0.5710880000000  0.4741430000000 1.0
C      1  0.5486670000000  0.5331470000000  0.5817480000000 1.0
C      1  0.5456280000000  0.5654500000000  0.4471970000000 1.0
C      1  0.4595100000000  0.4927780000000  0.4590240000000 1.0
C      1  0.4788460000000  0.5170350000000  0.4656100000000 1.0
C      1  0.4970280000000  0.5167960000000  0.4141700000000 1.0
C      1  0.4658090000000  0.4309910000000  0.4868300000000 1.0
C      1  0.5548790000000  0.5696760000000  0.5417850000000 1.0
C      1  0.5325240000000  0.4300170000000  0.4863740000000 1.0
C      1  0.5080760000000  0.4581610000000  0.4323740000000 1.0
C      1  0.4729390000000  0.5310180000000  0.4222250000000 1.0
C      1  0.4760950000000  0.4584680000000  0.4951480000000 1.0
C      1  0.4428340000000  0.5506920000000  0.4599100000000 1.0
C      1  0.5251170000000  0.5451140000000  0.4461660000000 1.0
C      1  0.5812450000000  0.5100130000000  0.4615470000000 1.0
C      1  0.4145980000000  0.4543000000000  0.5065660000000 1.0
C      1  0.4634030000000  0.4523910000000  0.5652900000000 1.0
C      1  0.4791160000000  0.4922070000000  0.5918040000000 1.0
C      1  0.5855280000000  0.5368090000000  0.4693000000000 1.0
C      1  0.4292550000000  0.5395410000000  0.5116170000000 1.0
C      1  0.5610880000000  0.5137470000000  0.5636290000000 1.0
C      1  0.5516310000000  0.4493070000000  0.4984440000000 1.0
C      1  0.4921100000000  0.4758120000000  0.5437750000000 1.0
C      1  0.4471560000000  0.5161730000000  0.4237910000000 1.0
C      1  0.5631260000000  0.4841450000000  0.5665060000000 1.0
C      1  0.5385740000000  0.4355040000000  0.4318270000000 1.0
C      1  0.5071230000000  0.5038230000000  0.4684310000000 1.0
C      1  0.4304450000000  0.5286580000000  0.4450020000000 1.0
C      1  0.5289880000000  0.4841390000000  0.5119880000000 1.0
C      1  0.4274940000000  0.4527430000000  0.4589750000000 1.0
C      1  0.5515890000000  0.4611780000000  0.4300690000000 1.0
C      1  0.5231850000000  0.5286910000000  0.4201510000000 1.0
C      1  0.5366500000000  0.4703060000000  0.5704590000000 1.0
C      1  0.5555770000000  0.4537890000000  0.5283110000000 1.0
C      1  0.5057040000000  0.4767890000000  0.4561660000000 1.0
C      1  0.5849690000000  0.5552740000000  0.5058620000000 1.0
C      1  0.4995490000000  0.5583430000000  0.4542390000000 1.0
C      1  0.4884230000000  0.4122820000000  0.4809620000000 1.0
C      1  0.4873380000000  0.5365810000000  0.5701960000000 1.0
END
