TITL C-950533-5798-432 -1.13902617974818e-08 125000 -199.986653010158 0 0 34 (C1) n - 1
REM
REM in /home/bkarasulu/work/CARBON/AIRSS/Generating-Clusters/EDIP-Nigel-Params/with-SteepDescent/Only-C1/SD-CG/HFTN-CG
REM
REM
REM
REM
REM
REM ./C.cell (11c1c37f851c82e70ff6c80c92926a4b)
REM
REM compiler GCC version 9.2.1 20190827 (Red Hat 9.2.1-1)
REM options -cpp -mtune=generic -march=x86-64 -g -O0 -fpre-include=/usr/include/finclude/math-vector-fortran.h
REM seed -1949102626 200710648 -375986809 -1006378113 507768412 981782065 -1612086539 -1842506488 -1726712403 -1799877495 823726437 -653034806 455624077 -1348542086 773318946 944756019 -1676939456 84457081 -42892151 -1032794231 878471527 -1451608745 -1284182022 -1186559638 -837065505 328060105 -1047619699 -1430048465 131822819 -2023637310 276579387 -194935051 2035163460
REM
CELL 1.54180   50.00000   50.00000   50.00000   90.00000   90.00000   90.00000
LATT -1
SFAC C  
C      1  0.5518470000000  0.5244680000000  0.5008310000000 1.0
C      1  0.4544540000000  0.4666980000000  0.4856390000000 1.0
C      1  0.4900660000000  0.5342660000000  0.5241220000000 1.0
C      1  0.5095760000000  0.4987520000000  0.4931700000000 1.0
C      1  0.5355760000000  0.4648300000000  0.5176440000000 1.0
C      1  0.5236120000000  0.4934020000000  0.4395000000000 1.0
C      1  0.4463850000000  0.5342710000000  0.5031030000000 1.0
C      1  0.4947920000000  0.5054790000000  0.5236120000000 1.0
C      1  0.4889320000000  0.4504570000000  0.5208090000000 1.0
C      1  0.5056200000000  0.4729700000000  0.4390660000000 1.0
C      1  0.5360670000000  0.5115230000000  0.4553760000000 1.0
C      1  0.4734830000000  0.5458500000000  0.5042270000000 1.0
C      1  0.5532960000000  0.4883710000000  0.5270230000000 1.0
C      1  0.5294400000000  0.5189370000000  0.4818110000000 1.0
C      1  0.5383510000000  0.5089150000000  0.5433900000000 1.0
C      1  0.4355150000000  0.5171710000000  0.4815110000000 1.0
C      1  0.5241810000000  0.4713310000000  0.4912410000000 1.0
C      1  0.5109280000000  0.4991320000000  0.5484950000000 1.0
C      1  0.5676670000000  0.5012030000000  0.5059870000000 1.0
C      1  0.4812650000000  0.5147690000000  0.4530160000000 1.0
C      1  0.4687530000000  0.4545690000000  0.4646370000000 1.0
C      1  0.5125730000000  0.4568110000000  0.5352340000000 1.0
C      1  0.4669960000000  0.4663900000000  0.5126420000000 1.0
C      1  0.5084160000000  0.5740480000000  0.5078370000000 1.0
C      1  0.4444760000000  0.5094700000000  0.5187460000000 1.0
C      1  0.4671920000000  0.4927300000000  0.5253640000000 1.0
C      1  0.5397980000000  0.5350100000000  0.5268710000000 1.0
C      1  0.4953820000000  0.4529700000000  0.4560140000000 1.0
C      1  0.5134060000000  0.5508430000000  0.5237030000000 1.0
C      1  0.4387750000000  0.4894560000000  0.4798870000000 1.0
C      1  0.5126370000000  0.4495920000000  0.4775430000000 1.0
C      1  0.4882620000000  0.5003000000000  0.4735060000000 1.0
C      1  0.5102790000000  0.4726140000000  0.5583640000000 1.0
C      1  0.4819990000000  0.5724060000000  0.5000770000000 1.0
END
