TITL C-951344-124-223 -2.35987111178284e-06 125000 -743.925236705566 0 0 118 (C1) n - 1
REM
REM in /home/bkarasulu/work/CARBON/AIRSS/Generating-Clusters/EDIP-Nigel-Params/with-SteepDescent/Only-C1/SD-CG/HFTN-CG
REM
REM
REM
REM
REM
REM ./C.cell (11c1c37f851c82e70ff6c80c92926a4b)
REM
REM compiler GCC version 9.2.1 20190827 (Red Hat 9.2.1-1)
REM options -cpp -mtune=generic -march=x86-64 -g -O0 -fpre-include=/usr/include/finclude/math-vector-fortran.h
REM seed -1666934297 1644200815 -498329888 868218778 -1289827903 -2073086226 -824082974 1450935989 744881749 -406527393 -9982 -318027338 366123569 438714887 -789738357 661242192 -1787868576 -816400970 -1011317860 -110268543 -1063102848 -2059586793 1346222169 82311972 66588178 -1937137891 463615531 -1905026354 1110580802 -554543567 285409964 680828899 -1814463727
REM
CELL 1.54180   50.00000   50.00000   50.00000   90.00000   90.00000   90.00000
LATT -1
SFAC C  
C      1  0.4927790000000  0.5884980000000  0.4618820000000 1.0
C      1  0.5489220000000  0.5288420000000  0.5542880000000 1.0
C      1  0.5469120000000  0.5842020000000  0.5088340000000 1.0
C      1  0.5211780000000  0.4529140000000  0.4372550000000 1.0
C      1  0.4140740000000  0.5260280000000  0.5542380000000 1.0
C      1  0.5647730000000  0.4976680000000  0.5036750000000 1.0
C      1  0.4600090000000  0.4921250000000  0.4685420000000 1.0
C      1  0.5102340000000  0.4884070000000  0.4064350000000 1.0
C      1  0.4166350000000  0.5460260000000  0.5106760000000 1.0
C      1  0.4966470000000  0.5107330000000  0.4995240000000 1.0
C      1  0.5342880000000  0.5825670000000  0.5342050000000 1.0
C      1  0.4581230000000  0.5272210000000  0.5725930000000 1.0
C      1  0.4721360000000  0.4462140000000  0.4366230000000 1.0
C      1  0.4373360000000  0.4840100000000  0.5546730000000 1.0
C      1  0.4534370000000  0.4263850000000  0.4812910000000 1.0
C      1  0.4995390000000  0.4936330000000  0.4427900000000 1.0
C      1  0.5392770000000  0.5328650000000  0.4954640000000 1.0
C      1  0.4011660000000  0.4770110000000  0.4906520000000 1.0
C      1  0.5412950000000  0.4733290000000  0.4461240000000 1.0
C      1  0.4383500000000  0.4285620000000  0.5355940000000 1.0
C      1  0.5504340000000  0.4449870000000  0.5687270000000 1.0
C      1  0.4590030000000  0.4557680000000  0.4141390000000 1.0
C      1  0.5053260000000  0.5804530000000  0.5364290000000 1.0
C      1  0.4931760000000  0.5628310000000  0.5579200000000 1.0
C      1  0.4969130000000  0.5747470000000  0.4360210000000 1.0
C      1  0.4737280000000  0.4416320000000  0.5640090000000 1.0
C      1  0.5054380000000  0.4737160000000  0.5688510000000 1.0
C      1  0.5358250000000  0.5320540000000  0.4647490000000 1.0
C      1  0.4599960000000  0.4836530000000  0.4161890000000 1.0
C      1  0.6067090000000  0.4926410000000  0.4908470000000 1.0
C      1  0.4935520000000  0.4596120000000  0.4780760000000 1.0
C      1  0.5582950000000  0.4588460000000  0.4656580000000 1.0
C      1  0.4402840000000  0.5135590000000  0.5526180000000 1.0
C      1  0.4256220000000  0.5176990000000  0.5036370000000 1.0
C      1  0.5152710000000  0.4144350000000  0.4821090000000 1.0
C      1  0.5726600000000  0.5302190000000  0.5352070000000 1.0
C      1  0.4734710000000  0.4105970000000  0.4971440000000 1.0
C      1  0.5619820000000  0.4400260000000  0.5116390000000 1.0
C      1  0.4627310000000  0.4210520000000  0.5461110000000 1.0
C      1  0.4592080000000  0.4679030000000  0.5658130000000 1.0
C      1  0.5333690000000  0.4094270000000  0.4615580000000 1.0
C      1  0.4655670000000  0.5696560000000  0.5125500000000 1.0
C      1  0.5091220000000  0.5865080000000  0.4862780000000 1.0
C      1  0.4797380000000  0.4834580000000  0.5782760000000 1.0
C      1  0.4272350000000  0.5372790000000  0.4552150000000 1.0
C      1  0.5639100000000  0.5569040000000  0.4682060000000 1.0
C      1  0.4732530000000  0.5415900000000  0.5243510000000 1.0
C      1  0.5029250000000  0.5322010000000  0.5210190000000 1.0
C      1  0.5416470000000  0.5545910000000  0.5679990000000 1.0
C      1  0.5442600000000  0.4555660000000  0.4933560000000 1.0
C      1  0.4491670000000  0.5866190000000  0.5304920000000 1.0
C      1  0.5889110000000  0.5051960000000  0.5408720000000 1.0
C      1  0.5948620000000  0.5144010000000  0.4708350000000 1.0
C      1  0.5088320000000  0.5204580000000  0.5789540000000 1.0
C      1  0.5213860000000  0.4230150000000  0.5373680000000 1.0
C      1  0.4673040000000  0.5335760000000  0.4310530000000 1.0
C      1  0.5765740000000  0.5001690000000  0.4500610000000 1.0
C      1  0.5475960000000  0.4201040000000  0.5253270000000 1.0
C      1  0.4222920000000  0.5150070000000  0.4729020000000 1.0
C      1  0.4382980000000  0.5268720000000  0.4289860000000 1.0
C      1  0.4425850000000  0.4526490000000  0.4915600000000 1.0
C      1  0.4543370000000  0.5162840000000  0.5230370000000 1.0
C      1  0.4303460000000  0.4491180000000  0.5189480000000 1.0
C      1  0.4826920000000  0.4977010000000  0.4024720000000 1.0
C      1  0.5286320000000  0.4265880000000  0.4415150000000 1.0
C      1  0.4775620000000  0.5118190000000  0.4545390000000 1.0
C      1  0.5256910000000  0.4882590000000  0.5323990000000 1.0
C      1  0.5009130000000  0.4728410000000  0.5349910000000 1.0
C      1  0.4848880000000  0.5261770000000  0.4083080000000 1.0
C      1  0.5837540000000  0.4725580000000  0.4588530000000 1.0
C      1  0.4915400000000  0.5853060000000  0.5111070000000 1.0
C      1  0.5290120000000  0.4977330000000  0.5839400000000 1.0
C      1  0.5144200000000  0.4431260000000  0.4931270000000 1.0
C      1  0.4636890000000  0.5555050000000  0.5649890000000 1.0
C      1  0.4315460000000  0.5658980000000  0.4956500000000 1.0
C      1  0.5189170000000  0.4944800000000  0.4876750000000 1.0
C      1  0.5390500000000  0.4837100000000  0.5055760000000 1.0
C      1  0.4223970000000  0.4742040000000  0.5314770000000 1.0
C      1  0.4359060000000  0.4969720000000  0.4284930000000 1.0
C      1  0.5565250000000  0.5037350000000  0.4275710000000 1.0
C      1  0.4767170000000  0.4909370000000  0.5145530000000 1.0
C      1  0.5199930000000  0.5525910000000  0.5055970000000 1.0
C      1  0.5549460000000  0.5081650000000  0.5751770000000 1.0
C      1  0.5754740000000  0.4900900000000  0.5635520000000 1.0
C      1  0.5052460000000  0.3987360000000  0.5353260000000 1.0
C      1  0.4950620000000  0.4623770000000  0.4483000000000 1.0
C      1  0.5067310000000  0.4449160000000  0.5223570000000 1.0
C      1  0.4326820000000  0.4906990000000  0.4595390000000 1.0
C      1  0.5175320000000  0.5547410000000  0.4326760000000 1.0
C      1  0.5256350000000  0.4990670000000  0.4591250000000 1.0
C      1  0.4409300000000  0.5672810000000  0.5490570000000 1.0
C      1  0.4590650000000  0.4286060000000  0.4539670000000 1.0
C      1  0.4698900000000  0.5639330000000  0.4332050000000 1.0
C      1  0.5787110000000  0.4581070000000  0.5280910000000 1.0
C      1  0.5298050000000  0.5084510000000  0.4145870000000 1.0
C      1  0.5262370000000  0.4306710000000  0.5656860000000 1.0
C      1  0.5216250000000  0.5166100000000  0.5421630000000 1.0
C      1  0.4180690000000  0.5499220000000  0.5399680000000 1.0
C      1  0.4874200000000  0.5274950000000  0.4764350000000 1.0
C      1  0.5825400000000  0.5391360000000  0.4842080000000 1.0
C      1  0.4926070000000  0.3980530000000  0.4814980000000 1.0
C      1  0.5673330000000  0.4628720000000  0.5548360000000 1.0
C      1  0.5134340000000  0.5502770000000  0.5754510000000 1.0
C      1  0.5490730000000  0.5794720000000  0.5574400000000 1.0
C      1  0.5024760000000  0.4446880000000  0.5759340000000 1.0
C      1  0.5463280000000  0.5772950000000  0.4813870000000 1.0
C      1  0.4812400000000  0.5115890000000  0.5783340000000 1.0
C      1  0.4684810000000  0.4730510000000  0.4898790000000 1.0
C      1  0.6064850000000  0.4688490000000  0.4757730000000 1.0
C      1  0.5657100000000  0.5267340000000  0.5057540000000 1.0
C      1  0.5132490000000  0.5327270000000  0.4147450000000 1.0
C      1  0.4383890000000  0.5607140000000  0.4685630000000 1.0
C      1  0.4804310000000  0.4093630000000  0.5262310000000 1.0
C      1  0.5879910000000  0.4862430000000  0.5167370000000 1.0
C      1  0.4093430000000  0.4930280000000  0.5126230000000 1.0
C      1  0.4569370000000  0.5774420000000  0.4550730000000 1.0
C      1  0.4212030000000  0.4662060000000  0.4738950000000 1.0
C      1  0.5075990000000  0.5479400000000  0.4691410000000 1.0
END
