TITL C-950529-3362-106 5.07538141773474e-07 125000 -244.172943633863 0 0 41 (C1) n - 1
REM
REM in /home/bkarasulu/work/CARBON/AIRSS/Generating-Clusters/EDIP-Nigel-Params/with-SteepDescent/Only-C1/SD-CG/HFTN-CG
REM
REM
REM
REM
REM
REM ./C.cell (11c1c37f851c82e70ff6c80c92926a4b)
REM
REM compiler GCC version 9.2.1 20190827 (Red Hat 9.2.1-1)
REM options -cpp -mtune=generic -march=x86-64 -g -O0 -fpre-include=/usr/include/finclude/math-vector-fortran.h
REM seed -704185884 -1309069461 716779607 2091687246 876055638 544816382 -105302501 -201672787 -1436182434 -1553534787 1704466744 196280358 1893111827 -476120670 -67901959 -1796745242 603742523 -246851635 761102566 -135717620 2121884030 798489580 267726266 255129516 1557344777 1258426552 -2003864863 -317879104 -1646878090 814782672 83291805 1550044980 -1048475868
REM
CELL 1.54180   50.00000   50.00000   50.00000   90.00000   90.00000   90.00000
LATT -1
SFAC C  
C      1  0.5152620000000  0.4589750000000  0.4900810000000 1.0
C      1  0.5334250000000  0.4619830000000  0.5119710000000 1.0
C      1  0.5186490000000  0.5323640000000  0.5102860000000 1.0
C      1  0.5246780000000  0.5490130000000  0.4758900000000 1.0
C      1  0.5686640000000  0.5048870000000  0.4607150000000 1.0
C      1  0.5002110000000  0.4912920000000  0.4409200000000 1.0
C      1  0.4377450000000  0.5244280000000  0.5125580000000 1.0
C      1  0.4977870000000  0.5097990000000  0.4632820000000 1.0
C      1  0.5236670000000  0.5212890000000  0.4679630000000 1.0
C      1  0.4875140000000  0.4682260000000  0.4941440000000 1.0
C      1  0.4888610000000  0.5001960000000  0.5396350000000 1.0
C      1  0.4774200000000  0.4663890000000  0.5233510000000 1.0
C      1  0.5768920000000  0.5104840000000  0.4856480000000 1.0
C      1  0.5283250000000  0.4827400000000  0.4413040000000 1.0
C      1  0.5482630000000  0.5341140000000  0.5171570000000 1.0
C      1  0.5198720000000  0.4697470000000  0.5362400000000 1.0
C      1  0.4865900000000  0.5618100000000  0.5095950000000 1.0
C      1  0.5188080000000  0.4522460000000  0.4621340000000 1.0
C      1  0.4490440000000  0.4787620000000  0.5278210000000 1.0
C      1  0.5584100000000  0.4881460000000  0.5249450000000 1.0
C      1  0.4487880000000  0.5374390000000  0.4887100000000 1.0
C      1  0.5662560000000  0.5122090000000  0.5114070000000 1.0
C      1  0.4590700000000  0.4990200000000  0.5470290000000 1.0
C      1  0.4945320000000  0.5129040000000  0.5121490000000 1.0
C      1  0.5031830000000  0.5648890000000  0.4859300000000 1.0
C      1  0.5424020000000  0.5058790000000  0.4519190000000 1.0
C      1  0.4553550000000  0.5004910000000  0.4802170000000 1.0
C      1  0.4651220000000  0.5604040000000  0.4906300000000 1.0
C      1  0.4847320000000  0.4984160000000  0.4876630000000 1.0
C      1  0.4791990000000  0.5424860000000  0.5410270000000 1.0
C      1  0.4702890000000  0.4537440000000  0.4737920000000 1.0
C      1  0.4780000000000  0.4708600000000  0.4394370000000 1.0
C      1  0.4370600000000  0.4949990000000  0.5052440000000 1.0
C      1  0.5071240000000  0.4504270000000  0.5520380000000 1.0
C      1  0.4842900000000  0.4433940000000  0.5393350000000 1.0
C      1  0.5284350000000  0.5201650000000  0.5462830000000 1.0
C      1  0.4996470000000  0.5245640000000  0.5548890000000 1.0
C      1  0.4530290000000  0.5271760000000  0.5387930000000 1.0
C      1  0.4919030000000  0.4456140000000  0.4520380000000 1.0
C      1  0.5377230000000  0.4912420000000  0.5454660000000 1.0
C      1  0.4537740000000  0.4767880000000  0.4603660000000 1.0
END
