TITL C-951348-1603-461 -1.95004522368689e-06 125000 -1140.0438030688 0 0 182 (C1) n - 1
REM
REM in /home/bkarasulu/work/CARBON/AIRSS/Generating-Clusters/EDIP-Nigel-Params/with-SteepDescent/Only-C1/SD-CG/HFTN-CG
REM
REM
REM
REM
REM
REM ./C.cell (11c1c37f851c82e70ff6c80c92926a4b)
REM
REM compiler GCC version 9.2.1 20190827 (Red Hat 9.2.1-1)
REM options -cpp -mtune=generic -march=x86-64 -g -O0 -fpre-include=/usr/include/finclude/math-vector-fortran.h
REM seed 316971992 -1444868109 -604682701 561041706 -406375350 1539395217 936394563 1748250746 -207081858 320556155 -911265198 -916090181 -9986554 570988235 1142767451 1772636200 1223401558 1277596288 -1604915148 643888499 1923382036 -406928599 -588214825 -2058353060 -1956054153 1036864308 619841363 -1508996995 269808379 1661239282 1323289070 275562133 -1583325380
REM
CELL 1.54180   50.00000   50.00000   50.00000   90.00000   90.00000   90.00000
LATT -1
SFAC C  
C      1  0.5678770000000  0.4396330000000  0.5376750000000 1.0
C      1  0.4431650000000  0.4668260000000  0.4869840000000 1.0
C      1  0.4699650000000  0.6001640000000  0.5050260000000 1.0
C      1  0.5967030000000  0.4966860000000  0.4716080000000 1.0
C      1  0.4943080000000  0.3787270000000  0.4803060000000 1.0
C      1  0.5263770000000  0.5833920000000  0.5933080000000 1.0
C      1  0.5555100000000  0.4630080000000  0.5791410000000 1.0
C      1  0.3930230000000  0.4982540000000  0.5347970000000 1.0
C      1  0.4130290000000  0.4298940000000  0.4658580000000 1.0
C      1  0.5603130000000  0.5566430000000  0.4255210000000 1.0
C      1  0.4528140000000  0.5690360000000  0.5663400000000 1.0
C      1  0.4978600000000  0.4118460000000  0.4200220000000 1.0
C      1  0.5291830000000  0.4173960000000  0.5337570000000 1.0
C      1  0.4965340000000  0.4575210000000  0.5612290000000 1.0
C      1  0.5231760000000  0.4393010000000  0.6082650000000 1.0
C      1  0.5363620000000  0.5873070000000  0.4972450000000 1.0
C      1  0.5732030000000  0.4619750000000  0.4509630000000 1.0
C      1  0.4481580000000  0.5184830000000  0.5643790000000 1.0
C      1  0.4759600000000  0.4154380000000  0.5725150000000 1.0
C      1  0.4148370000000  0.4570370000000  0.4810400000000 1.0
C      1  0.4295180000000  0.5844260000000  0.4965010000000 1.0
C      1  0.3997630000000  0.5254820000000  0.4947260000000 1.0
C      1  0.4251290000000  0.4618160000000  0.5545240000000 1.0
C      1  0.4535260000000  0.4728400000000  0.5472440000000 1.0
C      1  0.4728870000000  0.3802620000000  0.5001740000000 1.0
C      1  0.4231410000000  0.5373560000000  0.4783520000000 1.0
C      1  0.5534980000000  0.4385380000000  0.4926300000000 1.0
C      1  0.4363610000000  0.5989560000000  0.4731610000000 1.0
C      1  0.4920480000000  0.6173680000000  0.5106410000000 1.0
C      1  0.4390650000000  0.5128310000000  0.4731440000000 1.0
C      1  0.4443970000000  0.4249100000000  0.5001250000000 1.0
C      1  0.5984190000000  0.5265960000000  0.4328470000000 1.0
C      1  0.6064680000000  0.5149220000000  0.4921050000000 1.0
C      1  0.5880320000000  0.4695230000000  0.4755000000000 1.0
C      1  0.5846760000000  0.4645980000000  0.5792400000000 1.0
C      1  0.5081340000000  0.5238450000000  0.5041370000000 1.0
C      1  0.5013500000000  0.4604370000000  0.3947670000000 1.0
C      1  0.5733600000000  0.4619820000000  0.4991820000000 1.0
C      1  0.5140150000000  0.5876210000000  0.5421610000000 1.0
C      1  0.5711720000000  0.5409380000000  0.4959270000000 1.0
C      1  0.5301240000000  0.5410690000000  0.4631210000000 1.0
C      1  0.5197950000000  0.4595200000000  0.5433160000000 1.0
C      1  0.4424590000000  0.5006180000000  0.5006460000000 1.0
C      1  0.5028490000000  0.5022910000000  0.4407940000000 1.0
C      1  0.4615820000000  0.4899040000000  0.5718140000000 1.0
C      1  0.5309930000000  0.4081310000000  0.4661280000000 1.0
C      1  0.4737820000000  0.4707890000000  0.4908750000000 1.0
C      1  0.4197540000000  0.5100820000000  0.5734110000000 1.0
C      1  0.3897090000000  0.4976010000000  0.4865730000000 1.0
C      1  0.4400370000000  0.5700790000000  0.5399080000000 1.0
C      1  0.4970350000000  0.6119080000000  0.5383480000000 1.0
C      1  0.5118760000000  0.6052090000000  0.4654660000000 1.0
C      1  0.5630740000000  0.5739140000000  0.5625440000000 1.0
C      1  0.5441060000000  0.5647640000000  0.5826460000000 1.0
C      1  0.4366840000000  0.4227820000000  0.5282330000000 1.0
C      1  0.5119940000000  0.4012380000000  0.5172420000000 1.0
C      1  0.5598860000000  0.5160600000000  0.5833520000000 1.0
C      1  0.4920520000000  0.4855240000000  0.5749010000000 1.0
C      1  0.5259570000000  0.4203820000000  0.5637280000000 1.0
C      1  0.6037350000000  0.5081290000000  0.5194670000000 1.0
C      1  0.4132500000000  0.5460000000000  0.4516820000000 1.0
C      1  0.4788630000000  0.4784660000000  0.3899710000000 1.0
C      1  0.5245220000000  0.4796670000000  0.4988120000000 1.0
C      1  0.4977140000000  0.4510080000000  0.6088440000000 1.0
C      1  0.4473360000000  0.4804670000000  0.5966040000000 1.0
C      1  0.4017560000000  0.4555890000000  0.5085560000000 1.0
C      1  0.5848100000000  0.5496950000000  0.4402370000000 1.0
C      1  0.4824520000000  0.4021880000000  0.5191260000000 1.0
C      1  0.4893430000000  0.4357000000000  0.4045290000000 1.0
C      1  0.5359920000000  0.5129070000000  0.4671640000000 1.0
C      1  0.5429840000000  0.5376190000000  0.5928250000000 1.0
C      1  0.4692340000000  0.5400880000000  0.6022430000000 1.0
C      1  0.5184490000000  0.5713840000000  0.5162600000000 1.0
C      1  0.4744160000000  0.4509940000000  0.5403610000000 1.0
C      1  0.4369390000000  0.5315680000000  0.4155200000000 1.0
C      1  0.4646790000000  0.4215950000000  0.5440860000000 1.0
C      1  0.4851820000000  0.5924990000000  0.4597330000000 1.0
C      1  0.5904060000000  0.4507760000000  0.5225230000000 1.0
C      1  0.5541330000000  0.4858180000000  0.5077100000000 1.0
C      1  0.4719420000000  0.5989650000000  0.5493440000000 1.0
C      1  0.4528340000000  0.5111940000000  0.4047290000000 1.0
C      1  0.5160780000000  0.5255310000000  0.5952500000000 1.0
C      1  0.5587970000000  0.4193880000000  0.4697460000000 1.0
C      1  0.6011240000000  0.4775500000000  0.5600920000000 1.0
C      1  0.5502180000000  0.5954930000000  0.5456830000000 1.0
C      1  0.5546070000000  0.4293960000000  0.4223690000000 1.0
C      1  0.4911020000000  0.5731340000000  0.5599840000000 1.0
C      1  0.5526460000000  0.4241000000000  0.5194640000000 1.0
C      1  0.4692170000000  0.4590150000000  0.4477790000000 1.0
C      1  0.5567090000000  0.6013180000000  0.5169580000000 1.0
C      1  0.3869740000000  0.4811200000000  0.5114810000000 1.0
C      1  0.5512370000000  0.5610410000000  0.4762430000000 1.0
C      1  0.5492640000000  0.4607920000000  0.5496850000000 1.0
C      1  0.5574370000000  0.5162560000000  0.5050610000000 1.0
C      1  0.4527170000000  0.5430680000000  0.5804790000000 1.0
C      1  0.5013120000000  0.5255220000000  0.4032350000000 1.0
C      1  0.4767220000000  0.5429420000000  0.4573720000000 1.0
C      1  0.5394600000000  0.4368300000000  0.5858930000000 1.0
C      1  0.5144680000000  0.5674900000000  0.4238800000000 1.0
C      1  0.4657010000000  0.5168860000000  0.4628310000000 1.0
C      1  0.5337470000000  0.5259820000000  0.5205590000000 1.0
C      1  0.4289080000000  0.5678400000000  0.4417800000000 1.0
C      1  0.5117460000000  0.5021790000000  0.4816160000000 1.0
C      1  0.5418090000000  0.4657470000000  0.4525880000000 1.0
C      1  0.4498700000000  0.4154470000000  0.4146860000000 1.0
C      1  0.4982440000000  0.4364200000000  0.4719140000000 1.0
C      1  0.5222890000000  0.4965720000000  0.6077870000000 1.0
C      1  0.5720180000000  0.5228170000000  0.5569690000000 1.0
C      1  0.4274670000000  0.4451030000000  0.5779740000000 1.0
C      1  0.5083330000000  0.5134770000000  0.5652990000000 1.0
C      1  0.4261070000000  0.4101850000000  0.4828380000000 1.0
C      1  0.4538610000000  0.4648370000000  0.3984870000000 1.0
C      1  0.6080860000000  0.5429770000000  0.4845220000000 1.0
C      1  0.4164310000000  0.4440820000000  0.5325530000000 1.0
C      1  0.5551070000000  0.4870280000000  0.5381230000000 1.0
C      1  0.4051210000000  0.5237000000000  0.5240710000000 1.0
C      1  0.5394340000000  0.5744520000000  0.4354680000000 1.0
C      1  0.5907770000000  0.5013180000000  0.5445630000000 1.0
C      1  0.5779660000000  0.5518130000000  0.5481970000000 1.0
C      1  0.5452540000000  0.4904050000000  0.5890390000000 1.0
C      1  0.4563820000000  0.4355660000000  0.4587290000000 1.0
C      1  0.4833220000000  0.4506060000000  0.5108280000000 1.0
C      1  0.5413810000000  0.4936760000000  0.4009050000000 1.0
C      1  0.4440790000000  0.5951840000000  0.5220680000000 1.0
C      1  0.4709370000000  0.5018560000000  0.4379750000000 1.0
C      1  0.4509940000000  0.5532510000000  0.4298810000000 1.0
C      1  0.4156490000000  0.5217540000000  0.4339420000000 1.0
C      1  0.4904640000000  0.4710180000000  0.4646920000000 1.0
C      1  0.4755360000000  0.4248140000000  0.4986500000000 1.0
C      1  0.4748270000000  0.5613910000000  0.4816190000000 1.0
C      1  0.5792090000000  0.5853240000000  0.5080560000000 1.0
C      1  0.4959290000000  0.5471300000000  0.6033540000000 1.0
C      1  0.5164780000000  0.4114460000000  0.4417350000000 1.0
C      1  0.5298730000000  0.5204350000000  0.3971820000000 1.0
C      1  0.4345250000000  0.5211550000000  0.5239270000000 1.0
C      1  0.5356680000000  0.5107380000000  0.5470340000000 1.0
C      1  0.4706650000000  0.5693350000000  0.4149370000000 1.0
C      1  0.5255780000000  0.4691410000000  0.4074380000000 1.0
C      1  0.5008040000000  0.5727460000000  0.5889960000000 1.0
C      1  0.4977270000000  0.4806220000000  0.6039930000000 1.0
C      1  0.4440230000000  0.5581210000000  0.4933630000000 1.0
C      1  0.4506790000000  0.4779400000000  0.4336780000000 1.0
C      1  0.5025620000000  0.4072860000000  0.5719950000000 1.0
C      1  0.5635430000000  0.4986720000000  0.4182670000000 1.0
C      1  0.5352930000000  0.4946560000000  0.4441750000000 1.0
C      1  0.4252300000000  0.4966610000000  0.4505630000000 1.0
C      1  0.5714410000000  0.4320680000000  0.4453340000000 1.0
C      1  0.4482940000000  0.4514450000000  0.5953510000000 1.0
C      1  0.4793940000000  0.5076390000000  0.3950200000000 1.0
C      1  0.5494030000000  0.5397010000000  0.4054060000000 1.0
C      1  0.4777780000000  0.5907770000000  0.4319090000000 1.0
C      1  0.4955110000000  0.5546290000000  0.4068460000000 1.0
C      1  0.5174270000000  0.3937200000000  0.4886340000000 1.0
C      1  0.4207790000000  0.4916490000000  0.5955310000000 1.0
C      1  0.4719470000000  0.4011460000000  0.4282930000000 1.0
C      1  0.4739600000000  0.4104610000000  0.4574060000000 1.0
C      1  0.4822220000000  0.5196980000000  0.5458920000000 1.0
C      1  0.5111150000000  0.4812020000000  0.5261380000000 1.0
C      1  0.4036560000000  0.4811000000000  0.4654910000000 1.0
C      1  0.5049700000000  0.5362300000000  0.4451410000000 1.0
C      1  0.4757900000000  0.4405710000000  0.5895180000000 1.0
C      1  0.5364450000000  0.5944020000000  0.4553370000000 1.0
C      1  0.4779380000000  0.5449540000000  0.5290190000000 1.0
C      1  0.4726630000000  0.4978460000000  0.5024780000000 1.0
C      1  0.5833370000000  0.4810800000000  0.4292580000000 1.0
C      1  0.4948910000000  0.5513990000000  0.5055250000000 1.0
C      1  0.5138420000000  0.6177160000000  0.4914030000000 1.0
C      1  0.5392940000000  0.5537120000000  0.5259450000000 1.0
C      1  0.4640090000000  0.6037480000000  0.4771040000000 1.0
C      1  0.4575710000000  0.3907360000000  0.4754780000000 1.0
C      1  0.5942670000000  0.5612800000000  0.4657220000000 1.0
C      1  0.4488290000000  0.5479850000000  0.5220770000000 1.0
C      1  0.4058550000000  0.4861210000000  0.5599590000000 1.0
C      1  0.4825530000000  0.4934320000000  0.5294490000000 1.0
C      1  0.5687890000000  0.5587860000000  0.5200920000000 1.0
C      1  0.6005710000000  0.5006130000000  0.4430640000000 1.0
C      1  0.4612120000000  0.4361870000000  0.3979500000000 1.0
C      1  0.5822670000000  0.5842140000000  0.4790220000000 1.0
C      1  0.4314670000000  0.4313940000000  0.4439790000000 1.0
C      1  0.5345950000000  0.4494930000000  0.4281090000000 1.0
C      1  0.5278110000000  0.4538230000000  0.4807650000000 1.0
C      1  0.6103510000000  0.4612680000000  0.5394170000000 1.0
END
