TITL C-951334-9093-70 6.03389044399963e-07 125000 -918.070935546374 0 0 148 (C1) n - 1
REM
REM in /home/bkarasulu/work/CARBON/AIRSS/Generating-Clusters/EDIP-Nigel-Params/with-SteepDescent/Only-C1/SD-CG/HFTN-CG
REM
REM
REM
REM
REM
REM ./C.cell (11c1c37f851c82e70ff6c80c92926a4b)
REM
REM compiler GCC version 9.2.1 20190827 (Red Hat 9.2.1-1)
REM options -cpp -mtune=generic -march=x86-64 -g -O0 -fpre-include=/usr/include/finclude/math-vector-fortran.h
REM seed 79786055 846683023 1427856613 -794111847 -97026137 933131331 -1949280601 -741206868 630837421 158303688 1388644568 -100137770 1099359818 -520895332 1325360925 -1728021604 -1437870526 -261540363 -296341298 444149745 1985695334 110474578 720126801 -781395331 179448326 564120758 1642801304 -862865599 -1748306862 1822866781 818100867 204853461 234870199
REM
CELL 1.54180   50.00000   50.00000   50.00000   90.00000   90.00000   90.00000
LATT -1
SFAC C  
C      1  0.6135550000000  0.4960230000000  0.4856230000000 1.0
C      1  0.4464990000000  0.5245050000000  0.5321350000000 1.0
C      1  0.4953170000000  0.5009230000000  0.4150890000000 1.0
C      1  0.4710090000000  0.3922240000000  0.5020870000000 1.0
C      1  0.5810150000000  0.4729030000000  0.4708480000000 1.0
C      1  0.5475710000000  0.4321710000000  0.5060850000000 1.0
C      1  0.4118620000000  0.5111510000000  0.4557170000000 1.0
C      1  0.5040210000000  0.5503860000000  0.4788650000000 1.0
C      1  0.5370140000000  0.4708800000000  0.5786820000000 1.0
C      1  0.5051130000000  0.4618190000000  0.4849910000000 1.0
C      1  0.4211580000000  0.4227910000000  0.4724140000000 1.0
C      1  0.4141090000000  0.4836010000000  0.4838890000000 1.0
C      1  0.5157430000000  0.5341990000000  0.4481430000000 1.0
C      1  0.4090930000000  0.4396110000000  0.5153360000000 1.0
C      1  0.4608520000000  0.5367070000000  0.4872890000000 1.0
C      1  0.5454230000000  0.4644110000000  0.5083860000000 1.0
C      1  0.5353620000000  0.5538810000000  0.4063560000000 1.0
C      1  0.4631010000000  0.4293990000000  0.5348680000000 1.0
C      1  0.4632150000000  0.4876250000000  0.5611090000000 1.0
C      1  0.4959700000000  0.4260730000000  0.4392620000000 1.0
C      1  0.4240650000000  0.4211280000000  0.5006660000000 1.0
C      1  0.4313530000000  0.5033560000000  0.5777430000000 1.0
C      1  0.5129520000000  0.5804350000000  0.5692000000000 1.0
C      1  0.4535550000000  0.4723740000000  0.5849040000000 1.0
C      1  0.5582580000000  0.5923820000000  0.5615330000000 1.0
C      1  0.4084780000000  0.5416320000000  0.5206860000000 1.0
C      1  0.4502750000000  0.4121740000000  0.5128470000000 1.0
C      1  0.5016370000000  0.5352000000000  0.5926590000000 1.0
C      1  0.5049260000000  0.4774800000000  0.4589570000000 1.0
C      1  0.4411900000000  0.5169580000000  0.4475320000000 1.0
C      1  0.5046980000000  0.5870940000000  0.4318870000000 1.0
C      1  0.4669970000000  0.4936080000000  0.4082970000000 1.0
C      1  0.4888350000000  0.3862320000000  0.5244720000000 1.0
C      1  0.5272240000000  0.5196410000000  0.5006680000000 1.0
C      1  0.4035270000000  0.5323610000000  0.4753800000000 1.0
C      1  0.5428980000000  0.5456300000000  0.4341510000000 1.0
C      1  0.5257970000000  0.4250220000000  0.4367980000000 1.0
C      1  0.4421720000000  0.4337430000000  0.4568720000000 1.0
C      1  0.4759930000000  0.4800370000000  0.4492830000000 1.0
C      1  0.4074330000000  0.5344430000000  0.5499030000000 1.0
C      1  0.6010840000000  0.4993300000000  0.4498730000000 1.0
C      1  0.5301080000000  0.5489300000000  0.4942860000000 1.0
C      1  0.5056510000000  0.4501230000000  0.4009100000000 1.0
C      1  0.5345020000000  0.5935730000000  0.4839100000000 1.0
C      1  0.4473090000000  0.4345760000000  0.5596490000000 1.0
C      1  0.4583410000000  0.4992740000000  0.4636350000000 1.0
C      1  0.4473650000000  0.5442370000000  0.4611110000000 1.0
C      1  0.5658000000000  0.4778750000000  0.5772600000000 1.0
C      1  0.4019010000000  0.4827800000000  0.4556790000000 1.0
C      1  0.5279180000000  0.4490630000000  0.4190390000000 1.0
C      1  0.5454460000000  0.4281740000000  0.5548640000000 1.0
C      1  0.4859110000000  0.5775690000000  0.4498890000000 1.0
C      1  0.5075690000000  0.5985650000000  0.4911570000000 1.0
C      1  0.4898030000000  0.3992160000000  0.4797350000000 1.0
C      1  0.5513460000000  0.5733750000000  0.4426930000000 1.0
C      1  0.5137180000000  0.5369250000000  0.3973010000000 1.0
C      1  0.4368740000000  0.4517410000000  0.4331430000000 1.0
C      1  0.4636130000000  0.5800830000000  0.4971540000000 1.0
C      1  0.4085140000000  0.5053310000000  0.5577390000000 1.0
C      1  0.4532760000000  0.4090390000000  0.4496540000000 1.0
C      1  0.5726860000000  0.5585200000000  0.4864570000000 1.0
C      1  0.5165450000000  0.5927610000000  0.5418660000000 1.0
C      1  0.4950540000000  0.5595900000000  0.5790500000000 1.0
C      1  0.4807800000000  0.4056280000000  0.4528930000000 1.0
C      1  0.4673330000000  0.5766400000000  0.5436820000000 1.0
C      1  0.5184220000000  0.5049010000000  0.3943150000000 1.0
C      1  0.5797860000000  0.4803490000000  0.4383850000000 1.0
C      1  0.4636440000000  0.4649890000000  0.4244690000000 1.0
C      1  0.5261640000000  0.4712800000000  0.4377710000000 1.0
C      1  0.5656690000000  0.5082300000000  0.5652750000000 1.0
C      1  0.5208150000000  0.4921030000000  0.5902810000000 1.0
C      1  0.4971090000000  0.4382850000000  0.5689160000000 1.0
C      1  0.4416090000000  0.5635650000000  0.5393050000000 1.0
C      1  0.4813550000000  0.5162720000000  0.5985510000000 1.0
C      1  0.4384130000000  0.5241480000000  0.5017860000000 1.0
C      1  0.5857070000000  0.5164610000000  0.5432630000000 1.0
C      1  0.5271210000000  0.4438110000000  0.5707520000000 1.0
C      1  0.5985730000000  0.4505100000000  0.5051100000000 1.0
C      1  0.5435240000000  0.4957120000000  0.4035690000000 1.0
C      1  0.5543720000000  0.4786170000000  0.4834140000000 1.0
C      1  0.4688320000000  0.5422530000000  0.4195510000000 1.0
C      1  0.4967810000000  0.5112500000000  0.5393190000000 1.0
C      1  0.5827520000000  0.4952750000000  0.5224240000000 1.0
C      1  0.5729760000000  0.4610610000000  0.5544550000000 1.0
C      1  0.4506290000000  0.5180190000000  0.4182900000000 1.0
C      1  0.5278300000000  0.5500740000000  0.5403030000000 1.0
C      1  0.4878800000000  0.4165810000000  0.5488600000000 1.0
C      1  0.5818570000000  0.5427780000000  0.5343600000000 1.0
C      1  0.4595320000000  0.4477330000000  0.4745970000000 1.0
C      1  0.4840430000000  0.4425130000000  0.4175100000000 1.0
C      1  0.4295030000000  0.5496230000000  0.5627360000000 1.0
C      1  0.4708060000000  0.5953370000000  0.5220140000000 1.0
C      1  0.4803540000000  0.5543700000000  0.5017260000000 1.0
C      1  0.5440230000000  0.5053570000000  0.4798470000000 1.0
C      1  0.4070900000000  0.4560860000000  0.5375880000000 1.0
C      1  0.4223030000000  0.4464460000000  0.5583640000000 1.0
C      1  0.6105770000000  0.5239840000000  0.4895240000000 1.0
C      1  0.5251150000000  0.5201750000000  0.5854410000000 1.0
C      1  0.4993430000000  0.5999250000000  0.5193660000000 1.0
C      1  0.5885120000000  0.4365550000000  0.5293940000000 1.0
C      1  0.5405840000000  0.5778070000000  0.5795380000000 1.0
C      1  0.5458500000000  0.4237180000000  0.4570260000000 1.0
C      1  0.4801010000000  0.4505390000000  0.4929390000000 1.0
C      1  0.4741480000000  0.4565020000000  0.5206630000000 1.0
C      1  0.5547030000000  0.5777780000000  0.4715820000000 1.0
C      1  0.5611820000000  0.4774540000000  0.5317220000000 1.0
C      1  0.3944480000000  0.5237920000000  0.5020900000000 1.0
C      1  0.5177270000000  0.3971910000000  0.4843960000000 1.0
C      1  0.5313540000000  0.5873170000000  0.4246460000000 1.0
C      1  0.4927850000000  0.4908090000000  0.5931420000000 1.0
C      1  0.5868400000000  0.4435590000000  0.4778140000000 1.0
C      1  0.5705700000000  0.5603950000000  0.5156140000000 1.0
C      1  0.5256940000000  0.5193010000000  0.5321450000000 1.0
C      1  0.4965000000000  0.5309270000000  0.4225020000000 1.0
C      1  0.5513880000000  0.5302070000000  0.5793680000000 1.0
C      1  0.5411760000000  0.5661670000000  0.5172160000000 1.0
C      1  0.5618580000000  0.4251820000000  0.5311380000000 1.0
C      1  0.4611420000000  0.4853960000000  0.5131710000000 1.0
C      1  0.4825280000000  0.5076680000000  0.5133010000000 1.0
C      1  0.5443510000000  0.5979530000000  0.5373370000000 1.0
C      1  0.4313920000000  0.5665130000000  0.5018570000000 1.0
C      1  0.6038690000000  0.4805480000000  0.5080950000000 1.0
C      1  0.5103430000000  0.4052280000000  0.5303060000000 1.0
C      1  0.5503570000000  0.5543090000000  0.5619080000000 1.0
C      1  0.4667510000000  0.4467860000000  0.5779600000000 1.0
C      1  0.5652890000000  0.5261050000000  0.4337670000000 1.0
C      1  0.5220380000000  0.4154140000000  0.5056040000000 1.0
C      1  0.5000520000000  0.4642970000000  0.5334440000000 1.0
C      1  0.4945960000000  0.4856190000000  0.5556170000000 1.0
C      1  0.4904450000000  0.5578440000000  0.5352320000000 1.0
C      1  0.3973470000000  0.4945140000000  0.5063620000000 1.0
C      1  0.4142090000000  0.4669820000000  0.4366910000000 1.0
C      1  0.5170070000000  0.4710980000000  0.5100550000000 1.0
C      1  0.4457120000000  0.4941100000000  0.5369230000000 1.0
C      1  0.4815540000000  0.5338210000000  0.5534530000000 1.0
C      1  0.4078530000000  0.4856090000000  0.5335700000000 1.0
C      1  0.5588830000000  0.4988970000000  0.4271170000000 1.0
C      1  0.5264250000000  0.5054450000000  0.4559420000000 1.0
C      1  0.5934360000000  0.5408920000000  0.4749280000000 1.0
C      1  0.4634390000000  0.5608560000000  0.4416150000000 1.0
C      1  0.4226280000000  0.5553530000000  0.4746480000000 1.0
C      1  0.5444900000000  0.4990620000000  0.5449110000000 1.0
C      1  0.5891890000000  0.5263840000000  0.4501110000000 1.0
C      1  0.4486120000000  0.5279890000000  0.5714230000000 1.0
C      1  0.4839320000000  0.5900080000000  0.4757760000000 1.0
C      1  0.4992250000000  0.5156590000000  0.4907820000000 1.0
C      1  0.4429190000000  0.4948450000000  0.4893800000000 1.0
C      1  0.5623500000000  0.4263920000000  0.4801030000000 1.0
END
