TITL C-950527-2551-34 2.0538526198611e-06 125000 -474.778917046536 0 0 76 (C1) n - 1
REM
REM in /home/bkarasulu/work/CARBON/AIRSS/Generating-Clusters/EDIP-Nigel-Params/with-SteepDescent/Only-C1/SD-CG/HFTN-CG
REM
REM
REM
REM
REM
REM ./C.cell (11c1c37f851c82e70ff6c80c92926a4b)
REM
REM compiler GCC version 9.2.1 20190827 (Red Hat 9.2.1-1)
REM options -cpp -mtune=generic -march=x86-64 -g -O0 -fpre-include=/usr/include/finclude/math-vector-fortran.h
REM seed 863400732 793795513 -1298353156 128159307 557968493 -1778561729 -1936278440 -1289495415 -1050100652 -690472267 2009641064 658995273 -56922623 -373315235 -1372440461 948583971 1696278853 -677899136 1192331716 -1225595761 -1243043175 -590068698 657158089 1071964251 62705873 872583526 59110235 1451267237 1870525576 -707285613 -463436646 587100841 -494529793
REM
CELL 1.54180   50.00000   50.00000   50.00000   90.00000   90.00000   90.00000
LATT -1
SFAC C  
C      1  0.4696450000000  0.5094870000000  0.5183490000000 1.0
C      1  0.5137160000000  0.5251890000000  0.4305300000000 1.0
C      1  0.5106550000000  0.4442610000000  0.5479650000000 1.0
C      1  0.4563490000000  0.5157040000000  0.5584430000000 1.0
C      1  0.5657060000000  0.4832040000000  0.5408790000000 1.0
C      1  0.5174370000000  0.5233740000000  0.5142320000000 1.0
C      1  0.4215100000000  0.5061180000000  0.5332530000000 1.0
C      1  0.4596320000000  0.5598720000000  0.5371410000000 1.0
C      1  0.5486720000000  0.4942770000000  0.4476370000000 1.0
C      1  0.5671310000000  0.4583830000000  0.5280650000000 1.0
C      1  0.5311500000000  0.5711410000000  0.5121640000000 1.0
C      1  0.4622390000000  0.4813620000000  0.4325890000000 1.0
C      1  0.4757000000000  0.5769850000000  0.4943340000000 1.0
C      1  0.5451750000000  0.5419930000000  0.4772190000000 1.0
C      1  0.4370700000000  0.5196940000000  0.4731760000000 1.0
C      1  0.4402280000000  0.5202150000000  0.5170240000000 1.0
C      1  0.5400560000000  0.5205860000000  0.4385290000000 1.0
C      1  0.5448240000000  0.4809650000000  0.5613820000000 1.0
C      1  0.4215650000000  0.4756380000000  0.4951520000000 1.0
C      1  0.4241910000000  0.4794740000000  0.5242500000000 1.0
C      1  0.5693650000000  0.5455270000000  0.4960700000000 1.0
C      1  0.4423080000000  0.4577530000000  0.5353530000000 1.0
C      1  0.5044640000000  0.4769270000000  0.4458900000000 1.0
C      1  0.4650930000000  0.4659820000000  0.5540400000000 1.0
C      1  0.4491490000000  0.4386990000000  0.5104450000000 1.0
C      1  0.5817770000000  0.5190630000000  0.5027240000000 1.0
C      1  0.5533360000000  0.5423910000000  0.4493120000000 1.0
C      1  0.4409800000000  0.4759360000000  0.4521460000000 1.0
C      1  0.5067210000000  0.5077670000000  0.4694570000000 1.0
C      1  0.4732230000000  0.4933190000000  0.5589700000000 1.0
C      1  0.4975240000000  0.4824980000000  0.4842020000000 1.0
C      1  0.4387100000000  0.5505070000000  0.5176290000000 1.0
C      1  0.5422530000000  0.4487000000000  0.4588910000000 1.0
C      1  0.4707540000000  0.4402590000000  0.4553690000000 1.0
C      1  0.5433870000000  0.5301010000000  0.5301790000000 1.0
C      1  0.5306210000000  0.5152270000000  0.4861410000000 1.0
C      1  0.5221770000000  0.4340180000000  0.4744400000000 1.0
C      1  0.4801280000000  0.4138810000000  0.4551920000000 1.0
C      1  0.4427090000000  0.4475900000000  0.4604790000000 1.0
C      1  0.5344920000000  0.5318090000000  0.5581710000000 1.0
C      1  0.5237550000000  0.5634500000000  0.4840910000000 1.0
C      1  0.5137820000000  0.5534620000000  0.5584030000000 1.0
C      1  0.4860050000000  0.5251270000000  0.4787330000000 1.0
C      1  0.5056710000000  0.4142610000000  0.4637180000000 1.0
C      1  0.4881380000000  0.5319340000000  0.5074030000000 1.0
C      1  0.5866780000000  0.5050260000000  0.4792510000000 1.0
C      1  0.4301210000000  0.4469610000000  0.4884410000000 1.0
C      1  0.5299130000000  0.4339460000000  0.5027550000000 1.0
C      1  0.5325950000000  0.4705750000000  0.4415440000000 1.0
C      1  0.4783090000000  0.5448080000000  0.4599160000000 1.0
C      1  0.5157850000000  0.4777110000000  0.5092900000000 1.0
C      1  0.4853890000000  0.4475150000000  0.5588400000000 1.0
C      1  0.4822510000000  0.4601190000000  0.4368390000000 1.0
C      1  0.5443300000000  0.4890420000000  0.4986030000000 1.0
C      1  0.5553410000000  0.5558180000000  0.5201480000000 1.0
C      1  0.5617930000000  0.4612360000000  0.4775930000000 1.0
C      1  0.5084670000000  0.4485560000000  0.5187330000000 1.0
C      1  0.4705610000000  0.5080970000000  0.4291210000000 1.0
C      1  0.5092460000000  0.5681780000000  0.5321550000000 1.0
C      1  0.4474930000000  0.5642940000000  0.4905360000000 1.0
C      1  0.4420360000000  0.4911150000000  0.4782370000000 1.0
C      1  0.5253210000000  0.5034570000000  0.5629640000000 1.0
C      1  0.4833640000000  0.5608060000000  0.5185910000000 1.0
C      1  0.4695660000000  0.4857620000000  0.4970190000000 1.0
C      1  0.5717120000000  0.4869880000000  0.4643380000000 1.0
C      1  0.4896660000000  0.5472590000000  0.5716020000000 1.0
C      1  0.4947750000000  0.5683110000000  0.4728130000000 1.0
C      1  0.5568220000000  0.4472590000000  0.5044520000000 1.0
C      1  0.4981870000000  0.4973810000000  0.5709100000000 1.0
C      1  0.5607650000000  0.5051450000000  0.5202920000000 1.0
C      1  0.5058960000000  0.4982820000000  0.5299170000000 1.0
C      1  0.4864350000000  0.5303930000000  0.4343090000000 1.0
C      1  0.5322300000000  0.4560190000000  0.5609560000000 1.0
C      1  0.4640120000000  0.5428490000000  0.5610970000000 1.0
C      1  0.4483360000000  0.5453040000000  0.4671940000000 1.0
C      1  0.4734320000000  0.4576750000000  0.5117810000000 1.0
END
