TITL C-951340-9809-194 -1.67105528424234e-06 125000 -1246.98324467649 0 0 199 (C1) n - 1
REM
REM in /home/bkarasulu/work/CARBON/AIRSS/Generating-Clusters/EDIP-Nigel-Params/with-SteepDescent/Only-C1/SD-CG/HFTN-CG
REM
REM
REM
REM
REM
REM ./C.cell (11c1c37f851c82e70ff6c80c92926a4b)
REM
REM compiler GCC version 9.2.1 20190827 (Red Hat 9.2.1-1)
REM options -cpp -mtune=generic -march=x86-64 -g -O0 -fpre-include=/usr/include/finclude/math-vector-fortran.h
REM seed 1578227462 -1684978342 -1005790445 875727691 1913112074 2132728493 -2043497809 -525662511 -826698606 -1171703319 -1295230196 -2117265307 1267002249 -1959025177 -1306347879 -1992438483 1334514816 -1739757916 2033114836 1622253344 1582819005 792418195 -1623745047 -1731045001 1820686310 403274510 -1988903927 -1922157965 -325816422 -1384566027 492887160 436042215 -313581600
REM
CELL 1.54180   50.00000   50.00000   50.00000   90.00000   90.00000   90.00000
LATT -1
SFAC C  
C      1  0.5310840000000  0.4949980000000  0.5040620000000 1.0
C      1  0.5329430000000  0.5446890000000  0.4047960000000 1.0
C      1  0.5411730000000  0.4463720000000  0.4767930000000 1.0
C      1  0.4418330000000  0.5183070000000  0.4992150000000 1.0
C      1  0.5895710000000  0.5537000000000  0.5591190000000 1.0
C      1  0.4023610000000  0.5304860000000  0.4587450000000 1.0
C      1  0.4815030000000  0.5716440000000  0.4378190000000 1.0
C      1  0.5999120000000  0.4684940000000  0.4911750000000 1.0
C      1  0.4211340000000  0.4890490000000  0.5554410000000 1.0
C      1  0.4132000000000  0.5771970000000  0.4592100000000 1.0
C      1  0.5548080000000  0.5381200000000  0.4785480000000 1.0
C      1  0.5145610000000  0.5142750000000  0.5538280000000 1.0
C      1  0.5752780000000  0.4007100000000  0.4668230000000 1.0
C      1  0.4152050000000  0.5258700000000  0.4342030000000 1.0
C      1  0.4452380000000  0.4154030000000  0.4361160000000 1.0
C      1  0.5347260000000  0.4912420000000  0.5579130000000 1.0
C      1  0.4543570000000  0.5253630000000  0.6079090000000 1.0
C      1  0.5323230000000  0.5794000000000  0.4391880000000 1.0
C      1  0.5699620000000  0.4430010000000  0.4706820000000 1.0
C      1  0.5748520000000  0.5752110000000  0.4644460000000 1.0
C      1  0.4201090000000  0.4700170000000  0.4980910000000 1.0
C      1  0.4519620000000  0.4729200000000  0.5967130000000 1.0
C      1  0.5576940000000  0.4820420000000  0.5168010000000 1.0
C      1  0.5026890000000  0.4610680000000  0.5340680000000 1.0
C      1  0.5206720000000  0.4016930000000  0.4804990000000 1.0
C      1  0.4652570000000  0.5545130000000  0.3935740000000 1.0
C      1  0.4527290000000  0.5446770000000  0.4825780000000 1.0
C      1  0.5162070000000  0.3828640000000  0.5020650000000 1.0
C      1  0.5591440000000  0.4995640000000  0.5422960000000 1.0
C      1  0.4093270000000  0.5056220000000  0.5342960000000 1.0
C      1  0.5351420000000  0.5937450000000  0.4840280000000 1.0
C      1  0.5017500000000  0.6015340000000  0.5726110000000 1.0
C      1  0.5284750000000  0.5353050000000  0.4636540000000 1.0
C      1  0.4689820000000  0.4437510000000  0.4998920000000 1.0
C      1  0.4952700000000  0.4273790000000  0.4446780000000 1.0
C      1  0.5491670000000  0.5336900000000  0.5291070000000 1.0
C      1  0.4461270000000  0.5362810000000  0.4018980000000 1.0
C      1  0.5934080000000  0.5173900000000  0.5008790000000 1.0
C      1  0.4758280000000  0.4611640000000  0.4766080000000 1.0
C      1  0.4929000000000  0.4818030000000  0.4147280000000 1.0
C      1  0.5584090000000  0.4750120000000  0.3871220000000 1.0
C      1  0.4774050000000  0.4723640000000  0.3911830000000 1.0
C      1  0.5443870000000  0.6023910000000  0.5435150000000 1.0
C      1  0.5620730000000  0.4543260000000  0.5880850000000 1.0
C      1  0.4867500000000  0.5797150000000  0.4934270000000 1.0
C      1  0.4385440000000  0.5790040000000  0.5173250000000 1.0
C      1  0.5744120000000  0.5104710000000  0.5949550000000 1.0
C      1  0.5050280000000  0.5874820000000  0.4474580000000 1.0
C      1  0.5502680000000  0.5891020000000  0.4590550000000 1.0
C      1  0.5374750000000  0.5342680000000  0.6070360000000 1.0
C      1  0.4096750000000  0.5526170000000  0.4759350000000 1.0
C      1  0.5988070000000  0.4777320000000  0.4446620000000 1.0
C      1  0.4328650000000  0.5455350000000  0.4252790000000 1.0
C      1  0.4307140000000  0.5729230000000  0.4350420000000 1.0
C      1  0.4808650000000  0.5553130000000  0.4733010000000 1.0
C      1  0.5780330000000  0.4341110000000  0.5741040000000 1.0
C      1  0.4504150000000  0.4616830000000  0.4577040000000 1.0
C      1  0.5484360000000  0.5217850000000  0.3938320000000 1.0
C      1  0.4246540000000  0.4976080000000  0.4319690000000 1.0
C      1  0.5189680000000  0.4275570000000  0.4250550000000 1.0
C      1  0.5612520000000  0.5138650000000  0.4206450000000 1.0
C      1  0.4021640000000  0.4659160000000  0.5572510000000 1.0
C      1  0.4431470000000  0.5873540000000  0.5611420000000 1.0
C      1  0.4989740000000  0.4516000000000  0.4611200000000 1.0
C      1  0.3751140000000  0.5324330000000  0.5051990000000 1.0
C      1  0.5378500000000  0.4165500000000  0.5677330000000 1.0
C      1  0.5272180000000  0.4117040000000  0.5402740000000 1.0
C      1  0.5797470000000  0.5879750000000  0.4916500000000 1.0
C      1  0.5034040000000  0.6129470000000  0.5116400000000 1.0
C      1  0.4885350000000  0.5783620000000  0.5848640000000 1.0
C      1  0.4770230000000  0.3845780000000  0.4577970000000 1.0
C      1  0.5101440000000  0.5591570000000  0.5818450000000 1.0
C      1  0.4034420000000  0.4439890000000  0.5374810000000 1.0
C      1  0.5325690000000  0.6195640000000  0.5202510000000 1.0
C      1  0.4797650000000  0.4762120000000  0.5856290000000 1.0
C      1  0.5231050000000  0.5202370000000  0.5236170000000 1.0
C      1  0.5044360000000  0.5377270000000  0.5096230000000 1.0
C      1  0.4219090000000  0.4329650000000  0.4349450000000 1.0
C      1  0.4605820000000  0.5704530000000  0.5785040000000 1.0
C      1  0.4696680000000  0.4293300000000  0.4261600000000 1.0
C      1  0.4324780000000  0.3838710000000  0.4739930000000 1.0
C      1  0.4894570000000  0.4321810000000  0.5809030000000 1.0
C      1  0.4297530000000  0.4304340000000  0.5345550000000 1.0
C      1  0.5412620000000  0.4081000000000  0.4327600000000 1.0
C      1  0.5722990000000  0.5468400000000  0.4384070000000 1.0
C      1  0.5765150000000  0.4896760000000  0.4052060000000 1.0
C      1  0.5285500000000  0.5770980000000  0.5324570000000 1.0
C      1  0.4516380000000  0.5063210000000  0.4098580000000 1.0
C      1  0.5993780000000  0.5426940000000  0.5152990000000 1.0
C      1  0.6043170000000  0.4781540000000  0.5371580000000 1.0
C      1  0.4859570000000  0.5570440000000  0.5235790000000 1.0
C      1  0.5826420000000  0.4702720000000  0.4686250000000 1.0
C      1  0.5792960000000  0.5657520000000  0.5125960000000 1.0
C      1  0.4751470000000  0.4231570000000  0.5588310000000 1.0
C      1  0.4880130000000  0.5077480000000  0.4745130000000 1.0
C      1  0.4256800000000  0.5380130000000  0.5718750000000 1.0
C      1  0.5853960000000  0.4927640000000  0.5557780000000 1.0
C      1  0.4768940000000  0.4669470000000  0.5544230000000 1.0
C      1  0.5754880000000  0.5181110000000  0.4767740000000 1.0
C      1  0.4235780000000  0.6012120000000  0.4711940000000 1.0
C      1  0.5664160000000  0.4206140000000  0.4235680000000 1.0
C      1  0.5453170000000  0.3973760000000  0.4608540000000 1.0
C      1  0.5000690000000  0.5769510000000  0.5428970000000 1.0
C      1  0.4171180000000  0.5722800000000  0.5552680000000 1.0
C      1  0.5067920000000  0.4798650000000  0.5103300000000 1.0
C      1  0.4608310000000  0.4911820000000  0.5121700000000 1.0
C      1  0.5833360000000  0.4157490000000  0.4939240000000 1.0
C      1  0.5828380000000  0.4849590000000  0.5834380000000 1.0
C      1  0.5626530000000  0.4919720000000  0.4737350000000 1.0
C      1  0.6043390000000  0.5052210000000  0.4412570000000 1.0
C      1  0.4424410000000  0.4910130000000  0.4573660000000 1.0
C      1  0.5054170000000  0.5987290000000  0.4758520000000 1.0
C      1  0.4682210000000  0.5064880000000  0.4539050000000 1.0
C      1  0.4953120000000  0.4368810000000  0.5149350000000 1.0
C      1  0.3813760000000  0.4991280000000  0.5331490000000 1.0
C      1  0.5527460000000  0.6131220000000  0.4988090000000 1.0
C      1  0.5247310000000  0.4289820000000  0.4951880000000 1.0
C      1  0.4417770000000  0.4598810000000  0.5713760000000 1.0
C      1  0.4836080000000  0.4861420000000  0.4933740000000 1.0
C      1  0.5357500000000  0.4932920000000  0.3881880000000 1.0
C      1  0.5299260000000  0.4624460000000  0.5505440000000 1.0
C      1  0.3977250000000  0.5041910000000  0.4695960000000 1.0
C      1  0.5225530000000  0.4821540000000  0.4141010000000 1.0
C      1  0.5612960000000  0.4494880000000  0.4149880000000 1.0
C      1  0.4826030000000  0.5145860000000  0.5542010000000 1.0
C      1  0.4505800000000  0.4749640000000  0.4041140000000 1.0
C      1  0.4136180000000  0.4498070000000  0.4775880000000 1.0
C      1  0.5346170000000  0.4451710000000  0.5758730000000 1.0
C      1  0.4711270000000  0.4919420000000  0.5400290000000 1.0
C      1  0.5645350000000  0.4095660000000  0.5720420000000 1.0
C      1  0.5557320000000  0.5541840000000  0.5950920000000 1.0
C      1  0.4927090000000  0.5208900000000  0.6060240000000 1.0
C      1  0.4792040000000  0.4227070000000  0.3983290000000 1.0
C      1  0.5751960000000  0.5379550000000  0.5804680000000 1.0
C      1  0.4894430000000  0.4132120000000  0.5334940000000 1.0
C      1  0.4309830000000  0.4078980000000  0.5178210000000 1.0
C      1  0.5279390000000  0.4878110000000  0.6167180000000 1.0
C      1  0.5328860000000  0.5708590000000  0.5033180000000 1.0
C      1  0.4249030000000  0.4970570000000  0.4825020000000 1.0
C      1  0.4504270000000  0.3920040000000  0.4538510000000 1.0
C      1  0.4824940000000  0.4456760000000  0.3811410000000 1.0
C      1  0.5526410000000  0.4540560000000  0.5315750000000 1.0
C      1  0.4453220000000  0.5749030000000  0.4893510000000 1.0
C      1  0.5055730000000  0.4658760000000  0.6127830000000 1.0
C      1  0.5889010000000  0.5257180000000  0.4524100000000 1.0
C      1  0.4381040000000  0.5001320000000  0.6012160000000 1.0
C      1  0.5337310000000  0.4924910000000  0.4652760000000 1.0
C      1  0.5402430000000  0.5509160000000  0.4346540000000 1.0
C      1  0.4480810000000  0.4343470000000  0.5570800000000 1.0
C      1  0.4853790000000  0.6005930000000  0.5320020000000 1.0
C      1  0.4019110000000  0.5482110000000  0.5062460000000 1.0
C      1  0.5317550000000  0.5035910000000  0.4336240000000 1.0
C      1  0.5313010000000  0.6012840000000  0.5718430000000 1.0
C      1  0.4542080000000  0.5968840000000  0.5346890000000 1.0
C      1  0.4507550000000  0.6028060000000  0.4632740000000 1.0
C      1  0.4345180000000  0.4311340000000  0.4760210000000 1.0
C      1  0.4291730000000  0.4065660000000  0.4899810000000 1.0
C      1  0.5914600000000  0.4882510000000  0.5110660000000 1.0
C      1  0.5489220000000  0.5080720000000  0.6090800000000 1.0
C      1  0.5012030000000  0.5338930000000  0.4802560000000 1.0
C      1  0.5433000000000  0.4258810000000  0.5194130000000 1.0
C      1  0.5728150000000  0.5740940000000  0.5427380000000 1.0
C      1  0.5787610000000  0.4504770000000  0.5484790000000 1.0
C      1  0.5105940000000  0.4453560000000  0.5927820000000 1.0
C      1  0.5081960000000  0.4220660000000  0.3981290000000 1.0
C      1  0.4779180000000  0.5062960000000  0.5835740000000 1.0
C      1  0.4590010000000  0.4571090000000  0.4286380000000 1.0
C      1  0.4075350000000  0.4541140000000  0.4495340000000 1.0
C      1  0.5650990000000  0.4088890000000  0.5140710000000 1.0
C      1  0.5333120000000  0.4559740000000  0.4275730000000 1.0
C      1  0.4964710000000  0.4036720000000  0.4623540000000 1.0
C      1  0.4227410000000  0.5283910000000  0.5203780000000 1.0
C      1  0.5861530000000  0.4675800000000  0.4209610000000 1.0
C      1  0.6005940000000  0.4415150000000  0.5030080000000 1.0
C      1  0.3653650000000  0.5219240000000  0.5293540000000 1.0
C      1  0.5059060000000  0.5230100000000  0.4321840000000 1.0
C      1  0.3961030000000  0.4671270000000  0.5186240000000 1.0
C      1  0.3991820000000  0.4822500000000  0.4432590000000 1.0
C      1  0.6040910000000  0.4462530000000  0.5321330000000 1.0
C      1  0.5041520000000  0.5024630000000  0.6255410000000 1.0
C      1  0.4870790000000  0.5610000000000  0.4094820000000 1.0
C      1  0.5050790000000  0.5381850000000  0.4074260000000 1.0
C      1  0.5845320000000  0.4184380000000  0.4455960000000 1.0
C      1  0.5462470000000  0.5584320000000  0.5494690000000 1.0
C      1  0.3763410000000  0.5097410000000  0.4880960000000 1.0
C      1  0.5542510000000  0.5511260000000  0.5043180000000 1.0
C      1  0.4215810000000  0.5080830000000  0.5781990000000 1.0
C      1  0.4689140000000  0.5394500000000  0.5419540000000 1.0
C      1  0.4799490000000  0.5066560000000  0.4266610000000 1.0
C      1  0.5140700000000  0.5316310000000  0.5887060000000 1.0
C      1  0.4472730000000  0.4639170000000  0.5113980000000 1.0
C      1  0.4452160000000  0.5484140000000  0.5915990000000 1.0
C      1  0.5368920000000  0.5703510000000  0.5775040000000 1.0
C      1  0.4559680000000  0.5880080000000  0.4391210000000 1.0
C      1  0.4111830000000  0.5722080000000  0.5249690000000 1.0
C      1  0.5098130000000  0.3888980000000  0.5287680000000 1.0
C      1  0.4384060000000  0.5429450000000  0.5425020000000 1.0
C      1  0.6076760000000  0.5404280000000  0.5420530000000 1.0
C      1  0.5266400000000  0.4626730000000  0.4583190000000 1.0
END
