TITL C-951346-9544-455 -2.50607385373452e-07 125000 -365.370680618756 0 0 61 (C1) n - 1
REM
REM in /home/bkarasulu/work/CARBON/AIRSS/Generating-Clusters/EDIP-Nigel-Params/with-SteepDescent/Only-C1/SD-CG/HFTN-CG
REM
REM
REM
REM
REM
REM ./C.cell (11c1c37f851c82e70ff6c80c92926a4b)
REM
REM compiler GCC version 9.2.1 20190827 (Red Hat 9.2.1-1)
REM options -cpp -mtune=generic -march=x86-64 -g -O0 -fpre-include=/usr/include/finclude/math-vector-fortran.h
REM seed -450363057 -319197755 -488224697 1482621392 -1462430050 1280014226 199629018 1168243964 175776054 1023116462 -1945902137 74160117 -1524278968 632997176 -445496807 911211277 872033789 848791014 533215757 1291909626 -1183751033 1510056399 -679449336 966399595 -1932486365 -1343547343 -1983434385 -1169517638 -389924303 -1743024620 -643439206 -1879951367 2039471926
REM
CELL 1.54180   50.00000   50.00000   50.00000   90.00000   90.00000   90.00000
LATT -1
SFAC C  
C      1  0.4905510000000  0.5108890000000  0.5004320000000 1.0
C      1  0.5437340000000  0.5270370000000  0.4766250000000 1.0
C      1  0.5414750000000  0.5648710000000  0.5225720000000 1.0
C      1  0.5616420000000  0.4518670000000  0.4823700000000 1.0
C      1  0.4975530000000  0.4282610000000  0.5149170000000 1.0
C      1  0.5180000000000  0.5456740000000  0.4820160000000 1.0
C      1  0.5204530000000  0.5764340000000  0.4820240000000 1.0
C      1  0.4529840000000  0.4548020000000  0.5397680000000 1.0
C      1  0.4936060000000  0.5836050000000  0.5103880000000 1.0
C      1  0.4916330000000  0.4698990000000  0.5828700000000 1.0
C      1  0.4742830000000  0.5203570000000  0.4400830000000 1.0
C      1  0.5677240000000  0.4688500000000  0.4622710000000 1.0
C      1  0.4888160000000  0.5187040000000  0.5676780000000 1.0
C      1  0.5044550000000  0.5356560000000  0.5479940000000 1.0
C      1  0.4775240000000  0.4693320000000  0.5270390000000 1.0
C      1  0.4250260000000  0.4676100000000  0.5083960000000 1.0
C      1  0.5299880000000  0.5421990000000  0.4330100000000 1.0
C      1  0.4910810000000  0.5837450000000  0.4786720000000 1.0
C      1  0.5591880000000  0.4897690000000  0.4459010000000 1.0
C      1  0.5319150000000  0.4913480000000  0.4410400000000 1.0
C      1  0.5099270000000  0.4527780000000  0.5663310000000 1.0
C      1  0.4784620000000  0.5630180000000  0.4656000000000 1.0
C      1  0.4844280000000  0.5561220000000  0.5217420000000 1.0
C      1  0.5014920000000  0.4431250000000  0.5402730000000 1.0
C      1  0.4703210000000  0.4338690000000  0.4990760000000 1.0
C      1  0.4635800000000  0.5091330000000  0.5592740000000 1.0
C      1  0.4898830000000  0.4970060000000  0.5294770000000 1.0
C      1  0.4792150000000  0.4642780000000  0.4970940000000 1.0
C      1  0.5696750000000  0.5160790000000  0.4492070000000 1.0
C      1  0.5588710000000  0.5221630000000  0.5019110000000 1.0
C      1  0.4568760000000  0.5478890000000  0.5202980000000 1.0
C      1  0.5432050000000  0.4488880000000  0.5035880000000 1.0
C      1  0.4492960000000  0.5023380000000  0.5357690000000 1.0
C      1  0.4625970000000  0.4502020000000  0.4647610000000 1.0
C      1  0.4706280000000  0.4911650000000  0.4481370000000 1.0
C      1  0.5204750000000  0.4928370000000  0.5371520000000 1.0
C      1  0.4342130000000  0.4858600000000  0.4875680000000 1.0
C      1  0.4653720000000  0.5163110000000  0.4801160000000 1.0
C      1  0.5034140000000  0.5359830000000  0.5084500000000 1.0
C      1  0.4378680000000  0.5149420000000  0.4922120000000 1.0
C      1  0.5170190000000  0.4255440000000  0.4693390000000 1.0
C      1  0.5287830000000  0.5214840000000  0.5406960000000 1.0
C      1  0.5085510000000  0.5342850000000  0.4516180000000 1.0
C      1  0.4403260000000  0.5250210000000  0.5195520000000 1.0
C      1  0.5111210000000  0.4975870000000  0.4835560000000 1.0
C      1  0.5119460000000  0.5043990000000  0.4558150000000 1.0
C      1  0.5218740000000  0.4280600000000  0.4974990000000 1.0
C      1  0.4655300000000  0.5394230000000  0.4604280000000 1.0
C      1  0.5451020000000  0.5371060000000  0.5228030000000 1.0
C      1  0.5083130000000  0.4687940000000  0.4878370000000 1.0
C      1  0.5362030000000  0.4776200000000  0.5139260000000 1.0
C      1  0.4461300000000  0.4373350000000  0.5170590000000 1.0
C      1  0.4858280000000  0.4554740000000  0.4476600000000 1.0
C      1  0.5258910000000  0.5845860000000  0.5109090000000 1.0
C      1  0.4513080000000  0.4769320000000  0.4655620000000 1.0
C      1  0.5581940000000  0.4948260000000  0.5074940000000 1.0
C      1  0.5242270000000  0.4805440000000  0.5647970000000 1.0
C      1  0.5107590000000  0.4523640000000  0.4621690000000 1.0
C      1  0.4344210000000  0.4765730000000  0.5350280000000 1.0
C      1  0.5039560000000  0.4972410000000  0.5824360000000 1.0
C      1  0.5530940000000  0.5399060000000  0.4497140000000 1.0
END
