TITL C-951338-5626-738 -1.05807996351709e-06 125000 -1059.7123124631 0 0 167 (C1) n - 1
REM
REM in /home/bkarasulu/work/CARBON/AIRSS/Generating-Clusters/EDIP-Nigel-Params/with-SteepDescent/Only-C1/SD-CG/HFTN-CG
REM
REM
REM
REM
REM
REM ./C.cell (11c1c37f851c82e70ff6c80c92926a4b)
REM
REM compiler GCC version 9.2.1 20190827 (Red Hat 9.2.1-1)
REM options -cpp -mtune=generic -march=x86-64 -g -O0 -fpre-include=/usr/include/finclude/math-vector-fortran.h
REM seed 478446376 -456040629 1339472808 -149213339 -797577139 1604532329 1398266738 1362135567 505895594 -1084856070 -1479360512 -1949379531 181180632 1971092567 904561043 -950216905 1148280209 405217000 1916391881 -1125056709 -2144157316 1874159057 130923700 -1946754385 1681136732 -1495195655 578970813 -555052937 1891576050 2081546860 -1511023441 1318423863 -1809171938
REM
CELL 1.54180   50.00000   50.00000   50.00000   90.00000   90.00000   90.00000
LATT -1
SFAC C  
C      1  0.4412590000000  0.5841410000000  0.4624750000000 1.0
C      1  0.5407970000000  0.4563380000000  0.5929740000000 1.0
C      1  0.4401940000000  0.5553930000000  0.4744170000000 1.0
C      1  0.5673060000000  0.4817560000000  0.4232550000000 1.0
C      1  0.3967000000000  0.5439190000000  0.5377220000000 1.0
C      1  0.4788480000000  0.5687680000000  0.5000670000000 1.0
C      1  0.4014500000000  0.4812000000000  0.5030180000000 1.0
C      1  0.4492720000000  0.4669240000000  0.4850710000000 1.0
C      1  0.5129620000000  0.4295250000000  0.5584150000000 1.0
C      1  0.4017860000000  0.4814560000000  0.5330190000000 1.0
C      1  0.5250770000000  0.5688860000000  0.5263840000000 1.0
C      1  0.4564440000000  0.4640640000000  0.5887530000000 1.0
C      1  0.5093700000000  0.4576440000000  0.4484320000000 1.0
C      1  0.5257580000000  0.4797430000000  0.3968790000000 1.0
C      1  0.4324440000000  0.5383800000000  0.4244470000000 1.0
C      1  0.4693280000000  0.4388610000000  0.5853410000000 1.0
C      1  0.4321880000000  0.4167820000000  0.4855280000000 1.0
C      1  0.5267820000000  0.5311690000000  0.4066890000000 1.0
C      1  0.4636720000000  0.5581190000000  0.5567280000000 1.0
C      1  0.4179450000000  0.4343730000000  0.5056600000000 1.0
C      1  0.5449550000000  0.5480370000000  0.4675440000000 1.0
C      1  0.4568290000000  0.5077290000000  0.5450130000000 1.0
C      1  0.5004160000000  0.4140220000000  0.5353900000000 1.0
C      1  0.5779670000000  0.4176260000000  0.4756350000000 1.0
C      1  0.4985940000000  0.6038950000000  0.4817790000000 1.0
C      1  0.4968710000000  0.4311210000000  0.5856630000000 1.0
C      1  0.5099630000000  0.5095640000000  0.5237140000000 1.0
C      1  0.5852480000000  0.4131580000000  0.4489920000000 1.0
C      1  0.5323740000000  0.5883760000000  0.5058660000000 1.0
C      1  0.5614130000000  0.5343590000000  0.4433790000000 1.0
C      1  0.5642700000000  0.4966690000000  0.5743440000000 1.0
C      1  0.4735850000000  0.4857040000000  0.4001400000000 1.0
C      1  0.5452310000000  0.4028870000000  0.5112080000000 1.0
C      1  0.4081820000000  0.4793580000000  0.4426090000000 1.0
C      1  0.4307770000000  0.4731780000000  0.5766800000000 1.0
C      1  0.4565170000000  0.4263060000000  0.4399080000000 1.0
C      1  0.4198620000000  0.4639780000000  0.5486120000000 1.0
C      1  0.4395840000000  0.4893280000000  0.4718670000000 1.0
C      1  0.5946360000000  0.5095470000000  0.4859830000000 1.0
C      1  0.5596860000000  0.5899820000000  0.4965940000000 1.0
C      1  0.5264710000000  0.4939480000000  0.4771750000000 1.0
C      1  0.4480540000000  0.6037430000000  0.4865650000000 1.0
C      1  0.5133470000000  0.4588890000000  0.5526120000000 1.0
C      1  0.4520380000000  0.4690490000000  0.4104800000000 1.0
C      1  0.5421030000000  0.4210320000000  0.5585440000000 1.0
C      1  0.4535010000000  0.5563220000000  0.4173580000000 1.0
C      1  0.5390490000000  0.5730360000000  0.4264660000000 1.0
C      1  0.5462630000000  0.4492350000000  0.5179310000000 1.0
C      1  0.4900510000000  0.5500470000000  0.4566580000000 1.0
C      1  0.4812880000000  0.4067220000000  0.4358500000000 1.0
C      1  0.5028430000000  0.4796030000000  0.4865100000000 1.0
C      1  0.5255680000000  0.5869390000000  0.5498450000000 1.0
C      1  0.5452890000000  0.5460460000000  0.5324530000000 1.0
C      1  0.5063660000000  0.4320930000000  0.4953420000000 1.0
C      1  0.5527310000000  0.4046070000000  0.4826770000000 1.0
C      1  0.4417260000000  0.5454830000000  0.5270760000000 1.0
C      1  0.5019440000000  0.4194110000000  0.4168390000000 1.0
C      1  0.5568650000000  0.5100350000000  0.5093650000000 1.0
C      1  0.5293610000000  0.5070560000000  0.3928400000000 1.0
C      1  0.5083910000000  0.5711650000000  0.5908190000000 1.0
C      1  0.4231880000000  0.5453050000000  0.5515210000000 1.0
C      1  0.5514660000000  0.4550380000000  0.4898330000000 1.0
C      1  0.5825500000000  0.4472710000000  0.5623220000000 1.0
C      1  0.3941780000000  0.5050650000000  0.4854610000000 1.0
C      1  0.4764070000000  0.4590330000000  0.5244170000000 1.0
C      1  0.5228960000000  0.4974550000000  0.6047270000000 1.0
C      1  0.5388940000000  0.5686980000000  0.5906840000000 1.0
C      1  0.4556310000000  0.5848590000000  0.5107070000000 1.0
C      1  0.4306480000000  0.5035480000000  0.5851790000000 1.0
C      1  0.5495970000000  0.5463030000000  0.4181260000000 1.0
C      1  0.5034500000000  0.5173990000000  0.4413260000000 1.0
C      1  0.5010550000000  0.5810790000000  0.5637530000000 1.0
C      1  0.4958060000000  0.4487750000000  0.4219560000000 1.0
C      1  0.5093540000000  0.5728800000000  0.4194070000000 1.0
C      1  0.5427470000000  0.5029780000000  0.5551350000000 1.0
C      1  0.5675070000000  0.5614350000000  0.5479820000000 1.0
C      1  0.4963120000000  0.6130260000000  0.5289140000000 1.0
C      1  0.3964810000000  0.5500350000000  0.5094510000000 1.0
C      1  0.5166300000000  0.4009580000000  0.5152200000000 1.0
C      1  0.5890430000000  0.5405610000000  0.4493270000000 1.0
C      1  0.4999930000000  0.4794380000000  0.6057240000000 1.0
C      1  0.4939090000000  0.5777250000000  0.4446360000000 1.0
C      1  0.5553210000000  0.4241850000000  0.5308680000000 1.0
C      1  0.4583750000000  0.4768420000000  0.5101740000000 1.0
C      1  0.5850490000000  0.4318290000000  0.5354320000000 1.0
C      1  0.4959420000000  0.4044480000000  0.4610250000000 1.0
C      1  0.4863640000000  0.4695720000000  0.5500330000000 1.0
C      1  0.4481270000000  0.5056910000000  0.4504290000000 1.0
C      1  0.5865550000000  0.5051440000000  0.5152010000000 1.0
C      1  0.5582730000000  0.5033140000000  0.4442020000000 1.0
C      1  0.5348380000000  0.4955130000000  0.5279810000000 1.0
C      1  0.5739960000000  0.4345720000000  0.4347260000000 1.0
C      1  0.5851140000000  0.4613340000000  0.4368140000000 1.0
C      1  0.4989390000000  0.4699230000000  0.4006860000000 1.0
C      1  0.4620950000000  0.3911620000000  0.5160940000000 1.0
C      1  0.4718640000000  0.4088960000000  0.5351680000000 1.0
C      1  0.4632940000000  0.5137380000000  0.3986060000000 1.0
C      1  0.4678960000000  0.4494640000000  0.4692100000000 1.0
C      1  0.5704040000000  0.5657330000000  0.5099040000000 1.0
C      1  0.5901350000000  0.4786110000000  0.5285470000000 1.0
C      1  0.4354110000000  0.5137590000000  0.4085150000000 1.0
C      1  0.4698170000000  0.5489560000000  0.4798360000000 1.0
C      1  0.4835290000000  0.5428420000000  0.5404610000000 1.0
C      1  0.5007020000000  0.5202950000000  0.5497340000000 1.0
C      1  0.5841660000000  0.4768790000000  0.5580060000000 1.0
C      1  0.5495130000000  0.4358830000000  0.4192670000000 1.0
C      1  0.4589090000000  0.4063970000000  0.4928370000000 1.0
C      1  0.5641930000000  0.5416380000000  0.4921420000000 1.0
C      1  0.5901290000000  0.5367620000000  0.4773540000000 1.0
C      1  0.5252200000000  0.4401320000000  0.4703380000000 1.0
C      1  0.5446590000000  0.5395510000000  0.5925230000000 1.0
C      1  0.4278900000000  0.4390540000000  0.5344520000000 1.0
C      1  0.5826750000000  0.5424890000000  0.5634260000000 1.0
C      1  0.4289560000000  0.5152610000000  0.5578270000000 1.0
C      1  0.4589440000000  0.5864370000000  0.5428630000000 1.0
C      1  0.4570690000000  0.5127230000000  0.5978510000000 1.0
C      1  0.4741840000000  0.4884700000000  0.5906860000000 1.0
C      1  0.5802970000000  0.4465480000000  0.4854170000000 1.0
C      1  0.4806140000000  0.4966930000000  0.5605480000000 1.0
C      1  0.4325900000000  0.5212060000000  0.5106230000000 1.0
C      1  0.5315770000000  0.5297340000000  0.5573650000000 1.0
C      1  0.4979330000000  0.5544960000000  0.5175530000000 1.0
C      1  0.5632240000000  0.5936800000000  0.4688080000000 1.0
C      1  0.5498950000000  0.5800790000000  0.5654710000000 1.0
C      1  0.5260940000000  0.4114950000000  0.4579450000000 1.0
C      1  0.5195020000000  0.5256300000000  0.5992360000000 1.0
C      1  0.4307780000000  0.4865920000000  0.4213110000000 1.0
C      1  0.5892790000000  0.4674560000000  0.4649000000000 1.0
C      1  0.5051880000000  0.5285700000000  0.5013300000000 1.0
C      1  0.5023110000000  0.5467690000000  0.4082740000000 1.0
C      1  0.4553580000000  0.4316110000000  0.5406280000000 1.0
C      1  0.5576590000000  0.4378880000000  0.5767100000000 1.0
C      1  0.5935360000000  0.4516260000000  0.5140620000000 1.0
C      1  0.4097560000000  0.5291610000000  0.4932710000000 1.0
C      1  0.4813290000000  0.4226500000000  0.4804880000000 1.0
C      1  0.5024910000000  0.4593740000000  0.5081270000000 1.0
C      1  0.4021340000000  0.5072380000000  0.5453130000000 1.0
C      1  0.5451480000000  0.4652280000000  0.4131840000000 1.0
C      1  0.4135980000000  0.4549570000000  0.4615500000000 1.0
C      1  0.5487930000000  0.4838860000000  0.5976530000000 1.0
C      1  0.4882200000000  0.4718810000000  0.4627810000000 1.0
C      1  0.5122760000000  0.4519670000000  0.6010120000000 1.0
C      1  0.4739640000000  0.5391500000000  0.4082520000000 1.0
C      1  0.5749870000000  0.4929990000000  0.4696280000000 1.0
C      1  0.4304450000000  0.4294940000000  0.4582290000000 1.0
C      1  0.4725940000000  0.6137550000000  0.4717990000000 1.0
C      1  0.4831940000000  0.6003930000000  0.5505860000000 1.0
C      1  0.5704620000000  0.5257380000000  0.5820930000000 1.0
C      1  0.4284240000000  0.5302670000000  0.4532450000000 1.0
C      1  0.4670990000000  0.5951220000000  0.4475800000000 1.0
C      1  0.5165960000000  0.5366180000000  0.4714170000000 1.0
C      1  0.4964010000000  0.5445930000000  0.5985890000000 1.0
C      1  0.4687190000000  0.5389370000000  0.5893510000000 1.0
C      1  0.4775690000000  0.5198660000000  0.4897360000000 1.0
C      1  0.4663490000000  0.4500550000000  0.4259520000000 1.0
C      1  0.5128130000000  0.6112490000000  0.5059270000000 1.0
C      1  0.4015890000000  0.5055060000000  0.4565850000000 1.0
C      1  0.5281200000000  0.5004070000000  0.4495960000000 1.0
C      1  0.5252130000000  0.4658400000000  0.5270260000000 1.0
C      1  0.4317170000000  0.5653890000000  0.5057440000000 1.0
C      1  0.4585090000000  0.5062600000000  0.5138910000000 1.0
C      1  0.5139150000000  0.5900250000000  0.4616580000000 1.0
C      1  0.4793560000000  0.5047780000000  0.4584710000000 1.0
C      1  0.5297010000000  0.4145740000000  0.4271450000000 1.0
C      1  0.5414970000000  0.5775870000000  0.4575370000000 1.0
C      1  0.4030190000000  0.4552210000000  0.4898710000000 1.0
C      1  0.5520880000000  0.4866780000000  0.4879010000000 1.0
END
