TITL C-951346-9544-526 -6.92444385423976e-06 125000 -956.207191106485 0 0 154 (C1) n - 1
REM
REM in /home/bkarasulu/work/CARBON/AIRSS/Generating-Clusters/EDIP-Nigel-Params/with-SteepDescent/Only-C1/SD-CG/HFTN-CG
REM
REM
REM
REM
REM
REM ./C.cell (11c1c37f851c82e70ff6c80c92926a4b)
REM
REM compiler GCC version 9.2.1 20190827 (Red Hat 9.2.1-1)
REM options -cpp -mtune=generic -march=x86-64 -g -O0 -fpre-include=/usr/include/finclude/math-vector-fortran.h
REM seed 598881532 -31385141 -2007562870 -1625514392 -236224200 1395628002 -2067613573 -2131356844 -1309051823 1806138313 -533765452 1809585850 2017194323 712258114 -968731582 -1063625551 -2023692188 -1091012795 1867573077 1321677967 1537890140 2014161981 -669289415 -385041625 -846619398 -1429041462 -2063103494 599758845 886955431 -1298254346 904351079 1803503964 -358593132
REM
CELL 1.54180   50.00000   50.00000   50.00000   90.00000   90.00000   90.00000
LATT -1
SFAC C  
C      1  0.4984290000000  0.5666780000000  0.4081540000000 1.0
C      1  0.5215650000000  0.4897920000000  0.4794110000000 1.0
C      1  0.4552150000000  0.5455350000000  0.5768610000000 1.0
C      1  0.4560900000000  0.5276190000000  0.4925630000000 1.0
C      1  0.5869400000000  0.5166870000000  0.5355120000000 1.0
C      1  0.4728250000000  0.5767180000000  0.4974600000000 1.0
C      1  0.4429840000000  0.5624580000000  0.5558400000000 1.0
C      1  0.5859570000000  0.5337050000000  0.4910430000000 1.0
C      1  0.5913930000000  0.5437950000000  0.4640380000000 1.0
C      1  0.4993830000000  0.4840500000000  0.5655750000000 1.0
C      1  0.4101670000000  0.5111410000000  0.4976840000000 1.0
C      1  0.5478050000000  0.5166760000000  0.4057540000000 1.0
C      1  0.3900060000000  0.4948580000000  0.5353930000000 1.0
C      1  0.5111640000000  0.3871820000000  0.4844990000000 1.0
C      1  0.4781200000000  0.3991360000000  0.5347880000000 1.0
C      1  0.5732070000000  0.4306300000000  0.5380280000000 1.0
C      1  0.5279320000000  0.4744190000000  0.5604030000000 1.0
C      1  0.4529630000000  0.4352040000000  0.4374070000000 1.0
C      1  0.4709170000000  0.4759770000000  0.4745980000000 1.0
C      1  0.5924190000000  0.4524730000000  0.4887880000000 1.0
C      1  0.4212510000000  0.5539220000000  0.4845040000000 1.0
C      1  0.5891630000000  0.5020700000000  0.5608860000000 1.0
C      1  0.5266410000000  0.4224640000000  0.4646750000000 1.0
C      1  0.5663480000000  0.5160860000000  0.5747280000000 1.0
C      1  0.4869840000000  0.5570870000000  0.5301620000000 1.0
C      1  0.5452310000000  0.5256070000000  0.4489950000000 1.0
C      1  0.4345760000000  0.5560670000000  0.4576430000000 1.0
C      1  0.4572870000000  0.4604270000000  0.4963410000000 1.0
C      1  0.5383060000000  0.6035680000000  0.5310740000000 1.0
C      1  0.5915190000000  0.5112040000000  0.4302410000000 1.0
C      1  0.4684510000000  0.4389630000000  0.5583150000000 1.0
C      1  0.4624230000000  0.4876160000000  0.5332910000000 1.0
C      1  0.5245020000000  0.4501800000000  0.5393010000000 1.0
C      1  0.4585010000000  0.4802210000000  0.4192580000000 1.0
C      1  0.5145350000000  0.4948190000000  0.6142200000000 1.0
C      1  0.4757660000000  0.4176880000000  0.4814510000000 1.0
C      1  0.4730350000000  0.5509530000000  0.4786940000000 1.0
C      1  0.5317830000000  0.5346710000000  0.3922540000000 1.0
C      1  0.4321570000000  0.5017430000000  0.4811030000000 1.0
C      1  0.5594490000000  0.4728780000000  0.4243660000000 1.0
C      1  0.5168660000000  0.5378900000000  0.4498280000000 1.0
C      1  0.5127000000000  0.5625230000000  0.5014560000000 1.0
C      1  0.5057670000000  0.4028110000000  0.5348790000000 1.0
C      1  0.4465810000000  0.4654200000000  0.5762640000000 1.0
C      1  0.4195590000000  0.4551630000000  0.5361210000000 1.0
C      1  0.4816380000000  0.4314040000000  0.4293330000000 1.0
C      1  0.4000110000000  0.5359690000000  0.4868440000000 1.0
C      1  0.5217010000000  0.4625380000000  0.4956430000000 1.0
C      1  0.4757380000000  0.5940750000000  0.4572890000000 1.0
C      1  0.5202380000000  0.5686400000000  0.4268130000000 1.0
C      1  0.5620140000000  0.4443080000000  0.4912750000000 1.0
C      1  0.5534520000000  0.4490790000000  0.5236420000000 1.0
C      1  0.5127470000000  0.4786810000000  0.4055400000000 1.0
C      1  0.4288110000000  0.4891190000000  0.5708170000000 1.0
C      1  0.4515470000000  0.5141360000000  0.5740760000000 1.0
C      1  0.6067960000000  0.5254840000000  0.4488260000000 1.0
C      1  0.5494130000000  0.5022260000000  0.4702030000000 1.0
C      1  0.4661350000000  0.5138070000000  0.5453800000000 1.0
C      1  0.4668630000000  0.4820490000000  0.3923770000000 1.0
C      1  0.5096540000000  0.6000700000000  0.4932190000000 1.0
C      1  0.5813110000000  0.4728120000000  0.5549420000000 1.0
C      1  0.5382540000000  0.4136890000000  0.5688840000000 1.0
C      1  0.4522920000000  0.5050650000000  0.4350170000000 1.0
C      1  0.4962900000000  0.4660560000000  0.4608610000000 1.0
C      1  0.5704670000000  0.5286000000000  0.4193660000000 1.0
C      1  0.4830240000000  0.5902900000000  0.5497600000000 1.0
C      1  0.4996630000000  0.4092470000000  0.4399540000000 1.0
C      1  0.4400010000000  0.4594620000000  0.4273370000000 1.0
C      1  0.4280100000000  0.5643850000000  0.5109640000000 1.0
C      1  0.4762870000000  0.5050080000000  0.4806860000000 1.0
C      1  0.4825590000000  0.5543030000000  0.5843070000000 1.0
C      1  0.5441020000000  0.3998430000000  0.5010950000000 1.0
C      1  0.4948880000000  0.4581520000000  0.4310880000000 1.0
C      1  0.4674000000000  0.4248430000000  0.5328080000000 1.0
C      1  0.4122030000000  0.4461070000000  0.5097050000000 1.0
C      1  0.5844500000000  0.5543090000000  0.5119460000000 1.0
C      1  0.5042790000000  0.5411060000000  0.4797460000000 1.0
C      1  0.5182580000000  0.5329810000000  0.5695240000000 1.0
C      1  0.5622090000000  0.4762870000000  0.5322530000000 1.0
C      1  0.4338800000000  0.4423310000000  0.4879640000000 1.0
C      1  0.5371000000000  0.5778870000000  0.5425280000000 1.0
C      1  0.4203190000000  0.4712290000000  0.4455070000000 1.0
C      1  0.5810640000000  0.5805290000000  0.5028380000000 1.0
C      1  0.5635410000000  0.4185180000000  0.5611690000000 1.0
C      1  0.5396200000000  0.5092880000000  0.5615530000000 1.0
C      1  0.5168790000000  0.4030260000000  0.5080460000000 1.0
C      1  0.4605590000000  0.5375540000000  0.4063630000000 1.0
C      1  0.5266700000000  0.5764450000000  0.5696780000000 1.0
C      1  0.4334470000000  0.5311190000000  0.4139510000000 1.0
C      1  0.4926540000000  0.4320230000000  0.5743120000000 1.0
C      1  0.5680460000000  0.4625320000000  0.5786310000000 1.0
C      1  0.5052850000000  0.5424430000000  0.3920110000000 1.0
C      1  0.4704070000000  0.5006790000000  0.5942100000000 1.0
C      1  0.5394740000000  0.5526030000000  0.5813590000000 1.0
C      1  0.4787540000000  0.4424570000000  0.5111560000000 1.0
C      1  0.5032440000000  0.5896470000000  0.4676240000000 1.0
C      1  0.5383150000000  0.5188430000000  0.5324300000000 1.0
C      1  0.4612100000000  0.5695670000000  0.4464360000000 1.0
C      1  0.4353450000000  0.4162070000000  0.4518180000000 1.0
C      1  0.4227940000000  0.5361370000000  0.4399790000000 1.0
C      1  0.4968110000000  0.5748420000000  0.5692700000000 1.0
C      1  0.5410240000000  0.4640750000000  0.5848100000000 1.0
C      1  0.5110280000000  0.5111650000000  0.5227400000000 1.0
C      1  0.4888840000000  0.5222630000000  0.4068130000000 1.0
C      1  0.5678640000000  0.5101900000000  0.4925880000000 1.0
C      1  0.4915050000000  0.4951490000000  0.3938210000000 1.0
C      1  0.5360860000000  0.5996610000000  0.5037030000000 1.0
C      1  0.4685890000000  0.4717420000000  0.5944300000000 1.0
C      1  0.5251650000000  0.5811090000000  0.4514530000000 1.0
C      1  0.4268140000000  0.5000230000000  0.4521890000000 1.0
C      1  0.5554830000000  0.4642980000000  0.4678970000000 1.0
C      1  0.5630900000000  0.5045120000000  0.5213980000000 1.0
C      1  0.3882640000000  0.4911510000000  0.5058910000000 1.0
C      1  0.4933150000000  0.4560750000000  0.5913860000000 1.0
C      1  0.4909130000000  0.3973680000000  0.4664870000000 1.0
C      1  0.5668480000000  0.5452820000000  0.5732810000000 1.0
C      1  0.5321900000000  0.4300100000000  0.4364270000000 1.0
C      1  0.4476450000000  0.5857090000000  0.5142150000000 1.0
C      1  0.5564830000000  0.5847320000000  0.4899160000000 1.0
C      1  0.4120420000000  0.4805750000000  0.5477340000000 1.0
C      1  0.5850350000000  0.4763060000000  0.4694210000000 1.0
C      1  0.4099240000000  0.5269060000000  0.5429620000000 1.0
C      1  0.4978160000000  0.5197320000000  0.4361150000000 1.0
C      1  0.4081160000000  0.4252770000000  0.4521650000000 1.0
C      1  0.4558620000000  0.5855750000000  0.5433280000000 1.0
C      1  0.5652940000000  0.5506760000000  0.4508490000000 1.0
C      1  0.5043120000000  0.4584300000000  0.5187940000000 1.0
C      1  0.5515230000000  0.4509470000000  0.4415230000000 1.0
C      1  0.4587780000000  0.5358740000000  0.5244850000000 1.0
C      1  0.4629660000000  0.6014440000000  0.4821750000000 1.0
C      1  0.5044580000000  0.5113980000000  0.4925950000000 1.0
C      1  0.4416960000000  0.4788850000000  0.5153130000000 1.0
C      1  0.5331100000000  0.4764600000000  0.6082380000000 1.0
C      1  0.5209910000000  0.5535180000000  0.5318330000000 1.0
C      1  0.4750980000000  0.5140000000000  0.4520220000000 1.0
C      1  0.5842720000000  0.5451550000000  0.5392640000000 1.0
C      1  0.6049480000000  0.4551150000000  0.5138470000000 1.0
C      1  0.4964220000000  0.5119650000000  0.5496550000000 1.0
C      1  0.5065090000000  0.4422240000000  0.4779710000000 1.0
C      1  0.4763260000000  0.4686130000000  0.5507470000000 1.0
C      1  0.4277140000000  0.5136510000000  0.5229700000000 1.0
C      1  0.5966490000000  0.4493590000000  0.5402790000000 1.0
C      1  0.5525380000000  0.4178180000000  0.4808550000000 1.0
C      1  0.5153330000000  0.4238660000000  0.5548970000000 1.0
C      1  0.4963280000000  0.5106680000000  0.6006790000000 1.0
C      1  0.5389570000000  0.4899680000000  0.4124430000000 1.0
C      1  0.4211100000000  0.5540790000000  0.5383130000000 1.0
C      1  0.5504630000000  0.5741390000000  0.4635970000000 1.0
C      1  0.4981780000000  0.5384880000000  0.6021800000000 1.0
C      1  0.4459380000000  0.4155150000000  0.4795970000000 1.0
C      1  0.4699030000000  0.5630380000000  0.4180500000000 1.0
C      1  0.5827170000000  0.4846010000000  0.4392270000000 1.0
C      1  0.4117400000000  0.4509190000000  0.4657470000000 1.0
C      1  0.3927640000000  0.4634940000000  0.4964800000000 1.0
END
