TITL C-950533-5798-46 -1.54643347795669e-06 125000 -1233.54453474873 0 0 199 (C1) n - 1
REM
REM in /home/bkarasulu/work/CARBON/AIRSS/Generating-Clusters/EDIP-Nigel-Params/with-SteepDescent/Only-C1/SD-CG/HFTN-CG
REM
REM
REM
REM
REM
REM ./C.cell (11c1c37f851c82e70ff6c80c92926a4b)
REM
REM compiler GCC version 9.2.1 20190827 (Red Hat 9.2.1-1)
REM options -cpp -mtune=generic -march=x86-64 -g -O0 -fpre-include=/usr/include/finclude/math-vector-fortran.h
REM seed -152601150 321372018 551925419 -1152276733 738515958 -522109716 -17250506 -872698517 30495698 748433669 -1078939525 526871035 639118303 -68182808 -2057798298 -290713297 -623383719 -1567516670 1234502201 -1694072194 952621015 1996040222 1003520598 368531646 69639229 1085569274 -1617214187 353031259 -787307162 -2004252231 195651799 1160326321 2000551320
REM
CELL 1.54180   50.00000   50.00000   50.00000   90.00000   90.00000   90.00000
LATT -1
SFAC C  
C      1  0.5433910000000  0.5301330000000  0.5798290000000 1.0
C      1  0.5022600000000  0.5241530000000  0.5466820000000 1.0
C      1  0.5648080000000  0.5153510000000  0.4991300000000 1.0
C      1  0.5063020000000  0.4337540000000  0.4939240000000 1.0
C      1  0.5562800000000  0.5505440000000  0.4739860000000 1.0
C      1  0.5115250000000  0.4674570000000  0.3815230000000 1.0
C      1  0.5576940000000  0.6078420000000  0.4772820000000 1.0
C      1  0.4169210000000  0.5439630000000  0.5104640000000 1.0
C      1  0.3902120000000  0.4837960000000  0.4961950000000 1.0
C      1  0.5977230000000  0.4847650000000  0.5198410000000 1.0
C      1  0.4367470000000  0.4623420000000  0.3870170000000 1.0
C      1  0.4554350000000  0.5096490000000  0.5722430000000 1.0
C      1  0.4967530000000  0.5456830000000  0.4560440000000 1.0
C      1  0.3902300000000  0.5338280000000  0.4933910000000 1.0
C      1  0.4452610000000  0.4032790000000  0.5384300000000 1.0
C      1  0.5001140000000  0.6048020000000  0.5352120000000 1.0
C      1  0.6005850000000  0.4221430000000  0.5004940000000 1.0
C      1  0.6239770000000  0.5198020000000  0.5362260000000 1.0
C      1  0.4732600000000  0.5325230000000  0.5563460000000 1.0
C      1  0.5633510000000  0.4223690000000  0.4774100000000 1.0
C      1  0.4854070000000  0.4976710000000  0.6320160000000 1.0
C      1  0.4263730000000  0.4310770000000  0.4457880000000 1.0
C      1  0.5918990000000  0.5007620000000  0.5679270000000 1.0
C      1  0.5755070000000  0.4786930000000  0.5805740000000 1.0
C      1  0.5507850000000  0.4873070000000  0.5370790000000 1.0
C      1  0.3966930000000  0.5663250000000  0.4778590000000 1.0
C      1  0.4612780000000  0.3918830000000  0.4937160000000 1.0
C      1  0.4647640000000  0.4873620000000  0.5893300000000 1.0
C      1  0.5904640000000  0.5632630000000  0.5481530000000 1.0
C      1  0.4411300000000  0.4055110000000  0.5094840000000 1.0
C      1  0.6026340000000  0.5140190000000  0.4668310000000 1.0
C      1  0.5734220000000  0.5738570000000  0.4361860000000 1.0
C      1  0.5186460000000  0.4520720000000  0.4049320000000 1.0
C      1  0.4757380000000  0.4770000000000  0.4835590000000 1.0
C      1  0.5467120000000  0.5603340000000  0.5314320000000 1.0
C      1  0.4981370000000  0.5760770000000  0.5407770000000 1.0
C      1  0.5613450000000  0.4613570000000  0.4980490000000 1.0
C      1  0.4170380000000  0.4432010000000  0.5476080000000 1.0
C      1  0.5819820000000  0.4623790000000  0.4784760000000 1.0
C      1  0.4458460000000  0.5256950000000  0.6110940000000 1.0
C      1  0.5336580000000  0.5592050000000  0.4139510000000 1.0
C      1  0.5498210000000  0.5764000000000  0.4566280000000 1.0
C      1  0.4150090000000  0.4492300000000  0.4001980000000 1.0
C      1  0.5067380000000  0.5252160000000  0.4775610000000 1.0
C      1  0.5207420000000  0.5374460000000  0.3992220000000 1.0
C      1  0.5405780000000  0.5154110000000  0.3932470000000 1.0
C      1  0.4850670000000  0.3785640000000  0.5360690000000 1.0
C      1  0.5296700000000  0.5441280000000  0.4856700000000 1.0
C      1  0.5111590000000  0.5931160000000  0.4687550000000 1.0
C      1  0.4932930000000  0.4134070000000  0.4275670000000 1.0
C      1  0.4905160000000  0.4723780000000  0.5090940000000 1.0
C      1  0.4473670000000  0.4870660000000  0.6123970000000 1.0
C      1  0.4020660000000  0.4358860000000  0.5159350000000 1.0
C      1  0.5177370000000  0.5701620000000  0.4940310000000 1.0
C      1  0.5104830000000  0.5461910000000  0.6077960000000 1.0
C      1  0.6090100000000  0.4971100000000  0.5439580000000 1.0
C      1  0.4303770000000  0.6004210000000  0.4741070000000 1.0
C      1  0.5260470000000  0.4948960000000  0.6056990000000 1.0
C      1  0.4299350000000  0.4760660000000  0.4327890000000 1.0
C      1  0.4223910000000  0.5234910000000  0.4241360000000 1.0
C      1  0.5318300000000  0.3793220000000  0.5028700000000 1.0
C      1  0.4336280000000  0.5618010000000  0.5618470000000 1.0
C      1  0.4413740000000  0.5400310000000  0.4894210000000 1.0
C      1  0.5258190000000  0.3930330000000  0.5273360000000 1.0
C      1  0.4631570000000  0.4622800000000  0.5766750000000 1.0
C      1  0.4395360000000  0.5082730000000  0.5310840000000 1.0
C      1  0.5459430000000  0.6278430000000  0.4941160000000 1.0
C      1  0.4809590000000  0.5355610000000  0.4325280000000 1.0
C      1  0.5732130000000  0.4144130000000  0.5041960000000 1.0
C      1  0.4542950000000  0.4418610000000  0.4503710000000 1.0
C      1  0.4131260000000  0.4512590000000  0.4284850000000 1.0
C      1  0.4310280000000  0.4841830000000  0.4630700000000 1.0
C      1  0.5021020000000  0.5669850000000  0.5906470000000 1.0
C      1  0.4786580000000  0.4849930000000  0.4364450000000 1.0
C      1  0.5161950000000  0.4986990000000  0.4655980000000 1.0
C      1  0.3918760000000  0.5065480000000  0.5383910000000 1.0
C      1  0.4392320000000  0.4922740000000  0.3916170000000 1.0
C      1  0.4837610000000  0.4626880000000  0.3786660000000 1.0
C      1  0.4176300000000  0.5391050000000  0.5628350000000 1.0
C      1  0.4594440000000  0.4640020000000  0.4273800000000 1.0
C      1  0.5732290000000  0.4770710000000  0.4086300000000 1.0
C      1  0.4743460000000  0.4168660000000  0.5780210000000 1.0
C      1  0.4590890000000  0.5731190000000  0.5611980000000 1.0
C      1  0.4666780000000  0.5623630000000  0.4981390000000 1.0
C      1  0.4895650000000  0.4498810000000  0.5528880000000 1.0
C      1  0.5852530000000  0.5352060000000  0.4546450000000 1.0
C      1  0.4469290000000  0.5114900000000  0.4652760000000 1.0
C      1  0.5479110000000  0.4816740000000  0.5915680000000 1.0
C      1  0.5931640000000  0.5542660000000  0.5185230000000 1.0
C      1  0.4863000000000  0.5830190000000  0.4217730000000 1.0
C      1  0.4580120000000  0.5049890000000  0.6321310000000 1.0
C      1  0.5479760000000  0.4006910000000  0.5460020000000 1.0
C      1  0.4630770000000  0.4528510000000  0.3971050000000 1.0
C      1  0.4811380000000  0.5681250000000  0.4687850000000 1.0
C      1  0.5139620000000  0.4539700000000  0.4523300000000 1.0
C      1  0.5314210000000  0.4403790000000  0.5297990000000 1.0
C      1  0.4173110000000  0.4181740000000  0.4978720000000 1.0
C      1  0.4959710000000  0.5601010000000  0.5133640000000 1.0
C      1  0.4289680000000  0.4176010000000  0.5577040000000 1.0
C      1  0.5843690000000  0.5014970000000  0.4182320000000 1.0
C      1  0.5179270000000  0.5689220000000  0.5656870000000 1.0
C      1  0.5618090000000  0.5235490000000  0.4163310000000 1.0
C      1  0.6104030000000  0.5299770000000  0.5138940000000 1.0
C      1  0.5272090000000  0.5239230000000  0.6032010000000 1.0
C      1  0.4681600000000  0.5052230000000  0.4846550000000 1.0
C      1  0.5387710000000  0.3940930000000  0.4458620000000 1.0
C      1  0.4231900000000  0.5549880000000  0.4667050000000 1.0
C      1  0.4486370000000  0.5772250000000  0.4293620000000 1.0
C      1  0.5189330000000  0.6349080000000  0.4952260000000 1.0
C      1  0.4953770000000  0.4771300000000  0.4601960000000 1.0
C      1  0.5291450000000  0.4676590000000  0.4290220000000 1.0
C      1  0.5020170000000  0.5208070000000  0.4170580000000 1.0
C      1  0.5638540000000  0.5566960000000  0.4131290000000 1.0
C      1  0.4089630000000  0.4914370000000  0.5686280000000 1.0
C      1  0.5721870000000  0.4791930000000  0.4562190000000 1.0
C      1  0.5386090000000  0.5826980000000  0.5121420000000 1.0
C      1  0.5160890000000  0.4961560000000  0.3837560000000 1.0
C      1  0.5643050000000  0.5875870000000  0.4962810000000 1.0
C      1  0.5972670000000  0.5619430000000  0.4497940000000 1.0
C      1  0.4216140000000  0.5750980000000  0.5153850000000 1.0
C      1  0.4131500000000  0.5341530000000  0.4480260000000 1.0
C      1  0.5109160000000  0.4193150000000  0.5208010000000 1.0
C      1  0.5225970000000  0.5030100000000  0.4349940000000 1.0
C      1  0.4956110000000  0.4350560000000  0.4093670000000 1.0
C      1  0.4760030000000  0.5203270000000  0.5087630000000 1.0
C      1  0.5159770000000  0.4603800000000  0.5041030000000 1.0
C      1  0.4890600000000  0.5087570000000  0.3829170000000 1.0
C      1  0.3960970000000  0.5193030000000  0.4666240000000 1.0
C      1  0.5998960000000  0.5239220000000  0.5819500000000 1.0
C      1  0.4085180000000  0.5885810000000  0.4922860000000 1.0
C      1  0.4694080000000  0.5595820000000  0.4171780000000 1.0
C      1  0.5843770000000  0.5444540000000  0.5700910000000 1.0
C      1  0.4048150000000  0.4640220000000  0.5105220000000 1.0
C      1  0.4735960000000  0.4179340000000  0.4497800000000 1.0
C      1  0.5611020000000  0.5531460000000  0.5850750000000 1.0
C      1  0.6049980000000  0.5748240000000  0.4735160000000 1.0
C      1  0.4507910000000  0.4613510000000  0.4750180000000 1.0
C      1  0.5207350000000  0.4310580000000  0.4708540000000 1.0
C      1  0.5036260000000  0.4949140000000  0.5512340000000 1.0
C      1  0.4213120000000  0.4978520000000  0.4139470000000 1.0
C      1  0.5259000000000  0.4007870000000  0.4715680000000 1.0
C      1  0.5174500000000  0.3987330000000  0.4282030000000 1.0
C      1  0.5981380000000  0.4382760000000  0.4770390000000 1.0
C      1  0.5598660000000  0.4637900000000  0.4309750000000 1.0
C      1  0.4656050000000  0.3975670000000  0.4669290000000 1.0
C      1  0.5595140000000  0.4244450000000  0.5303950000000 1.0
C      1  0.5065980000000  0.3738710000000  0.4913000000000 1.0
C      1  0.5264480000000  0.5410470000000  0.5569020000000 1.0
C      1  0.5646930000000  0.4351730000000  0.4311670000000 1.0
C      1  0.5423450000000  0.5004630000000  0.5126270000000 1.0
C      1  0.4738890000000  0.6208130000000  0.4843200000000 1.0
C      1  0.5724150000000  0.4690760000000  0.5250890000000 1.0
C      1  0.4623760000000  0.5114630000000  0.4366670000000 1.0
C      1  0.4655980000000  0.5034860000000  0.3992710000000 1.0
C      1  0.4150410000000  0.5249550000000  0.5365750000000 1.0
C      1  0.4864730000000  0.4252490000000  0.5362720000000 1.0
C      1  0.5652580000000  0.5448790000000  0.5115620000000 1.0
C      1  0.4643470000000  0.5943830000000  0.5401690000000 1.0
C      1  0.4735190000000  0.5650960000000  0.5856570000000 1.0
C      1  0.4445850000000  0.4226560000000  0.5826050000000 1.0
C      1  0.4148100000000  0.4226890000000  0.4700400000000 1.0
C      1  0.5788660000000  0.4534780000000  0.5689280000000 1.0
C      1  0.5617830000000  0.4136770000000  0.4491800000000 1.0
C      1  0.5450450000000  0.5228700000000  0.4421230000000 1.0
C      1  0.5205260000000  0.4510790000000  0.5561720000000 1.0
C      1  0.5269620000000  0.6095180000000  0.5227170000000 1.0
C      1  0.5958100000000  0.5081080000000  0.4989300000000 1.0
C      1  0.5012780000000  0.6189840000000  0.4801950000000 1.0
C      1  0.4858540000000  0.5911710000000  0.4493030000000 1.0
C      1  0.4836820000000  0.3799250000000  0.5074700000000 1.0
C      1  0.5922450000000  0.5771430000000  0.4982320000000 1.0
C      1  0.5020330000000  0.5300850000000  0.5160330000000 1.0
C      1  0.4829120000000  0.4766000000000  0.5374040000000 1.0
C      1  0.5958940000000  0.4933500000000  0.4456270000000 1.0
C      1  0.4522130000000  0.4819370000000  0.5386880000000 1.0
C      1  0.5646160000000  0.5779180000000  0.5480190000000 1.0
C      1  0.4692220000000  0.5376840000000  0.5955210000000 1.0
C      1  0.4986570000000  0.4324320000000  0.5926490000000 1.0
C      1  0.4254390000000  0.5152720000000  0.5796920000000 1.0
C      1  0.5265760000000  0.5572300000000  0.4433560000000 1.0
C      1  0.5043660000000  0.4809250000000  0.6193880000000 1.0
C      1  0.4129240000000  0.4617470000000  0.5726590000000 1.0
C      1  0.4369300000000  0.4587500000000  0.5311480000000 1.0
C      1  0.4732490000000  0.4024380000000  0.5486090000000 1.0
C      1  0.4383030000000  0.4515950000000  0.5877090000000 1.0
C      1  0.4969230000000  0.4546740000000  0.6109080000000 1.0
C      1  0.5373080000000  0.4083210000000  0.5707580000000 1.0
C      1  0.5293880000000  0.4805200000000  0.5578640000000 1.0
C      1  0.5482520000000  0.5772600000000  0.5725300000000 1.0
C      1  0.5775870000000  0.4453440000000  0.5425460000000 1.0
C      1  0.3817850000000  0.5081130000000  0.5109050000000 1.0
C      1  0.4585920000000  0.5298890000000  0.5291600000000 1.0
C      1  0.4507660000000  0.5859370000000  0.5127380000000 1.0
C      1  0.5591150000000  0.5073710000000  0.4662230000000 1.0
C      1  0.4398810000000  0.5773070000000  0.4569120000000 1.0
C      1  0.4501660000000  0.6098040000000  0.4940450000000 1.0
C      1  0.5256330000000  0.4324280000000  0.5791490000000 1.0
C      1  0.5373050000000  0.4794840000000  0.4918050000000 1.0
C      1  0.4022230000000  0.4912840000000  0.4708770000000 1.0
END
