TITL C-951337-3020-220 -3.17680657590627e-06 125000 -1010.93115098889 0 0 160 (C1) n - 1
REM
REM in /home/bkarasulu/work/CARBON/AIRSS/Generating-Clusters/EDIP-Nigel-Params/with-SteepDescent/Only-C1/SD-CG/HFTN-CG
REM
REM
REM
REM
REM
REM ./C.cell (11c1c37f851c82e70ff6c80c92926a4b)
REM
REM compiler GCC version 9.2.1 20190827 (Red Hat 9.2.1-1)
REM options -cpp -mtune=generic -march=x86-64 -g -O0 -fpre-include=/usr/include/finclude/math-vector-fortran.h
REM seed 946266075 -996297509 -1546256157 -661384632 -1891795266 -1931724051 1123471539 707547064 2138122076 1563457852 -1196389943 1936430267 1105624376 1380786273 172529096 -374492896 772746746 537241491 -86532793 1819109692 -478629182 1856932980 -452012436 -1867027370 1173671737 2027961536 -1189588730 -1336187325 -1006486918 -1019659228 -128664175 1318615583 741499984
REM
CELL 1.54180   50.00000   50.00000   50.00000   90.00000   90.00000   90.00000
LATT -1
SFAC C  
C      1  0.4960750000000  0.4589950000000  0.5003510000000 1.0
C      1  0.5603050000000  0.5748560000000  0.4700350000000 1.0
C      1  0.4448440000000  0.5804290000000  0.5208140000000 1.0
C      1  0.4404310000000  0.5337170000000  0.5694520000000 1.0
C      1  0.4758520000000  0.4519080000000  0.4806810000000 1.0
C      1  0.4963350000000  0.5062270000000  0.4334520000000 1.0
C      1  0.4705420000000  0.5481870000000  0.4090890000000 1.0
C      1  0.5494510000000  0.5519440000000  0.5146190000000 1.0
C      1  0.5658690000000  0.4475370000000  0.5503030000000 1.0
C      1  0.4312400000000  0.4682970000000  0.4355810000000 1.0
C      1  0.4318340000000  0.4312030000000  0.4700460000000 1.0
C      1  0.5638520000000  0.4661330000000  0.4262120000000 1.0
C      1  0.4066910000000  0.4571550000000  0.5340180000000 1.0
C      1  0.5199020000000  0.4547670000000  0.4098960000000 1.0
C      1  0.4806570000000  0.5170130000000  0.5923130000000 1.0
C      1  0.4589250000000  0.4580290000000  0.4315260000000 1.0
C      1  0.5989650000000  0.4798170000000  0.5348110000000 1.0
C      1  0.4825700000000  0.4962670000000  0.4075630000000 1.0
C      1  0.6108010000000  0.5535460000000  0.5357450000000 1.0
C      1  0.5680180000000  0.4958610000000  0.5627500000000 1.0
C      1  0.5010380000000  0.5251330000000  0.5137690000000 1.0
C      1  0.5386840000000  0.5780920000000  0.5539040000000 1.0
C      1  0.5585680000000  0.5947360000000  0.4984760000000 1.0
C      1  0.4495020000000  0.4469820000000  0.4905610000000 1.0
C      1  0.4628440000000  0.4009470000000  0.4958330000000 1.0
C      1  0.4340030000000  0.4672170000000  0.5263040000000 1.0
C      1  0.4837540000000  0.4187680000000  0.4201290000000 1.0
C      1  0.5565880000000  0.5251590000000  0.5236620000000 1.0
C      1  0.5025170000000  0.4394820000000  0.5817130000000 1.0
C      1  0.4141880000000  0.5001980000000  0.4632630000000 1.0
C      1  0.4806250000000  0.4646090000000  0.4543840000000 1.0
C      1  0.6021580000000  0.5143850000000  0.4973910000000 1.0
C      1  0.4910380000000  0.4509340000000  0.5302060000000 1.0
C      1  0.5334540000000  0.5115000000000  0.4016250000000 1.0
C      1  0.4904710000000  0.5784350000000  0.5263920000000 1.0
C      1  0.4665680000000  0.5519130000000  0.4870320000000 1.0
C      1  0.6042420000000  0.5279590000000  0.5449830000000 1.0
C      1  0.4936450000000  0.4447990000000  0.4070540000000 1.0
C      1  0.5498960000000  0.5817200000000  0.4405740000000 1.0
C      1  0.5049040000000  0.6040810000000  0.4914370000000 1.0
C      1  0.4616840000000  0.5177160000000  0.4061570000000 1.0
C      1  0.5423260000000  0.4578850000000  0.4871530000000 1.0
C      1  0.4522120000000  0.5167760000000  0.5902140000000 1.0
C      1  0.5621640000000  0.5384190000000  0.5722230000000 1.0
C      1  0.4650940000000  0.5263970000000  0.4679640000000 1.0
C      1  0.5239680000000  0.5136310000000  0.4905560000000 1.0
C      1  0.5402140000000  0.5561610000000  0.4860360000000 1.0
C      1  0.4339630000000  0.5187930000000  0.4752400000000 1.0
C      1  0.4179710000000  0.5441250000000  0.4772670000000 1.0
C      1  0.5095250000000  0.4539270000000  0.4472290000000 1.0
C      1  0.3747570000000  0.4915570000000  0.5016000000000 1.0
C      1  0.5687380000000  0.5746570000000  0.5194300000000 1.0
C      1  0.5441580000000  0.4455780000000  0.4212660000000 1.0
C      1  0.5999260000000  0.4578950000000  0.5159970000000 1.0
C      1  0.5698690000000  0.4435080000000  0.4824590000000 1.0
C      1  0.4664730000000  0.4219530000000  0.5416380000000 1.0
C      1  0.4839190000000  0.4957830000000  0.5088170000000 1.0
C      1  0.6092750000000  0.5065210000000  0.5254660000000 1.0
C      1  0.5442310000000  0.4748910000000  0.5125720000000 1.0
C      1  0.5862090000000  0.4531220000000  0.4378320000000 1.0
C      1  0.5199760000000  0.5874260000000  0.5328790000000 1.0
C      1  0.5316360000000  0.5364000000000  0.4439150000000 1.0
C      1  0.4367470000000  0.4727090000000  0.4979640000000 1.0
C      1  0.5063260000000  0.5521410000000  0.4527640000000 1.0
C      1  0.4464200000000  0.5090490000000  0.5298290000000 1.0
C      1  0.5228250000000  0.4254600000000  0.5641150000000 1.0
C      1  0.5289110000000  0.4085120000000  0.4533820000000 1.0
C      1  0.4074100000000  0.4932610000000  0.5667100000000 1.0
C      1  0.5268300000000  0.5327810000000  0.3863720000000 1.0
C      1  0.4425730000000  0.5482520000000  0.4358590000000 1.0
C      1  0.5281940000000  0.5115250000000  0.5908890000000 1.0
C      1  0.4494370000000  0.4148270000000  0.4524960000000 1.0
C      1  0.4573220000000  0.4282340000000  0.4280490000000 1.0
C      1  0.4725250000000  0.4674120000000  0.4061760000000 1.0
C      1  0.5188190000000  0.4390680000000  0.4916960000000 1.0
C      1  0.5244710000000  0.5546440000000  0.4037660000000 1.0
C      1  0.4912620000000  0.5478880000000  0.5616140000000 1.0
C      1  0.5249410000000  0.5958680000000  0.4361800000000 1.0
C      1  0.4735620000000  0.4639640000000  0.5751360000000 1.0
C      1  0.5578270000000  0.5105290000000  0.5873570000000 1.0
C      1  0.4169220000000  0.4536440000000  0.4568250000000 1.0
C      1  0.5741320000000  0.4332730000000  0.4542060000000 1.0
C      1  0.5352660000000  0.5502110000000  0.5663470000000 1.0
C      1  0.4934560000000  0.4004320000000  0.4432820000000 1.0
C      1  0.4439850000000  0.5194550000000  0.4296720000000 1.0
C      1  0.4274300000000  0.4746890000000  0.5786990000000 1.0
C      1  0.5097120000000  0.4282630000000  0.4643430000000 1.0
C      1  0.5743590000000  0.5226030000000  0.5481420000000 1.0
C      1  0.4933090000000  0.5429250000000  0.5902230000000 1.0
C      1  0.4727500000000  0.4041940000000  0.4667850000000 1.0
C      1  0.4122740000000  0.4742760000000  0.4777800000000 1.0
C      1  0.5397150000000  0.4611800000000  0.5387770000000 1.0
C      1  0.5067480000000  0.5021250000000  0.5598960000000 1.0
C      1  0.5841550000000  0.4354620000000  0.5273460000000 1.0
C      1  0.4339000000000  0.4449800000000  0.5737380000000 1.0
C      1  0.3917190000000  0.4482080000000  0.5108450000000 1.0
C      1  0.4057480000000  0.5234620000000  0.5264770000000 1.0
C      1  0.5908610000000  0.4646260000000  0.4887520000000 1.0
C      1  0.4926700000000  0.5537930000000  0.5027110000000 1.0
C      1  0.5279190000000  0.5092280000000  0.4296730000000 1.0
C      1  0.5243600000000  0.4191720000000  0.5144880000000 1.0
C      1  0.3871680000000  0.4685830000000  0.4921480000000 1.0
C      1  0.4880310000000  0.4962390000000  0.6116610000000 1.0
C      1  0.5218280000000  0.5413950000000  0.5931940000000 1.0
C      1  0.4173110000000  0.5195290000000  0.5547810000000 1.0
C      1  0.5758720000000  0.5300720000000  0.4507400000000 1.0
C      1  0.5503760000000  0.4085310000000  0.5124510000000 1.0
C      1  0.5303620000000  0.4729330000000  0.4627290000000 1.0
C      1  0.5735750000000  0.5024040000000  0.4579210000000 1.0
C      1  0.5156220000000  0.4880190000000  0.6064130000000 1.0
C      1  0.4847470000000  0.4810310000000  0.5368060000000 1.0
C      1  0.4336100000000  0.5638300000000  0.4593570000000 1.0
C      1  0.5835600000000  0.4718160000000  0.5594220000000 1.0
C      1  0.4647270000000  0.4343120000000  0.5717110000000 1.0
C      1  0.4441930000000  0.4890290000000  0.5972220000000 1.0
C      1  0.4173240000000  0.5444060000000  0.5071360000000 1.0
C      1  0.4604660000000  0.5344920000000  0.5295820000000 1.0
C      1  0.4687390000000  0.4745080000000  0.6038170000000 1.0
C      1  0.5503290000000  0.4229500000000  0.4394920000000 1.0
C      1  0.5723800000000  0.4224720000000  0.5041880000000 1.0
C      1  0.3910030000000  0.4808030000000  0.5461940000000 1.0
C      1  0.5960430000000  0.5436130000000  0.4920620000000 1.0
C      1  0.4182770000000  0.4339840000000  0.5507050000000 1.0
C      1  0.4523410000000  0.4994730000000  0.5004320000000 1.0
C      1  0.4869810000000  0.4940190000000  0.4601150000000 1.0
C      1  0.5304590000000  0.6019270000000  0.5081800000000 1.0
C      1  0.4790050000000  0.4029770000000  0.5199790000000 1.0
C      1  0.4555760000000  0.4821170000000  0.5461440000000 1.0
C      1  0.4638430000000  0.5776910000000  0.5435100000000 1.0
C      1  0.5271960000000  0.4795620000000  0.5601560000000 1.0
C      1  0.4365660000000  0.4130280000000  0.5040030000000 1.0
C      1  0.5164130000000  0.4666440000000  0.5848040000000 1.0
C      1  0.4786480000000  0.5931350000000  0.4521210000000 1.0
C      1  0.5190630000000  0.4386680000000  0.5376070000000 1.0
C      1  0.5056930000000  0.3981840000000  0.5162790000000 1.0
C      1  0.5969500000000  0.5636930000000  0.5137390000000 1.0
C      1  0.3849350000000  0.5020300000000  0.5254820000000 1.0
C      1  0.5114450000000  0.5613730000000  0.4814650000000 1.0
C      1  0.5507710000000  0.4873820000000  0.4437070000000 1.0
C      1  0.4555350000000  0.5965020000000  0.4978860000000 1.0
C      1  0.4824170000000  0.6011410000000  0.5092310000000 1.0
C      1  0.5402950000000  0.5037500000000  0.5122770000000 1.0
C      1  0.4379200000000  0.4187020000000  0.5335910000000 1.0
C      1  0.5204020000000  0.6198210000000  0.4501030000000 1.0
C      1  0.5102790000000  0.5288020000000  0.5454850000000 1.0
C      1  0.4626870000000  0.5494640000000  0.5537070000000 1.0
C      1  0.4587680000000  0.5789250000000  0.4725520000000 1.0
C      1  0.5485470000000  0.5606850000000  0.4204190000000 1.0
C      1  0.5652590000000  0.5845450000000  0.5467620000000 1.0
C      1  0.5010210000000  0.5777680000000  0.4370430000000 1.0
C      1  0.5890260000000  0.4934040000000  0.4811600000000 1.0
C      1  0.4463500000000  0.5522030000000  0.5106880000000 1.0
C      1  0.4261440000000  0.4972580000000  0.4374340000000 1.0
C      1  0.5119880000000  0.4917880000000  0.4754780000000 1.0
C      1  0.5513790000000  0.4289060000000  0.5691620000000 1.0
C      1  0.4836350000000  0.5336380000000  0.4427740000000 1.0
C      1  0.4969860000000  0.6140780000000  0.4651150000000 1.0
C      1  0.4969140000000  0.5644290000000  0.4106620000000 1.0
C      1  0.5818910000000  0.5522600000000  0.4679510000000 1.0
C      1  0.5432090000000  0.5306970000000  0.4718400000000 1.0
END
