TITL C-950536-5891-605 -5.55444593485683e-07 125000 -494.019350881917 0 0 80 (C1) n - 1
REM
REM in /home/bkarasulu/work/CARBON/AIRSS/Generating-Clusters/EDIP-Nigel-Params/with-SteepDescent/Only-C1/SD-CG/HFTN-CG
REM
REM
REM
REM
REM
REM ./C.cell (11c1c37f851c82e70ff6c80c92926a4b)
REM
REM compiler GCC version 9.2.1 20190827 (Red Hat 9.2.1-1)
REM options -cpp -mtune=generic -march=x86-64 -g -O0 -fpre-include=/usr/include/finclude/math-vector-fortran.h
REM seed -563099604 -29402105 -967103594 -36161493 1933930273 -1507862299 -772689789 1100293032 525996639 -1421892078 1327065924 1613241201 2036549668 1746368486 -81653879 -1433875319 10182185 2133016853 48621694 1678246352 1353223947 -210152094 951677493 -369758542 1289289120 681363100 1251526083 1969062160 1128035077 865144014 29473431 1895557569 -844777487
REM
CELL 1.54180   50.00000   50.00000   50.00000   90.00000   90.00000   90.00000
LATT -1
SFAC C  
C      1  0.4216130000000  0.5106830000000  0.4797040000000 1.0
C      1  0.4555530000000  0.4528920000000  0.5455100000000 1.0
C      1  0.5568640000000  0.5296270000000  0.4483840000000 1.0
C      1  0.5471590000000  0.4537460000000  0.4922610000000 1.0
C      1  0.5428520000000  0.4807300000000  0.5871250000000 1.0
C      1  0.5788690000000  0.4864930000000  0.5293390000000 1.0
C      1  0.4814080000000  0.5861840000000  0.4786960000000 1.0
C      1  0.5711910000000  0.5091570000000  0.5597040000000 1.0
C      1  0.5167080000000  0.5577230000000  0.4549880000000 1.0
C      1  0.4330210000000  0.4976270000000  0.4555340000000 1.0
C      1  0.4722370000000  0.4629600000000  0.5056110000000 1.0
C      1  0.5194970000000  0.4433950000000  0.4999610000000 1.0
C      1  0.5676350000000  0.4584640000000  0.5312820000000 1.0
C      1  0.5271440000000  0.4314380000000  0.5510710000000 1.0
C      1  0.4463750000000  0.5520630000000  0.4705870000000 1.0
C      1  0.4978950000000  0.5125610000000  0.5758730000000 1.0
C      1  0.5400040000000  0.5348750000000  0.4963420000000 1.0
C      1  0.4922220000000  0.5178500000000  0.4678840000000 1.0
C      1  0.5086390000000  0.4960560000000  0.4583940000000 1.0
C      1  0.4464960000000  0.4710700000000  0.4639880000000 1.0
C      1  0.4515610000000  0.5029100000000  0.5701310000000 1.0
C      1  0.4610220000000  0.4833140000000  0.4871180000000 1.0
C      1  0.4434250000000  0.5405280000000  0.5170290000000 1.0
C      1  0.5238170000000  0.5623660000000  0.4838400000000 1.0
C      1  0.4359510000000  0.4975810000000  0.5462020000000 1.0
C      1  0.4969140000000  0.5473120000000  0.5424420000000 1.0
C      1  0.4827140000000  0.5211860000000  0.4032090000000 1.0
C      1  0.4115010000000  0.4910630000000  0.4972830000000 1.0
C      1  0.5701820000000  0.5240170000000  0.5355270000000 1.0
C      1  0.5686570000000  0.4418080000000  0.5083120000000 1.0
C      1  0.5422300000000  0.5824450000000  0.4843110000000 1.0
C      1  0.5091930000000  0.4934390000000  0.5138760000000 1.0
C      1  0.5582790000000  0.4799590000000  0.4515900000000 1.0
C      1  0.5007460000000  0.4666740000000  0.4981730000000 1.0
C      1  0.5032440000000  0.5262120000000  0.4219090000000 1.0
C      1  0.4561170000000  0.5755430000000  0.4861070000000 1.0
C      1  0.4784830000000  0.4897830000000  0.5702180000000 1.0
C      1  0.5487710000000  0.4529680000000  0.4601320000000 1.0
C      1  0.4933450000000  0.5397910000000  0.4473130000000 1.0
C      1  0.4384730000000  0.4728210000000  0.5326380000000 1.0
C      1  0.5476160000000  0.5393710000000  0.5254840000000 1.0
C      1  0.4657300000000  0.5031660000000  0.4170320000000 1.0
C      1  0.5648570000000  0.5324780000000  0.4780720000000 1.0
C      1  0.4728280000000  0.4641610000000  0.4489570000000 1.0
C      1  0.4708050000000  0.5115120000000  0.4887110000000 1.0
C      1  0.5237150000000  0.5128100000000  0.5602610000000 1.0
C      1  0.4586660000000  0.4279010000000  0.5297360000000 1.0
C      1  0.5395520000000  0.5505350000000  0.4408710000000 1.0
C      1  0.5479180000000  0.5063190000000  0.5763590000000 1.0
C      1  0.4840590000000  0.5378060000000  0.5679910000000 1.0
C      1  0.4558640000000  0.5319860000000  0.5704610000000 1.0
C      1  0.5782960000000  0.4932200000000  0.5002660000000 1.0
C      1  0.4564250000000  0.5444090000000  0.4445410000000 1.0
C      1  0.5195810000000  0.4463680000000  0.4560480000000 1.0
C      1  0.5299960000000  0.5054430000000  0.4957020000000 1.0
C      1  0.4566970000000  0.5671650000000  0.5152550000000 1.0
C      1  0.4610460000000  0.5232220000000  0.5337310000000 1.0
C      1  0.5502080000000  0.4491340000000  0.5531460000000 1.0
C      1  0.4337150000000  0.4485980000000  0.4887980000000 1.0
C      1  0.4443530000000  0.5290360000000  0.4890490000000 1.0
C      1  0.4859540000000  0.5648790000000  0.5211840000000 1.0
C      1  0.5218270000000  0.4892010000000  0.5418730000000 1.0
C      1  0.4837070000000  0.5115920000000  0.5151900000000 1.0
C      1  0.4590910000000  0.4368610000000  0.5009800000000 1.0
C      1  0.4809870000000  0.4615750000000  0.5582670000000 1.0
C      1  0.5522200000000  0.4856010000000  0.4887800000000 1.0
C      1  0.5294520000000  0.4681430000000  0.5639780000000 1.0
C      1  0.4991330000000  0.5734360000000  0.4966010000000 1.0
C      1  0.4784860000000  0.4765500000000  0.4220770000000 1.0
C      1  0.5862740000000  0.5173840000000  0.4888740000000 1.0
C      1  0.5249710000000  0.5382140000000  0.5444800000000 1.0
C      1  0.4997110000000  0.4685200000000  0.4649740000000 1.0
C      1  0.5066760000000  0.4775460000000  0.4153040000000 1.0
C      1  0.4499930000000  0.5157100000000  0.4385900000000 1.0
C      1  0.4828260000000  0.4177840000000  0.5409240000000 1.0
C      1  0.4987630000000  0.4373030000000  0.5539100000000 1.0
C      1  0.4213460000000  0.4673210000000  0.5090010000000 1.0
C      1  0.5142500000000  0.4271730000000  0.4768950000000 1.0
C      1  0.5171850000000  0.5005770000000  0.4307100000000 1.0
C      1  0.5472170000000  0.5026770000000  0.4373370000000 1.0
END
