TITL C-950529-3362-617 -1.77912372295471e-06 125000 -426.356186720765 0 0 70 (C1) n - 1
REM
REM in /home/bkarasulu/work/CARBON/AIRSS/Generating-Clusters/EDIP-Nigel-Params/with-SteepDescent/Only-C1/SD-CG/HFTN-CG
REM
REM
REM
REM
REM
REM ./C.cell (11c1c37f851c82e70ff6c80c92926a4b)
REM
REM compiler GCC version 9.2.1 20190827 (Red Hat 9.2.1-1)
REM options -cpp -mtune=generic -march=x86-64 -g -O0 -fpre-include=/usr/include/finclude/math-vector-fortran.h
REM seed 1928577520 -2075476775 1589713475 -1479807376 -1836402847 1794334915 2041569696 1534524951 -369303746 -1542750748 -2021754440 -107845001 1353761877 -426498967 -1325627800 -698244166 -1295053669 224121565 1690006521 1334176159 1869875351 271989874 192798408 1041714286 -1698187120 -398432217 -1383533538 1168796555 1412500569 2077508838 690871755 -936573488 -781507082
REM
CELL 1.54180   50.00000   50.00000   50.00000   90.00000   90.00000   90.00000
LATT -1
SFAC C  
C      1  0.5553390000000  0.5133850000000  0.5110630000000 1.0
C      1  0.5324840000000  0.4431630000000  0.4574500000000 1.0
C      1  0.5010980000000  0.5130980000000  0.4736280000000 1.0
C      1  0.5392370000000  0.4901100000000  0.5611290000000 1.0
C      1  0.5417820000000  0.4283930000000  0.4908680000000 1.0
C      1  0.4605720000000  0.4279010000000  0.4795610000000 1.0
C      1  0.5263550000000  0.5187740000000  0.5244470000000 1.0
C      1  0.5050440000000  0.4520070000000  0.4618900000000 1.0
C      1  0.4640840000000  0.5204860000000  0.4319370000000 1.0
C      1  0.5166590000000  0.4671770000000  0.5068340000000 1.0
C      1  0.4829030000000  0.4290580000000  0.4975610000000 1.0
C      1  0.4899320000000  0.4321720000000  0.5574250000000 1.0
C      1  0.5118350000000  0.5103400000000  0.4446360000000 1.0
C      1  0.4534800000000  0.4665410000000  0.5418040000000 1.0
C      1  0.5781020000000  0.5039920000000  0.5305550000000 1.0
C      1  0.5445840000000  0.4567350000000  0.5006550000000 1.0
C      1  0.5142850000000  0.4457040000000  0.5542620000000 1.0
C      1  0.5518400000000  0.4647010000000  0.4534280000000 1.0
C      1  0.4296340000000  0.5494730000000  0.5187130000000 1.0
C      1  0.5590260000000  0.4735660000000  0.4805540000000 1.0
C      1  0.4733760000000  0.5533920000000  0.5518110000000 1.0
C      1  0.4900910000000  0.4660050000000  0.4408980000000 1.0
C      1  0.5052470000000  0.5418380000000  0.5120170000000 1.0
C      1  0.4241480000000  0.4779100000000  0.5036730000000 1.0
C      1  0.4292400000000  0.5293510000000  0.5371540000000 1.0
C      1  0.4510100000000  0.4520990000000  0.4678540000000 1.0
C      1  0.4517090000000  0.4999190000000  0.4463110000000 1.0
C      1  0.5129840000000  0.5597180000000  0.4644490000000 1.0
C      1  0.4315150000000  0.5105240000000  0.4637450000000 1.0
C      1  0.5570210000000  0.5023580000000  0.4824560000000 1.0
C      1  0.4795790000000  0.5440280000000  0.4331570000000 1.0
C      1  0.4712270000000  0.4745140000000  0.4922680000000 1.0
C      1  0.5060620000000  0.4863290000000  0.4283680000000 1.0
C      1  0.4778080000000  0.5280690000000  0.5624620000000 1.0
C      1  0.4978320000000  0.5894560000000  0.4956710000000 1.0
C      1  0.5507070000000  0.5384390000000  0.5647920000000 1.0
C      1  0.5142540000000  0.4737610000000  0.5639050000000 1.0
C      1  0.4563070000000  0.5520420000000  0.5072190000000 1.0
C      1  0.4728590000000  0.5678770000000  0.5277170000000 1.0
C      1  0.5044600000000  0.5219410000000  0.5697510000000 1.0
C      1  0.4995440000000  0.5718190000000  0.5173170000000 1.0
C      1  0.5116300000000  0.5376440000000  0.4838310000000 1.0
C      1  0.5538750000000  0.5118700000000  0.4543380000000 1.0
C      1  0.4509970000000  0.5125300000000  0.5308350000000 1.0
C      1  0.4952210000000  0.4916600000000  0.5476930000000 1.0
C      1  0.4948600000000  0.4549620000000  0.4902980000000 1.0
C      1  0.4753010000000  0.5636690000000  0.4571060000000 1.0
C      1  0.4861790000000  0.5018580000000  0.4979320000000 1.0
C      1  0.4636000000000  0.4938540000000  0.5505280000000 1.0
C      1  0.5286850000000  0.4159910000000  0.5144690000000 1.0
C      1  0.4627310000000  0.4725860000000  0.4500990000000 1.0
C      1  0.4196600000000  0.4943830000000  0.4829330000000 1.0
C      1  0.5576030000000  0.4553070000000  0.5276300000000 1.0
C      1  0.5304630000000  0.5187370000000  0.5558040000000 1.0
C      1  0.5077430000000  0.5358610000000  0.4285860000000 1.0
C      1  0.5711630000000  0.5485130000000  0.5490440000000 1.0
C      1  0.4535970000000  0.5556850000000  0.4769110000000 1.0
C      1  0.4340790000000  0.5380800000000  0.4673140000000 1.0
C      1  0.4482400000000  0.4661210000000  0.5122210000000 1.0
C      1  0.5371670000000  0.4342550000000  0.5384620000000 1.0
C      1  0.5009640000000  0.4114230000000  0.5099390000000 1.0
C      1  0.4665200000000  0.4443470000000  0.5525850000000 1.0
C      1  0.5554140000000  0.4840260000000  0.5369090000000 1.0
C      1  0.5830710000000  0.5235600000000  0.5510380000000 1.0
C      1  0.5504800000000  0.5383310000000  0.4456340000000 1.0
C      1  0.4699850000000  0.5246820000000  0.5120980000000 1.0
C      1  0.5074430000000  0.4940430000000  0.5188460000000 1.0
C      1  0.4963270000000  0.5848280000000  0.4683870000000 1.0
C      1  0.5435360000000  0.4890760000000  0.4377540000000 1.0
C      1  0.5282110000000  0.5539530000000  0.4393800000000 1.0
END
