TITL C-951342-2639-13 5.43451625815316e-07 125000 -250.776584990553 0 0 42 (C1) n - 1
REM
REM in /home/bkarasulu/work/CARBON/AIRSS/Generating-Clusters/EDIP-Nigel-Params/with-SteepDescent/Only-C1/SD-CG/HFTN-CG
REM
REM
REM
REM
REM
REM ./C.cell (11c1c37f851c82e70ff6c80c92926a4b)
REM
REM compiler GCC version 9.2.1 20190827 (Red Hat 9.2.1-1)
REM options -cpp -mtune=generic -march=x86-64 -g -O0 -fpre-include=/usr/include/finclude/math-vector-fortran.h
REM seed -656490941 -1010355443 562256007 378233811 -1659853872 -399471669 -1174248613 1191045622 1508807754 1074062649 335790018 -1897913093 1986719811 -2001997312 1472598768 -856280504 1849256513 586241536 431443892 -549602218 -1003800965 -762322096 -2049600364 1446636596 1629977432 1682522378 385132900 -1118511513 -1793153990 -1398283502 700047746 750249840 110716588
REM
CELL 1.54180   50.00000   50.00000   50.00000   90.00000   90.00000   90.00000
LATT -1
SFAC C  
C      1  0.5242820000000  0.5108850000000  0.4561920000000 1.0
C      1  0.5047480000000  0.5103520000000  0.5664750000000 1.0
C      1  0.4956730000000  0.5481590000000  0.4476030000000 1.0
C      1  0.4763450000000  0.4935330000000  0.4491550000000 1.0
C      1  0.5294010000000  0.4817140000000  0.5342880000000 1.0
C      1  0.5354890000000  0.5511110000000  0.4929320000000 1.0
C      1  0.4921270000000  0.4654990000000  0.5629260000000 1.0
C      1  0.4811300000000  0.5453310000000  0.5432010000000 1.0
C      1  0.4861540000000  0.5073220000000  0.4265590000000 1.0
C      1  0.5448490000000  0.5257850000000  0.4736170000000 1.0
C      1  0.4945020000000  0.4704450000000  0.4550980000000 1.0
C      1  0.4649150000000  0.4533990000000  0.5269730000000 1.0
C      1  0.5222500000000  0.4819630000000  0.4578970000000 1.0
C      1  0.4498890000000  0.5334270000000  0.5088710000000 1.0
C      1  0.4944060000000  0.4934240000000  0.4999210000000 1.0
C      1  0.5122060000000  0.5668470000000  0.4938680000000 1.0
C      1  0.5064300000000  0.5240460000000  0.4369130000000 1.0
C      1  0.5484410000000  0.5034680000000  0.5328280000000 1.0
C      1  0.4382010000000  0.4871730000000  0.5017780000000 1.0
C      1  0.5367670000000  0.4764620000000  0.4827980000000 1.0
C      1  0.4455810000000  0.5126770000000  0.4858530000000 1.0
C      1  0.5673750000000  0.5081540000000  0.4850490000000 1.0
C      1  0.4591300000000  0.4669070000000  0.5016760000000 1.0
C      1  0.4790710000000  0.5402340000000  0.5157740000000 1.0
C      1  0.4680760000000  0.4717030000000  0.5495310000000 1.0
C      1  0.5055310000000  0.4441710000000  0.5050240000000 1.0
C      1  0.4926800000000  0.4407900000000  0.4791380000000 1.0
C      1  0.5005860000000  0.5200350000000  0.5084610000000 1.0
C      1  0.4886510000000  0.5653840000000  0.5081460000000 1.0
C      1  0.5294530000000  0.5264940000000  0.5091360000000 1.0
C      1  0.4411210000000  0.5082090000000  0.5252090000000 1.0
C      1  0.4808910000000  0.5381950000000  0.4687540000000 1.0
C      1  0.4800690000000  0.5204010000000  0.5571120000000 1.0
C      1  0.5163750000000  0.4730820000000  0.5067130000000 1.0
C      1  0.5128690000000  0.4841700000000  0.5591250000000 1.0
C      1  0.4738890000000  0.5102590000000  0.4746280000000 1.0
C      1  0.4872070000000  0.4360890000000  0.5251860000000 1.0
C      1  0.5738650000000  0.4830930000000  0.4724720000000 1.0
C      1  0.5606280000000  0.4598370000000  0.4799780000000 1.0
C      1  0.4675230000000  0.4537830000000  0.4773760000000 1.0
C      1  0.4640230000000  0.5001520000000  0.5429180000000 1.0
C      1  0.5671990000000  0.5058350000000  0.5128480000000 1.0
END
