TITL C-951339-9237-302 -6.70536309375438e-06 125000 -645.419170754339 0 0 105 (C1) n - 1
REM
REM in /home/bkarasulu/work/CARBON/AIRSS/Generating-Clusters/EDIP-Nigel-Params/with-SteepDescent/Only-C1/SD-CG/HFTN-CG
REM
REM
REM
REM
REM
REM ./C.cell (11c1c37f851c82e70ff6c80c92926a4b)
REM
REM compiler GCC version 9.2.1 20190827 (Red Hat 9.2.1-1)
REM options -cpp -mtune=generic -march=x86-64 -g -O0 -fpre-include=/usr/include/finclude/math-vector-fortran.h
REM seed 957409129 -1401885026 344970954 -285127327 721025403 -1488029222 -1231584812 -1624331061 1683023818 258558723 -1708817786 535632476 63835211 -1100781890 -1392131467 1356402628 -1905414850 -1560446619 603925070 -912818073 866836591 1267934308 241817931 -595196540 728366532 177298032 -1698867637 -158828681 -1425773255 -1323685465 1566212510 1398666454 -1252621884
REM
CELL 1.54180   50.00000   50.00000   50.00000   90.00000   90.00000   90.00000
LATT -1
SFAC C  
C      1  0.5417430000000  0.5470540000000  0.5609850000000 1.0
C      1  0.5383090000000  0.4882600000000  0.4700260000000 1.0
C      1  0.5415620000000  0.4277860000000  0.4637060000000 1.0
C      1  0.4930420000000  0.5637750000000  0.5439210000000 1.0
C      1  0.4996490000000  0.5388640000000  0.4367630000000 1.0
C      1  0.4847970000000  0.5352180000000  0.4108080000000 1.0
C      1  0.5811690000000  0.4735030000000  0.5331550000000 1.0
C      1  0.4518790000000  0.4418430000000  0.4592740000000 1.0
C      1  0.4577130000000  0.4306920000000  0.5122190000000 1.0
C      1  0.4151380000000  0.5154520000000  0.5528180000000 1.0
C      1  0.5283040000000  0.5606250000000  0.4655220000000 1.0
C      1  0.4515280000000  0.5468300000000  0.5379570000000 1.0
C      1  0.5388920000000  0.4977330000000  0.5704500000000 1.0
C      1  0.5612810000000  0.4402230000000  0.5056030000000 1.0
C      1  0.4889960000000  0.4711470000000  0.5259950000000 1.0
C      1  0.4979720000000  0.4346120000000  0.4605770000000 1.0
C      1  0.5221210000000  0.4375640000000  0.4410100000000 1.0
C      1  0.4445280000000  0.4379680000000  0.5387540000000 1.0
C      1  0.4724070000000  0.4240190000000  0.4521610000000 1.0
C      1  0.5686860000000  0.4926700000000  0.5150300000000 1.0
C      1  0.5492730000000  0.5271540000000  0.4359430000000 1.0
C      1  0.5628350000000  0.5184270000000  0.5301150000000 1.0
C      1  0.5170600000000  0.4650790000000  0.4034420000000 1.0
C      1  0.4695570000000  0.5548500000000  0.4773160000000 1.0
C      1  0.5324280000000  0.5310240000000  0.5268780000000 1.0
C      1  0.4719690000000  0.4768950000000  0.4758610000000 1.0
C      1  0.4410390000000  0.5216930000000  0.4356980000000 1.0
C      1  0.4118990000000  0.5225490000000  0.5253950000000 1.0
C      1  0.5049940000000  0.5184700000000  0.5376370000000 1.0
C      1  0.5214290000000  0.4929930000000  0.5470000000000 1.0
C      1  0.5627860000000  0.5805350000000  0.5286090000000 1.0
C      1  0.4900010000000  0.4240890000000  0.5491460000000 1.0
C      1  0.5298570000000  0.5468510000000  0.4381460000000 1.0
C      1  0.4681690000000  0.4770950000000  0.5058720000000 1.0
C      1  0.5178480000000  0.4719200000000  0.4894270000000 1.0
C      1  0.4585360000000  0.5322330000000  0.5621960000000 1.0
C      1  0.4078200000000  0.4705840000000  0.4713180000000 1.0
C      1  0.5295390000000  0.5211010000000  0.4963300000000 1.0
C      1  0.5053520000000  0.5804160000000  0.4636180000000 1.0
C      1  0.4446110000000  0.4441660000000  0.4882320000000 1.0
C      1  0.4177890000000  0.4557240000000  0.4930710000000 1.0
C      1  0.5549910000000  0.4410870000000  0.5562260000000 1.0
C      1  0.4837250000000  0.5053470000000  0.4748350000000 1.0
C      1  0.5772560000000  0.4942770000000  0.4872170000000 1.0
C      1  0.5653710000000  0.5056560000000  0.4346700000000 1.0
C      1  0.5221690000000  0.5136960000000  0.5899470000000 1.0
C      1  0.5706600000000  0.4784660000000  0.4381710000000 1.0
C      1  0.5061780000000  0.4999940000000  0.4971930000000 1.0
C      1  0.4672570000000  0.4408460000000  0.5583240000000 1.0
C      1  0.4301470000000  0.4649700000000  0.5409700000000 1.0
C      1  0.5171300000000  0.5723630000000  0.5318720000000 1.0
C      1  0.5680740000000  0.5427610000000  0.4922250000000 1.0
C      1  0.4953800000000  0.4753800000000  0.5781240000000 1.0
C      1  0.4724370000000  0.4716350000000  0.4205680000000 1.0
C      1  0.5167240000000  0.4340090000000  0.5583730000000 1.0
C      1  0.4252540000000  0.5012460000000  0.5068570000000 1.0
C      1  0.4212950000000  0.4955320000000  0.4740000000000 1.0
C      1  0.5629040000000  0.5178710000000  0.4767190000000 1.0
C      1  0.4780040000000  0.4999400000000  0.4258260000000 1.0
C      1  0.4612430000000  0.5787720000000  0.5023010000000 1.0
C      1  0.5242440000000  0.4916140000000  0.4442080000000 1.0
C      1  0.5706430000000  0.4461860000000  0.5312220000000 1.0
C      1  0.4255010000000  0.5394250000000  0.4787770000000 1.0
C      1  0.4903850000000  0.4591720000000  0.4030270000000 1.0
C      1  0.4520910000000  0.4682210000000  0.4428280000000 1.0
C      1  0.4847370000000  0.5617670000000  0.4519790000000 1.0
C      1  0.4977330000000  0.5082220000000  0.4471670000000 1.0
C      1  0.5484280000000  0.5874250000000  0.5042190000000 1.0
C      1  0.4963090000000  0.4612660000000  0.4726210000000 1.0
C      1  0.4977710000000  0.4997820000000  0.5920160000000 1.0
C      1  0.5182950000000  0.5913490000000  0.5105710000000 1.0
C      1  0.5797860000000  0.5396320000000  0.5182790000000 1.0
C      1  0.4284190000000  0.5610220000000  0.4978890000000 1.0
C      1  0.5585250000000  0.4646830000000  0.5754230000000 1.0
C      1  0.5152710000000  0.4152660000000  0.4785040000000 1.0
C      1  0.4404020000000  0.5090710000000  0.5645190000000 1.0
C      1  0.4941910000000  0.5380670000000  0.5595530000000 1.0
C      1  0.5121360000000  0.4195490000000  0.5066910000000 1.0
C      1  0.5281510000000  0.4645870000000  0.4287490000000 1.0
C      1  0.5723680000000  0.4703220000000  0.4680250000000 1.0
C      1  0.5662260000000  0.5106360000000  0.5597900000000 1.0
C      1  0.5197470000000  0.4589610000000  0.5748610000000 1.0
C      1  0.4543520000000  0.5298640000000  0.4767780000000 1.0
C      1  0.5544720000000  0.4486330000000  0.4799590000000 1.0
C      1  0.5129940000000  0.4565250000000  0.5159400000000 1.0
C      1  0.4151230000000  0.4735990000000  0.5166420000000 1.0
C      1  0.4681100000000  0.5678760000000  0.5300010000000 1.0
C      1  0.5187650000000  0.5398320000000  0.5773060000000 1.0
C      1  0.5786550000000  0.4831010000000  0.5613610000000 1.0
C      1  0.5544230000000  0.4634000000000  0.4202000000000 1.0
C      1  0.4549510000000  0.5001320000000  0.5179430000000 1.0
C      1  0.5532110000000  0.5669430000000  0.4828660000000 1.0
C      1  0.5144230000000  0.5409190000000  0.4822230000000 1.0
C      1  0.4862600000000  0.4217300000000  0.5199280000000 1.0
C      1  0.5316860000000  0.4658590000000  0.5370170000000 1.0
C      1  0.4420220000000  0.4960790000000  0.4520560000000 1.0
C      1  0.4287600000000  0.5431030000000  0.4502800000000 1.0
C      1  0.4567250000000  0.5291150000000  0.4120140000000 1.0
C      1  0.4767390000000  0.4695820000000  0.5544790000000 1.0
C      1  0.4904570000000  0.5481390000000  0.4973220000000 1.0
C      1  0.5417620000000  0.5700920000000  0.5446020000000 1.0
C      1  0.4962370000000  0.5876740000000  0.4908470000000 1.0
C      1  0.4809050000000  0.5225360000000  0.5153690000000 1.0
C      1  0.4259580000000  0.5486080000000  0.5244430000000 1.0
C      1  0.4509460000000  0.4868920000000  0.5471100000000 1.0
END
