TITL C-951340-9809-601 3.64040250825292e-07 125000 -368.771748413195 0 0 60 (C1) n - 1
REM
REM in /home/bkarasulu/work/CARBON/AIRSS/Generating-Clusters/EDIP-Nigel-Params/with-SteepDescent/Only-C1/SD-CG/HFTN-CG
REM
REM
REM
REM
REM
REM ./C.cell (11c1c37f851c82e70ff6c80c92926a4b)
REM
REM compiler GCC version 9.2.1 20190827 (Red Hat 9.2.1-1)
REM options -cpp -mtune=generic -march=x86-64 -g -O0 -fpre-include=/usr/include/finclude/math-vector-fortran.h
REM seed 228026974 -880723755 -837319145 420672033 -446809945 1251399927 -2041688525 2097779535 -185324361 1146802729 654915717 -960747145 -358978967 -1326414046 1081302004 1437823919 -1287653422 1105161755 -2024908956 -525056893 1695144512 -1933386427 -300123479 -1696874583 -189212130 -321717347 1181032959 -1374598478 1707040989 -1843813224 1333657240 -1982110343 -1888223141
REM
CELL 1.54180   50.00000   50.00000   50.00000   90.00000   90.00000   90.00000
LATT -1
SFAC C  
C      1  0.5452560000000  0.4517040000000  0.4692130000000 1.0
C      1  0.4845600000000  0.4152760000000  0.5335840000000 1.0
C      1  0.4691900000000  0.5595410000000  0.5032810000000 1.0
C      1  0.5044210000000  0.4507040000000  0.4315480000000 1.0
C      1  0.5376240000000  0.5308450000000  0.5224060000000 1.0
C      1  0.5099270000000  0.5039020000000  0.5588510000000 1.0
C      1  0.5151420000000  0.5243320000000  0.4247780000000 1.0
C      1  0.5054250000000  0.4895430000000  0.5057230000000 1.0
C      1  0.4529020000000  0.5288680000000  0.4438610000000 1.0
C      1  0.5507070000000  0.5487380000000  0.4496790000000 1.0
C      1  0.4941680000000  0.4544880000000  0.5032110000000 1.0
C      1  0.5232890000000  0.5035720000000  0.5287620000000 1.0
C      1  0.4615450000000  0.5134950000000  0.5442820000000 1.0
C      1  0.4754020000000  0.5091610000000  0.4513810000000 1.0
C      1  0.5300070000000  0.5297360000000  0.4475070000000 1.0
C      1  0.5121290000000  0.4552600000000  0.5624910000000 1.0
C      1  0.5325520000000  0.5438060000000  0.4934600000000 1.0
C      1  0.4884680000000  0.5249830000000  0.4748650000000 1.0
C      1  0.5288840000000  0.4797430000000  0.5657800000000 1.0
C      1  0.4239410000000  0.5233470000000  0.5147480000000 1.0
C      1  0.5044890000000  0.4300370000000  0.5195950000000 1.0
C      1  0.4784890000000  0.5541860000000  0.4750490000000 1.0
C      1  0.5655710000000  0.5269290000000  0.5268490000000 1.0
C      1  0.4997670000000  0.5016850000000  0.4311970000000 1.0
C      1  0.4637290000000  0.4340770000000  0.5365950000000 1.0
C      1  0.5250680000000  0.4974170000000  0.4842430000000 1.0
C      1  0.4315170000000  0.5299640000000  0.4648060000000 1.0
C      1  0.5545980000000  0.4913100000000  0.4863580000000 1.0
C      1  0.4549570000000  0.4952070000000  0.4914390000000 1.0
C      1  0.4810150000000  0.5096020000000  0.5003640000000 1.0
C      1  0.4983100000000  0.5471340000000  0.5343040000000 1.0
C      1  0.5751860000000  0.5237730000000  0.4809350000000 1.0
C      1  0.5545940000000  0.4620270000000  0.4954980000000 1.0
C      1  0.5117180000000  0.4403670000000  0.4572760000000 1.0
C      1  0.4335120000000  0.5069270000000  0.5359330000000 1.0
C      1  0.5401410000000  0.4607350000000  0.5219010000000 1.0
C      1  0.5204740000000  0.5466260000000  0.5525030000000 1.0
C      1  0.5170320000000  0.4763010000000  0.4325300000000 1.0
C      1  0.4700830000000  0.4601150000000  0.4620410000000 1.0
C      1  0.4288000000000  0.4794560000000  0.5310850000000 1.0
C      1  0.5442420000000  0.4834120000000  0.5393440000000 1.0
C      1  0.5186670000000  0.5238960000000  0.4742690000000 1.0
C      1  0.5394340000000  0.4730040000000  0.4506380000000 1.0
C      1  0.4671070000000  0.4540850000000  0.5155950000000 1.0
C      1  0.5582260000000  0.5465610000000  0.4770280000000 1.0
C      1  0.4809680000000  0.4950620000000  0.5589180000000 1.0
C      1  0.4468110000000  0.4734400000000  0.5102320000000 1.0
C      1  0.5249410000000  0.4407440000000  0.5374880000000 1.0
C      1  0.4618210000000  0.4463080000000  0.5621110000000 1.0
C      1  0.4338570000000  0.5155650000000  0.4896980000000 1.0
C      1  0.5158950000000  0.5692510000000  0.4937490000000 1.0
C      1  0.5009470000000  0.5723160000000  0.4698210000000 1.0
C      1  0.4744560000000  0.5307100000000  0.5227310000000 1.0
C      1  0.4832330000000  0.4652590000000  0.5611330000000 1.0
C      1  0.4578180000000  0.5560280000000  0.4540970000000 1.0
C      1  0.4610770000000  0.4859350000000  0.4640430000000 1.0
C      1  0.4900480000000  0.4462270000000  0.4750110000000 1.0
C      1  0.5732060000000  0.5099660000000  0.5059090000000 1.0
C      1  0.5171610000000  0.5282850000000  0.5729690000000 1.0
C      1  0.4954970000000  0.5690240000000  0.5153020000000 1.0
END
