TITL C-951336-9012-86 -3.75480003141992e-07 125000 -294.363749657847 0 0 49 (C1) n - 1
REM
REM in /home/bkarasulu/work/CARBON/AIRSS/Generating-Clusters/EDIP-Nigel-Params/with-SteepDescent/Only-C1/SD-CG/HFTN-CG
REM
REM
REM
REM
REM
REM ./C.cell (11c1c37f851c82e70ff6c80c92926a4b)
REM
REM compiler GCC version 9.2.1 20190827 (Red Hat 9.2.1-1)
REM options -cpp -mtune=generic -march=x86-64 -g -O0 -fpre-include=/usr/include/finclude/math-vector-fortran.h
REM seed 1821077853 -2119167733 804324432 2099957934 499693478 -238343119 462409825 1087387989 48358542 -875843614 -1114817788 -421413800 680950483 540674157 784631776 -1539497045 6436669 1458637159 1739309831 -1691310322 -1731573595 -1151532620 1885478754 1658093248 -1731255868 -1945784942 -644470224 340820013 1704335281 119141350 2094047019 1593063490 1105233666
REM
CELL 1.54180   50.00000   50.00000   50.00000   90.00000   90.00000   90.00000
LATT -1
SFAC C  
C      1  0.5136120000000  0.5341540000000  0.5343030000000 1.0
C      1  0.4671360000000  0.4931600000000  0.4795240000000 1.0
C      1  0.4812620000000  0.4277740000000  0.4867230000000 1.0
C      1  0.5280160000000  0.5491930000000  0.4944100000000 1.0
C      1  0.4470860000000  0.4955910000000  0.5305490000000 1.0
C      1  0.4818750000000  0.5670020000000  0.4834670000000 1.0
C      1  0.5614100000000  0.4718990000000  0.4860250000000 1.0
C      1  0.5226400000000  0.4439220000000  0.4865960000000 1.0
C      1  0.5513050000000  0.4687830000000  0.5122480000000 1.0
C      1  0.4726170000000  0.4495550000000  0.5034690000000 1.0
C      1  0.5146230000000  0.5113160000000  0.5137460000000 1.0
C      1  0.5145460000000  0.4581020000000  0.4303580000000 1.0
C      1  0.4602750000000  0.4522290000000  0.5491520000000 1.0
C      1  0.4438570000000  0.5097390000000  0.5044860000000 1.0
C      1  0.5115790000000  0.5244160000000  0.4877480000000 1.0
C      1  0.5271010000000  0.4833690000000  0.5515020000000 1.0
C      1  0.4421210000000  0.4654790000000  0.5314030000000 1.0
C      1  0.5087350000000  0.4625340000000  0.5337700000000 1.0
C      1  0.5367550000000  0.4983620000000  0.4460330000000 1.0
C      1  0.5151170000000  0.5603490000000  0.5197380000000 1.0
C      1  0.5143130000000  0.5056380000000  0.5680470000000 1.0
C      1  0.4843720000000  0.4758180000000  0.4944920000000 1.0
C      1  0.4899730000000  0.4655700000000  0.4228890000000 1.0
C      1  0.4820250000000  0.4456260000000  0.5322850000000 1.0
C      1  0.5064980000000  0.4222950000000  0.4790090000000 1.0
C      1  0.5432740000000  0.4567850000000  0.4702260000000 1.0
C      1  0.4757780000000  0.4994280000000  0.5382620000000 1.0
C      1  0.5576580000000  0.5166000000000  0.5218520000000 1.0
C      1  0.4432080000000  0.4530960000000  0.5053120000000 1.0
C      1  0.4712700000000  0.5306870000000  0.5742150000000 1.0
C      1  0.4664170000000  0.5506090000000  0.5256490000000 1.0
C      1  0.4505930000000  0.5384460000000  0.5038780000000 1.0
C      1  0.4790210000000  0.5033960000000  0.4551490000000 1.0
C      1  0.5288020000000  0.4504130000000  0.5144040000000 1.0
C      1  0.5344150000000  0.5171720000000  0.4259320000000 1.0
C      1  0.5495380000000  0.4907890000000  0.5316580000000 1.0
C      1  0.5244070000000  0.5424590000000  0.4255280000000 1.0
C      1  0.5255160000000  0.5310640000000  0.5603000000000 1.0
C      1  0.5051060000000  0.5435540000000  0.4457340000000 1.0
C      1  0.5060700000000  0.5169840000000  0.4589780000000 1.0
C      1  0.4766360000000  0.4861990000000  0.4333870000000 1.0
C      1  0.4867530000000  0.5689100000000  0.5131400000000 1.0
C      1  0.5351020000000  0.4696660000000  0.4451510000000 1.0
C      1  0.5532880000000  0.5371300000000  0.5039380000000 1.0
C      1  0.4588080000000  0.5504370000000  0.4795230000000 1.0
C      1  0.4635680000000  0.5468660000000  0.5536740000000 1.0
C      1  0.4963190000000  0.4876970000000  0.5192970000000 1.0
C      1  0.5059550000000  0.5632580000000  0.4667720000000 1.0
C      1  0.4836510000000  0.5064790000000  0.5660670000000 1.0
END
