TITL C-951344-124-704 -7.21203437806455e-07 125000 -977.320408627494 0 0 156 (C1) n - 1
REM
REM in /home/bkarasulu/work/CARBON/AIRSS/Generating-Clusters/EDIP-Nigel-Params/with-SteepDescent/Only-C1/SD-CG/HFTN-CG
REM
REM
REM
REM
REM
REM ./C.cell (11c1c37f851c82e70ff6c80c92926a4b)
REM
REM compiler GCC version 9.2.1 20190827 (Red Hat 9.2.1-1)
REM options -cpp -mtune=generic -march=x86-64 -g -O0 -fpre-include=/usr/include/finclude/math-vector-fortran.h
REM seed 1508509865 -1499561824 971223527 -930341680 48099116 -1858031809 -1275110380 1154787773 966348902 1098158113 380749685 2029086226 30958469 -1994925534 -280471780 -1689338328 429747326 1544907426 1204567564 -1865667983 399508888 -474886320 -18650586 -103046637 -1458801467 788596755 -1680915669 1934321686 1025756523 1206007634 887392993 -1504159430 -1911976088
REM
CELL 1.54180   50.00000   50.00000   50.00000   90.00000   90.00000   90.00000
LATT -1
SFAC C  
C      1  0.3968540000000  0.5028990000000  0.5145550000000 1.0
C      1  0.4201840000000  0.5477980000000  0.4997730000000 1.0
C      1  0.5203220000000  0.5189020000000  0.5992970000000 1.0
C      1  0.4988360000000  0.4433870000000  0.4654670000000 1.0
C      1  0.4701120000000  0.4064870000000  0.5437800000000 1.0
C      1  0.5436600000000  0.5769170000000  0.5097240000000 1.0
C      1  0.4910320000000  0.5808530000000  0.5714140000000 1.0
C      1  0.5648060000000  0.4515970000000  0.4860380000000 1.0
C      1  0.4136940000000  0.5702270000000  0.4533700000000 1.0
C      1  0.4673290000000  0.5856980000000  0.4387260000000 1.0
C      1  0.5370570000000  0.4063450000000  0.5408480000000 1.0
C      1  0.5196400000000  0.6015970000000  0.4490390000000 1.0
C      1  0.5575070000000  0.5059860000000  0.5642520000000 1.0
C      1  0.5249220000000  0.5693970000000  0.5322740000000 1.0
C      1  0.4477350000000  0.5913960000000  0.5098000000000 1.0
C      1  0.4845760000000  0.5643860000000  0.5009270000000 1.0
C      1  0.5757560000000  0.4401880000000  0.5509060000000 1.0
C      1  0.5629780000000  0.5466760000000  0.4264250000000 1.0
C      1  0.5877270000000  0.5673890000000  0.4613860000000 1.0
C      1  0.5334200000000  0.4363530000000  0.5780450000000 1.0
C      1  0.5235990000000  0.4539010000000  0.5994410000000 1.0
C      1  0.5678270000000  0.4317860000000  0.4426050000000 1.0
C      1  0.5977570000000  0.5220780000000  0.4559020000000 1.0
C      1  0.4767160000000  0.4817740000000  0.4835510000000 1.0
C      1  0.4836670000000  0.4637480000000  0.5289160000000 1.0
C      1  0.5726410000000  0.5717850000000  0.5084390000000 1.0
C      1  0.4466000000000  0.5388300000000  0.4929350000000 1.0
C      1  0.4184890000000  0.4779950000000  0.5535770000000 1.0
C      1  0.5163820000000  0.4684390000000  0.4068910000000 1.0
C      1  0.5777820000000  0.4991730000000  0.4596230000000 1.0
C      1  0.4718320000000  0.4133890000000  0.4406470000000 1.0
C      1  0.5649030000000  0.4035140000000  0.4811450000000 1.0
C      1  0.4159770000000  0.4618850000000  0.5041230000000 1.0
C      1  0.4320350000000  0.4328910000000  0.5379810000000 1.0
C      1  0.5747520000000  0.4806270000000  0.4360100000000 1.0
C      1  0.5867820000000  0.4839730000000  0.4855020000000 1.0
C      1  0.5287580000000  0.4905470000000  0.4704970000000 1.0
C      1  0.5313690000000  0.4280420000000  0.4318240000000 1.0
C      1  0.5395990000000  0.5008310000000  0.5874080000000 1.0
C      1  0.4180590000000  0.5256510000000  0.4575540000000 1.0
C      1  0.5373430000000  0.4889400000000  0.5198920000000 1.0
C      1  0.4730450000000  0.5155140000000  0.5201860000000 1.0
C      1  0.5928600000000  0.5103860000000  0.5302760000000 1.0
C      1  0.5152940000000  0.5682740000000  0.5785740000000 1.0
C      1  0.4994750000000  0.6066480000000  0.4688240000000 1.0
C      1  0.5373790000000  0.4615460000000  0.5328500000000 1.0
C      1  0.4376550000000  0.5110850000000  0.4146480000000 1.0
C      1  0.4870900000000  0.4834100000000  0.6128020000000 1.0
C      1  0.4612990000000  0.4788290000000  0.5423340000000 1.0
C      1  0.3969170000000  0.5001600000000  0.4865470000000 1.0
C      1  0.5069080000000  0.5512570000000  0.4848310000000 1.0
C      1  0.4042310000000  0.4662350000000  0.4560260000000 1.0
C      1  0.4742230000000  0.4585830000000  0.5019760000000 1.0
C      1  0.4286610000000  0.4363830000000  0.5096980000000 1.0
C      1  0.4721130000000  0.5969820000000  0.4638590000000 1.0
C      1  0.4466870000000  0.5220970000000  0.4676650000000 1.0
C      1  0.4974030000000  0.4749120000000  0.4607670000000 1.0
C      1  0.5416260000000  0.5535170000000  0.4491470000000 1.0
C      1  0.4779920000000  0.3945320000000  0.5170820000000 1.0
C      1  0.4623020000000  0.4926920000000  0.6030350000000 1.0
C      1  0.4662520000000  0.5444200000000  0.5150760000000 1.0
C      1  0.4621460000000  0.5794830000000  0.4855240000000 1.0
C      1  0.4706060000000  0.5962010000000  0.5309410000000 1.0
C      1  0.5364980000000  0.5762800000000  0.5585400000000 1.0
C      1  0.5199350000000  0.5014350000000  0.4985110000000 1.0
C      1  0.4890650000000  0.5130430000000  0.4013030000000 1.0
C      1  0.5524010000000  0.5313350000000  0.5484280000000 1.0
C      1  0.4965790000000  0.5861020000000  0.5182630000000 1.0
C      1  0.4967020000000  0.4856430000000  0.3957080000000 1.0
C      1  0.4040560000000  0.4772320000000  0.5266980000000 1.0
C      1  0.5333830000000  0.5717540000000  0.4044720000000 1.0
C      1  0.5072390000000  0.3948430000000  0.4619560000000 1.0
C      1  0.4881910000000  0.4351960000000  0.4917680000000 1.0
C      1  0.5072730000000  0.6056980000000  0.4973720000000 1.0
C      1  0.5628740000000  0.4214970000000  0.5308650000000 1.0
C      1  0.5437970000000  0.4639170000000  0.4684240000000 1.0
C      1  0.4239140000000  0.4865440000000  0.4157330000000 1.0
C      1  0.5388600000000  0.5828850000000  0.4581020000000 1.0
C      1  0.4791800000000  0.3985980000000  0.4636880000000 1.0
C      1  0.6043290000000  0.5050780000000  0.5012460000000 1.0
C      1  0.5676810000000  0.4664220000000  0.5899340000000 1.0
C      1  0.4425690000000  0.4088630000000  0.5468060000000 1.0
C      1  0.5055460000000  0.5265930000000  0.5535130000000 1.0
C      1  0.5430440000000  0.4746160000000  0.4021790000000 1.0
C      1  0.6031960000000  0.5297650000000  0.4845780000000 1.0
C      1  0.5359520000000  0.5247960000000  0.3904660000000 1.0
C      1  0.5160050000000  0.5437450000000  0.4383920000000 1.0
C      1  0.5743500000000  0.5327780000000  0.5289160000000 1.0
C      1  0.5256070000000  0.5310800000000  0.5009390000000 1.0
C      1  0.5511740000000  0.5103460000000  0.4646550000000 1.0
C      1  0.5818800000000  0.5609340000000  0.5351610000000 1.0
C      1  0.5431490000000  0.3949180000000  0.4946230000000 1.0
C      1  0.4188950000000  0.5307300000000  0.4279000000000 1.0
C      1  0.4207450000000  0.4914210000000  0.5809820000000 1.0
C      1  0.4680920000000  0.5807700000000  0.5551740000000 1.0
C      1  0.5870000000000  0.4654000000000  0.5394860000000 1.0
C      1  0.5890810000000  0.5469510000000  0.4415950000000 1.0
C      1  0.5613600000000  0.4924170000000  0.4133100000000 1.0
C      1  0.4261430000000  0.5598730000000  0.5434820000000 1.0
C      1  0.4677270000000  0.5346490000000  0.4465370000000 1.0
C      1  0.5167570000000  0.4213050000000  0.4565970000000 1.0
C      1  0.5559100000000  0.5210810000000  0.4100600000000 1.0
C      1  0.4770980000000  0.4412570000000  0.5836870000000 1.0
C      1  0.5546690000000  0.4530540000000  0.5669380000000 1.0
C      1  0.4194210000000  0.4647610000000  0.4325440000000 1.0
C      1  0.5029650000000  0.3819410000000  0.5166930000000 1.0
C      1  0.5232760000000  0.4020560000000  0.5144000000000 1.0
C      1  0.4312290000000  0.5188970000000  0.5850610000000 1.0
C      1  0.5106000000000  0.4467440000000  0.5337300000000 1.0
C      1  0.4745190000000  0.5400510000000  0.5893230000000 1.0
C      1  0.4810950000000  0.4360470000000  0.4255110000000 1.0
C      1  0.4484700000000  0.4501340000000  0.5815760000000 1.0
C      1  0.4425600000000  0.4191510000000  0.4921410000000 1.0
C      1  0.4406530000000  0.4748690000000  0.5963400000000 1.0
C      1  0.5541150000000  0.4580710000000  0.4408870000000 1.0
C      1  0.4797810000000  0.5127770000000  0.5494120000000 1.0
C      1  0.4130970000000  0.5350790000000  0.5466340000000 1.0
C      1  0.5743100000000  0.4274300000000  0.4704910000000 1.0
C      1  0.4953370000000  0.4595670000000  0.5985360000000 1.0
C      1  0.4653340000000  0.4603960000000  0.4273650000000 1.0
C      1  0.4439660000000  0.4616830000000  0.4466580000000 1.0
C      1  0.5054730000000  0.5382750000000  0.5811840000000 1.0
C      1  0.4069980000000  0.5495540000000  0.4717640000000 1.0
C      1  0.5110490000000  0.5559010000000  0.4119280000000 1.0
C      1  0.4567730000000  0.5601310000000  0.4334180000000 1.0
C      1  0.5052620000000  0.5042290000000  0.6178600000000 1.0
C      1  0.4542070000000  0.5206410000000  0.6048070000000 1.0
C      1  0.5442800000000  0.4763860000000  0.6029150000000 1.0
C      1  0.5603800000000  0.5693410000000  0.4082010000000 1.0
C      1  0.4396230000000  0.4573660000000  0.5537980000000 1.0
C      1  0.5162350000000  0.4253270000000  0.5563370000000 1.0
C      1  0.5830360000000  0.4916880000000  0.5537390000000 1.0
C      1  0.5500840000000  0.5378380000000  0.4753230000000 1.0
C      1  0.4702620000000  0.4103120000000  0.4908810000000 1.0
C      1  0.5108940000000  0.4294380000000  0.5095740000000 1.0
C      1  0.4672610000000  0.5127340000000  0.4243650000000 1.0
C      1  0.4955980000000  0.5410620000000  0.4579380000000 1.0
C      1  0.4158420000000  0.4790570000000  0.4794600000000 1.0
C      1  0.4481930000000  0.4904510000000  0.4720640000000 1.0
C      1  0.4194720000000  0.5202400000000  0.5224020000000 1.0
C      1  0.4551470000000  0.5555850000000  0.5445260000000 1.0
C      1  0.4275740000000  0.5595550000000  0.4305500000000 1.0
C      1  0.5254700000000  0.5381040000000  0.5333120000000 1.0
C      1  0.4463350000000  0.5014860000000  0.5228910000000 1.0
C      1  0.4834640000000  0.4826030000000  0.4322520000000 1.0
C      1  0.5095980000000  0.4420340000000  0.4169670000000 1.0
C      1  0.5525290000000  0.4435040000000  0.5132020000000 1.0
C      1  0.5268490000000  0.5763170000000  0.4849290000000 1.0
C      1  0.4876260000000  0.4196420000000  0.5647770000000 1.0
C      1  0.5640520000000  0.5663300000000  0.5594950000000 1.0
C      1  0.4901270000000  0.5018850000000  0.5000000000000 1.0
C      1  0.5090740000000  0.5335830000000  0.3930780000000 1.0
C      1  0.4233200000000  0.5732420000000  0.5172720000000 1.0
C      1  0.4598240000000  0.5316670000000  0.5632300000000 1.0
C      1  0.5679010000000  0.4849230000000  0.5136090000000 1.0
C      1  0.5783760000000  0.5516430000000  0.4844870000000 1.0
END
