TITL C-950535-5962-598 -5.33248579186908e-06 125000 -758.005904572608 0 0 122 (C1) n - 1
REM
REM in /home/bkarasulu/work/CARBON/AIRSS/Generating-Clusters/EDIP-Nigel-Params/with-SteepDescent/Only-C1/SD-CG/HFTN-CG
REM
REM
REM
REM
REM
REM ./C.cell (11c1c37f851c82e70ff6c80c92926a4b)
REM
REM compiler GCC version 9.2.1 20190827 (Red Hat 9.2.1-1)
REM options -cpp -mtune=generic -march=x86-64 -g -O0 -fpre-include=/usr/include/finclude/math-vector-fortran.h
REM seed 1557027923 -765420923 379130611 -1951384187 1869351355 1123640876 -1761963175 -1543765911 886981956 -1088978193 1631788155 1496023801 1814755482 -152295664 1695387242 1625484537 -309705881 1000480592 -1334470863 -1185151118 -1681572058 -1223444855 -112596885 453473168 1201658969 1203721536 1653614101 1124062814 1383579432 -1480803677 525710105 735155531 2102775270
REM
CELL 1.54180   50.00000   50.00000   50.00000   90.00000   90.00000   90.00000
LATT -1
SFAC C  
C      1  0.5061910000000  0.5521780000000  0.4893650000000 1.0
C      1  0.4535510000000  0.4791730000000  0.4760840000000 1.0
C      1  0.5334830000000  0.4370670000000  0.4682100000000 1.0
C      1  0.5432890000000  0.4468360000000  0.4935140000000 1.0
C      1  0.5161020000000  0.5026520000000  0.5986000000000 1.0
C      1  0.4190830000000  0.5090550000000  0.4453460000000 1.0
C      1  0.5492850000000  0.4714510000000  0.5493550000000 1.0
C      1  0.4927030000000  0.5133830000000  0.4604480000000 1.0
C      1  0.4529080000000  0.4998940000000  0.3991060000000 1.0
C      1  0.5226710000000  0.5165730000000  0.4572650000000 1.0
C      1  0.4991350000000  0.4092920000000  0.5236180000000 1.0
C      1  0.5168530000000  0.4141200000000  0.4693090000000 1.0
C      1  0.5790470000000  0.5284700000000  0.5691510000000 1.0
C      1  0.5534530000000  0.5663860000000  0.5510540000000 1.0
C      1  0.5377360000000  0.5283330000000  0.4235550000000 1.0
C      1  0.4057260000000  0.5028560000000  0.4715890000000 1.0
C      1  0.4940170000000  0.5699190000000  0.5658070000000 1.0
C      1  0.4780320000000  0.4663420000000  0.5221140000000 1.0
C      1  0.4543290000000  0.4427260000000  0.5577220000000 1.0
C      1  0.5111040000000  0.5445330000000  0.5678720000000 1.0
C      1  0.4716140000000  0.4616550000000  0.5691740000000 1.0
C      1  0.5885770000000  0.4684200000000  0.4993150000000 1.0
C      1  0.5305520000000  0.5475010000000  0.5454410000000 1.0
C      1  0.4962610000000  0.5835780000000  0.5369520000000 1.0
C      1  0.5811900000000  0.4442260000000  0.5167980000000 1.0
C      1  0.4829590000000  0.5389550000000  0.4731270000000 1.0
C      1  0.5321060000000  0.4786100000000  0.4166110000000 1.0
C      1  0.4362600000000  0.5479260000000  0.4717380000000 1.0
C      1  0.4623070000000  0.4924660000000  0.4482720000000 1.0
C      1  0.5325590000000  0.4492210000000  0.4218330000000 1.0
C      1  0.4363270000000  0.5336210000000  0.4448850000000 1.0
C      1  0.5136460000000  0.4252990000000  0.5464750000000 1.0
C      1  0.4184560000000  0.5142900000000  0.5721380000000 1.0
C      1  0.5638040000000  0.4943700000000  0.5349000000000 1.0
C      1  0.5439550000000  0.4221520000000  0.5422790000000 1.0
C      1  0.5081180000000  0.5586700000000  0.5253600000000 1.0
C      1  0.4977450000000  0.4199260000000  0.4480600000000 1.0
C      1  0.5607200000000  0.5158170000000  0.4356040000000 1.0
C      1  0.5031080000000  0.4951620000000  0.5513190000000 1.0
C      1  0.4921550000000  0.4498600000000  0.5027300000000 1.0
C      1  0.4642790000000  0.5332460000000  0.4333220000000 1.0
C      1  0.4278690000000  0.5412620000000  0.5323750000000 1.0
C      1  0.5502930000000  0.5849790000000  0.5047240000000 1.0
C      1  0.4412840000000  0.4769500000000  0.4095310000000 1.0
C      1  0.4772060000000  0.5594500000000  0.4348180000000 1.0
C      1  0.5217220000000  0.5153090000000  0.5094540000000 1.0
C      1  0.4327190000000  0.5014850000000  0.5162840000000 1.0
C      1  0.4738640000000  0.5147830000000  0.4106040000000 1.0
C      1  0.5457920000000  0.4777430000000  0.4875030000000 1.0
C      1  0.5007890000000  0.5605580000000  0.4203640000000 1.0
C      1  0.5125840000000  0.5777400000000  0.4742680000000 1.0
C      1  0.4578130000000  0.5329270000000  0.4882200000000 1.0
C      1  0.5808350000000  0.5536760000000  0.5539650000000 1.0
C      1  0.5791570000000  0.5169410000000  0.4884920000000 1.0
C      1  0.4711030000000  0.4267870000000  0.4566990000000 1.0
C      1  0.5620220000000  0.4458560000000  0.5407480000000 1.0
C      1  0.5652200000000  0.4255370000000  0.5006510000000 1.0
C      1  0.4074650000000  0.5204910000000  0.4949080000000 1.0
C      1  0.4562870000000  0.4907240000000  0.5702250000000 1.0
C      1  0.5913780000000  0.5463590000000  0.5288590000000 1.0
C      1  0.4112230000000  0.5480810000000  0.4886200000000 1.0
C      1  0.5200180000000  0.4693600000000  0.5405320000000 1.0
C      1  0.4843790000000  0.5417670000000  0.5265010000000 1.0
C      1  0.5459400000000  0.4720110000000  0.5800220000000 1.0
C      1  0.5083420000000  0.6023980000000  0.5193260000000 1.0
C      1  0.5574670000000  0.5581650000000  0.4936690000000 1.0
C      1  0.4297380000000  0.5381730000000  0.5621150000000 1.0
C      1  0.5031280000000  0.4638960000000  0.4511430000000 1.0
C      1  0.4604070000000  0.4202770000000  0.4829910000000 1.0
C      1  0.5841870000000  0.5064850000000  0.5510570000000 1.0
C      1  0.4459450000000  0.5774230000000  0.5038080000000 1.0
C      1  0.5247710000000  0.5523440000000  0.4313220000000 1.0
C      1  0.5700480000000  0.4913050000000  0.5040780000000 1.0
C      1  0.4374700000000  0.4385340000000  0.4834840000000 1.0
C      1  0.5650570000000  0.5264740000000  0.4628960000000 1.0
C      1  0.5287580000000  0.5324450000000  0.4860230000000 1.0
C      1  0.5549330000000  0.5869860000000  0.5320060000000 1.0
C      1  0.4290540000000  0.4491110000000  0.4556860000000 1.0
C      1  0.4627860000000  0.4570410000000  0.4173120000000 1.0
C      1  0.5495300000000  0.4445450000000  0.4454620000000 1.0
C      1  0.5207760000000  0.4034320000000  0.5048740000000 1.0
C      1  0.5212740000000  0.4880660000000  0.5003500000000 1.0
C      1  0.4290450000000  0.4906310000000  0.5809250000000 1.0
C      1  0.5073430000000  0.4771190000000  0.6074230000000 1.0
C      1  0.4516980000000  0.4385470000000  0.4383230000000 1.0
C      1  0.5200300000000  0.4595660000000  0.5890720000000 1.0
C      1  0.4808300000000  0.4941180000000  0.5321070000000 1.0
C      1  0.4321800000000  0.4495200000000  0.5107290000000 1.0
C      1  0.4762510000000  0.4239950000000  0.5090730000000 1.0
C      1  0.4690100000000  0.5659550000000  0.5778780000000 1.0
C      1  0.4907270000000  0.5163910000000  0.5145530000000 1.0
C      1  0.4767280000000  0.5751730000000  0.4602490000000 1.0
C      1  0.4563660000000  0.4463890000000  0.5290660000000 1.0
C      1  0.5006340000000  0.5148580000000  0.5751820000000 1.0
C      1  0.5683260000000  0.4663700000000  0.4507590000000 1.0
C      1  0.5072990000000  0.4353900000000  0.4253530000000 1.0
C      1  0.5240800000000  0.5952200000000  0.4966840000000 1.0
C      1  0.4574090000000  0.5406200000000  0.5730610000000 1.0
C      1  0.4709870000000  0.5152860000000  0.5812030000000 1.0
C      1  0.5338140000000  0.5672850000000  0.4540850000000 1.0
C      1  0.4182940000000  0.4751150000000  0.5089910000000 1.0
C      1  0.4845890000000  0.4640710000000  0.4765560000000 1.0
C      1  0.5290620000000  0.4850890000000  0.4570550000000 1.0
C      1  0.4587980000000  0.5489190000000  0.5137400000000 1.0
C      1  0.4828150000000  0.4764690000000  0.4314720000000 1.0
C      1  0.4529610000000  0.4989350000000  0.5411670000000 1.0
C      1  0.4980160000000  0.4961710000000  0.4143950000000 1.0
C      1  0.5442590000000  0.4996130000000  0.5902730000000 1.0
C      1  0.5800010000000  0.5422050000000  0.5037960000000 1.0
C      1  0.5198570000000  0.4467050000000  0.5145710000000 1.0
C      1  0.4146530000000  0.4761540000000  0.4795980000000 1.0
C      1  0.4338310000000  0.4835080000000  0.4381220000000 1.0
C      1  0.5029440000000  0.4531630000000  0.5648860000000 1.0
C      1  0.5876990000000  0.4635220000000  0.4713480000000 1.0
C      1  0.4946560000000  0.4922660000000  0.4834900000000 1.0
C      1  0.5587000000000  0.5558660000000  0.4648740000000 1.0
C      1  0.5477100000000  0.4071320000000  0.5169920000000 1.0
C      1  0.5523750000000  0.5183670000000  0.5703930000000 1.0
C      1  0.4535490000000  0.5035350000000  0.4948830000000 1.0
C      1  0.4491820000000  0.5760780000000  0.4733480000000 1.0
C      1  0.5592160000000  0.4866120000000  0.4296970000000 1.0
C      1  0.4180450000000  0.5639840000000  0.5132390000000 1.0
END
