TITL C-951336-9012-441 0.254849588021258 125000 -109.58433533354 0 0 21 (C1) n - 1
REM
REM in /home/bkarasulu/work/CARBON/AIRSS/Generating-Clusters/EDIP-Nigel-Params/with-SteepDescent/Only-C1/SD-CG/HFTN-CG
REM
REM
REM
REM
REM
REM ./C.cell (11c1c37f851c82e70ff6c80c92926a4b)
REM
REM compiler GCC version 9.2.1 20190827 (Red Hat 9.2.1-1)
REM options -cpp -mtune=generic -march=x86-64 -g -O0 -fpre-include=/usr/include/finclude/math-vector-fortran.h
REM seed -611502342 -2057928527 -1090838184 1146708467 -2104495857 1437014473 -1017451557 -392566544 -1059879761 814881797 485422170 -871855299 -1454402719 -834840728 -69701986 51003944 -774933058 -950484467 -1664905756 -1172144640 392129537 1718235129 -1165818149 -380597470 -458613817 -1252233139 -1843204052 1559926136 1275669174 -526083285 6206373 549963173 615587858
REM
CELL 1.54180   50.00000   50.00000   50.00000   90.00000   90.00000   90.00000
LATT -1
SFAC C  
C      1  0.4866560000000  0.5263830000000  0.4983540000000 1.0
C      1  0.5004220000000  0.4918070000000  0.4664870000000 1.0
C      1  0.4888030000000  0.5732120000000  0.4900360000000 1.0
C      1  0.5489670000000  0.4573340000000  0.5603480000000 1.0
C      1  0.4857500000000  0.4578680000000  0.4963680000000 1.0
C      1  0.4791340000000  0.4713210000000  0.4719140000000 1.0
C      1  0.5041510000000  0.5015310000000  0.4951500000000 1.0
C      1  0.4447860000000  0.4979670000000  0.4967890000000 1.0
C      1  0.5130740000000  0.5552430000000  0.4355800000000 1.0
C      1  0.5617370000000  0.4509780000000  0.5381290000000 1.0
C      1  0.4594930000000  0.5202620000000  0.4890820000000 1.0
C      1  0.4940740000000  0.5123590000000  0.4482240000000 1.0
C      1  0.4960050000000  0.4787440000000  0.5123180000000 1.0
C      1  0.4947520000000  0.5406660000000  0.4536910000000 1.0
C      1  0.4535530000000  0.4855560000000  0.4734490000000 1.0
C      1  0.4865050000000  0.5598860000000  0.4325230000000 1.0
C      1  0.5101920000000  0.4749900000000  0.5812700000000 1.0
C      1  0.5229470000000  0.4686390000000  0.5590410000000 1.0
C      1  0.5110740000000  0.4729590000000  0.5347080000000 1.0
C      1  0.5603890000000  0.4531800000000  0.5837870000000 1.0
C      1  0.4975350000000  0.5491140000000  0.4827520000000 1.0
END
