TITL C-951342-2639-341 2.14705364718335e-06 125000 -740.021600652933 0 0 119 (C1) n - 1
REM
REM in /home/bkarasulu/work/CARBON/AIRSS/Generating-Clusters/EDIP-Nigel-Params/with-SteepDescent/Only-C1/SD-CG/HFTN-CG
REM
REM
REM
REM
REM
REM ./C.cell (11c1c37f851c82e70ff6c80c92926a4b)
REM
REM compiler GCC version 9.2.1 20190827 (Red Hat 9.2.1-1)
REM options -cpp -mtune=generic -march=x86-64 -g -O0 -fpre-include=/usr/include/finclude/math-vector-fortran.h
REM seed 246386828 111117035 1621216517 -716218229 -1582872308 -1342348055 648798484 1078422177 -1175523158 1572899076 -1454293750 1150252063 510687817 -1665939951 -530219705 1337645801 -716006967 1573947090 1292327555 1873073167 867073093 1982077526 -2002839173 1195016734 1640921386 -1592792005 2001025060 -126802620 -1834784154 -517222288 1956370215 596526232 -9794292
REM
CELL 1.54180   50.00000   50.00000   50.00000   90.00000   90.00000   90.00000
LATT -1
SFAC C  
C      1  0.5524450000000  0.4427200000000  0.4586600000000 1.0
C      1  0.4900480000000  0.5446570000000  0.4458230000000 1.0
C      1  0.5295290000000  0.5368560000000  0.4807270000000 1.0
C      1  0.4296020000000  0.4507410000000  0.4767110000000 1.0
C      1  0.4873950000000  0.5920650000000  0.5188930000000 1.0
C      1  0.5135040000000  0.4357000000000  0.4854140000000 1.0
C      1  0.4509940000000  0.4968050000000  0.3994620000000 1.0
C      1  0.5057600000000  0.4823910000000  0.5845580000000 1.0
C      1  0.5305790000000  0.5888480000000  0.4996020000000 1.0
C      1  0.5915600000000  0.4536510000000  0.4908590000000 1.0
C      1  0.5561340000000  0.4974750000000  0.5206930000000 1.0
C      1  0.4690150000000  0.5752360000000  0.5000740000000 1.0
C      1  0.4963630000000  0.6166390000000  0.4654850000000 1.0
C      1  0.5094720000000  0.6068610000000  0.5069910000000 1.0
C      1  0.5467830000000  0.5700320000000  0.5462610000000 1.0
C      1  0.5405320000000  0.5007510000000  0.4723950000000 1.0
C      1  0.4129520000000  0.5297880000000  0.5198180000000 1.0
C      1  0.4560490000000  0.4239610000000  0.5533850000000 1.0
C      1  0.5025910000000  0.4062570000000  0.5593390000000 1.0
C      1  0.4029340000000  0.4712390000000  0.5151340000000 1.0
C      1  0.4942750000000  0.4289430000000  0.5118820000000 1.0
C      1  0.5836740000000  0.5425250000000  0.5158110000000 1.0
C      1  0.5021150000000  0.4795390000000  0.3970380000000 1.0
C      1  0.5758530000000  0.5401300000000  0.4649760000000 1.0
C      1  0.4931360000000  0.4541290000000  0.4125820000000 1.0
C      1  0.4822990000000  0.4862940000000  0.4462270000000 1.0
C      1  0.5260460000000  0.5020110000000  0.5793260000000 1.0
C      1  0.5493210000000  0.5163860000000  0.5441000000000 1.0
C      1  0.4707970000000  0.4631030000000  0.4296330000000 1.0
C      1  0.5160460000000  0.5024010000000  0.4251620000000 1.0
C      1  0.5194850000000  0.5238130000000  0.5609420000000 1.0
C      1  0.4529550000000  0.4355670000000  0.4817900000000 1.0
C      1  0.4686290000000  0.4412240000000  0.5050340000000 1.0
C      1  0.4744290000000  0.4903730000000  0.4759840000000 1.0
C      1  0.5518270000000  0.4770820000000  0.4188330000000 1.0
C      1  0.5386330000000  0.5655140000000  0.4711800000000 1.0
C      1  0.4275800000000  0.5096420000000  0.4727970000000 1.0
C      1  0.5324800000000  0.4909270000000  0.4009560000000 1.0
C      1  0.4776230000000  0.4890270000000  0.5837570000000 1.0
C      1  0.5168740000000  0.4549920000000  0.5852110000000 1.0
C      1  0.4794210000000  0.4707760000000  0.5440570000000 1.0
C      1  0.5386170000000  0.4208410000000  0.4761470000000 1.0
C      1  0.4823490000000  0.5466070000000  0.5777450000000 1.0
C      1  0.4967750000000  0.4397100000000  0.4599980000000 1.0
C      1  0.4696470000000  0.5180670000000  0.5746320000000 1.0
C      1  0.4960910000000  0.5708320000000  0.5391060000000 1.0
C      1  0.4309920000000  0.4922970000000  0.4480860000000 1.0
C      1  0.4243080000000  0.4772830000000  0.5584130000000 1.0
C      1  0.5350100000000  0.4604070000000  0.4400540000000 1.0
C      1  0.4722640000000  0.5647810000000  0.5561110000000 1.0
C      1  0.4386750000000  0.4853660000000  0.5132990000000 1.0
C      1  0.5291390000000  0.4572010000000  0.5425860000000 1.0
C      1  0.4423350000000  0.5712590000000  0.5137350000000 1.0
C      1  0.4098450000000  0.5008320000000  0.5059900000000 1.0
C      1  0.5681650000000  0.4982410000000  0.4348280000000 1.0
C      1  0.4937830000000  0.5201840000000  0.5439130000000 1.0
C      1  0.5214160000000  0.4016940000000  0.5364270000000 1.0
C      1  0.5679660000000  0.5660600000000  0.4746100000000 1.0
C      1  0.5288640000000  0.5388840000000  0.5123460000000 1.0
C      1  0.5709120000000  0.4886610000000  0.4636650000000 1.0
C      1  0.5507230000000  0.4898140000000  0.5719400000000 1.0
C      1  0.4579750000000  0.5288940000000  0.5039350000000 1.0
C      1  0.4694940000000  0.4300120000000  0.4589360000000 1.0
C      1  0.4758390000000  0.4006900000000  0.5456620000000 1.0
C      1  0.4997430000000  0.5442170000000  0.5236850000000 1.0
C      1  0.5918440000000  0.5011560000000  0.4813480000000 1.0
C      1  0.4642420000000  0.5791180000000  0.4704430000000 1.0
C      1  0.5010650000000  0.5722720000000  0.4411180000000 1.0
C      1  0.5206890000000  0.4858690000000  0.4513440000000 1.0
C      1  0.4147620000000  0.4576630000000  0.5388920000000 1.0
C      1  0.4464210000000  0.4895540000000  0.5430710000000 1.0
C      1  0.4464300000000  0.4470870000000  0.4339500000000 1.0
C      1  0.5443770000000  0.4454030000000  0.5211490000000 1.0
C      1  0.4315040000000  0.4680370000000  0.5838200000000 1.0
C      1  0.4297520000000  0.5363440000000  0.5456840000000 1.0
C      1  0.4928780000000  0.4941520000000  0.5296720000000 1.0
C      1  0.4354510000000  0.5052020000000  0.4224340000000 1.0
C      1  0.4982470000000  0.5357100000000  0.4752040000000 1.0
C      1  0.4546390000000  0.5542660000000  0.4578830000000 1.0
C      1  0.4505130000000  0.5167910000000  0.5520390000000 1.0
C      1  0.5807920000000  0.5262540000000  0.4900990000000 1.0
C      1  0.5306610000000  0.4584880000000  0.4982460000000 1.0
C      1  0.5112500000000  0.5041250000000  0.5080080000000 1.0
C      1  0.5011250000000  0.4472400000000  0.5418950000000 1.0
C      1  0.4874580000000  0.4006370000000  0.5184550000000 1.0
C      1  0.4976480000000  0.5065350000000  0.4821130000000 1.0
C      1  0.4984050000000  0.4351050000000  0.5695670000000 1.0
C      1  0.4813800000000  0.5463700000000  0.4996970000000 1.0
C      1  0.4594510000000  0.4657120000000  0.5827100000000 1.0
C      1  0.4330620000000  0.5450150000000  0.5016730000000 1.0
C      1  0.4312710000000  0.5410240000000  0.4704740000000 1.0
C      1  0.5721210000000  0.5673380000000  0.5044900000000 1.0
C      1  0.4573840000000  0.4496550000000  0.5300400000000 1.0
C      1  0.5803450000000  0.4802440000000  0.5250510000000 1.0
C      1  0.4517020000000  0.5028960000000  0.4910990000000 1.0
C      1  0.5352930000000  0.4884250000000  0.5003790000000 1.0
C      1  0.4729940000000  0.5096830000000  0.4282490000000 1.0
C      1  0.5417860000000  0.4616050000000  0.5688810000000 1.0
C      1  0.5995940000000  0.4805390000000  0.5018750000000 1.0
C      1  0.5411140000000  0.4158460000000  0.5201780000000 1.0
C      1  0.4287730000000  0.4626090000000  0.4510260000000 1.0
C      1  0.5590930000000  0.5274520000000  0.4430070000000 1.0
C      1  0.5731070000000  0.4518300000000  0.5229160000000 1.0
C      1  0.5379000000000  0.5443080000000  0.4291410000000 1.0
C      1  0.4267260000000  0.4305840000000  0.5425890000000 1.0
C      1  0.5113600000000  0.5316040000000  0.4265280000000 1.0
C      1  0.4693240000000  0.4388940000000  0.5764350000000 1.0
C      1  0.4440300000000  0.5632150000000  0.5431350000000 1.0
C      1  0.4875980000000  0.5911090000000  0.4583160000000 1.0
C      1  0.4803930000000  0.5016640000000  0.3987370000000 1.0
C      1  0.5200660000000  0.5722840000000  0.5588430000000 1.0
C      1  0.5441520000000  0.5676020000000  0.5163380000000 1.0
C      1  0.5677730000000  0.5402650000000  0.5424600000000 1.0
C      1  0.5129760000000  0.5489530000000  0.5764520000000 1.0
C      1  0.5513660000000  0.4054610000000  0.4962340000000 1.0
C      1  0.5306420000000  0.5700430000000  0.4424440000000 1.0
C      1  0.5107630000000  0.4441680000000  0.4342300000000 1.0
C      1  0.5749730000000  0.4590860000000  0.4673890000000 1.0
C      1  0.5026690000000  0.6276030000000  0.4891400000000 1.0
END
