TITL C-950534-5965-634 -7.46069206934695e-08 125000 -597.066130246338 0 0 96 (C1) n - 1
REM
REM in /home/bkarasulu/work/CARBON/AIRSS/Generating-Clusters/EDIP-Nigel-Params/with-SteepDescent/Only-C1/SD-CG/HFTN-CG
REM
REM
REM
REM
REM
REM ./C.cell (11c1c37f851c82e70ff6c80c92926a4b)
REM
REM compiler GCC version 9.2.1 20190827 (Red Hat 9.2.1-1)
REM options -cpp -mtune=generic -march=x86-64 -g -O0 -fpre-include=/usr/include/finclude/math-vector-fortran.h
REM seed -283070121 -2011058417 -1871053472 1988494450 -1139101518 -1342542442 -483397295 -826725170 -787552484 1511295715 -271521126 2014600319 21323302 -15088660 868708134 605837967 1023999113 1615628764 1487312798 527169774 -2108814464 163613299 1243953390 -1871275039 -1885517664 738426148 20436966 899441299 191778807 -859111737 -1869868131 -1982943173 337142870
REM
CELL 1.54180   50.00000   50.00000   50.00000   90.00000   90.00000   90.00000
LATT -1
SFAC C  
C      1  0.4375780000000  0.5468010000000  0.5326640000000 1.0
C      1  0.5290940000000  0.4365500000000  0.4523290000000 1.0
C      1  0.4994860000000  0.5335060000000  0.5670140000000 1.0
C      1  0.5261210000000  0.5424070000000  0.4400040000000 1.0
C      1  0.4754890000000  0.4250360000000  0.4777370000000 1.0
C      1  0.5336340000000  0.4514260000000  0.5851580000000 1.0
C      1  0.5020800000000  0.4425640000000  0.4466680000000 1.0
C      1  0.4398860000000  0.4907610000000  0.5608860000000 1.0
C      1  0.4615040000000  0.5690130000000  0.4667780000000 1.0
C      1  0.5048200000000  0.4868650000000  0.4351180000000 1.0
C      1  0.4376560000000  0.5069420000000  0.4518250000000 1.0
C      1  0.5012220000000  0.5958830000000  0.4979350000000 1.0
C      1  0.4920690000000  0.4607520000000  0.4249450000000 1.0
C      1  0.4491600000000  0.4649130000000  0.5712760000000 1.0
C      1  0.5351230000000  0.4729060000000  0.4776100000000 1.0
C      1  0.5074920000000  0.5090690000000  0.4149570000000 1.0
C      1  0.4431370000000  0.5676360000000  0.4899220000000 1.0
C      1  0.5013650000000  0.5888690000000  0.5249880000000 1.0
C      1  0.4977320000000  0.5507980000000  0.4360950000000 1.0
C      1  0.5227750000000  0.5095610000000  0.5379620000000 1.0
C      1  0.5580250000000  0.4567270000000  0.5151860000000 1.0
C      1  0.5011930000000  0.5036160000000  0.4982110000000 1.0
C      1  0.4546610000000  0.4851160000000  0.4958130000000 1.0
C      1  0.5533910000000  0.5200920000000  0.5669180000000 1.0
C      1  0.5375570000000  0.4443360000000  0.5580420000000 1.0
C      1  0.4828480000000  0.4955420000000  0.4533610000000 1.0
C      1  0.5718590000000  0.5237150000000  0.4375700000000 1.0
C      1  0.4604310000000  0.5013010000000  0.4325480000000 1.0
C      1  0.5302720000000  0.4894460000000  0.4512650000000 1.0
C      1  0.5280390000000  0.5624860000000  0.5322680000000 1.0
C      1  0.4173740000000  0.4542090000000  0.5028200000000 1.0
C      1  0.4693550000000  0.4734420000000  0.4695040000000 1.0
C      1  0.5712360000000  0.4629620000000  0.4700280000000 1.0
C      1  0.5271920000000  0.4789240000000  0.5836290000000 1.0
C      1  0.4382930000000  0.4408740000000  0.5608710000000 1.0
C      1  0.5284190000000  0.5351660000000  0.5670760000000 1.0
C      1  0.4915560000000  0.5175450000000  0.4708440000000 1.0
C      1  0.5112250000000  0.5488550000000  0.5109120000000 1.0
C      1  0.4525010000000  0.5685520000000  0.5191250000000 1.0
C      1  0.5086560000000  0.4577170000000  0.4931280000000 1.0
C      1  0.5712230000000  0.5474020000000  0.4551650000000 1.0
C      1  0.5117960000000  0.4464180000000  0.5429680000000 1.0
C      1  0.5564340000000  0.4616330000000  0.5440870000000 1.0
C      1  0.4370460000000  0.4346620000000  0.5005400000000 1.0
C      1  0.5463850000000  0.5630380000000  0.4498520000000 1.0
C      1  0.4187850000000  0.4936250000000  0.5423530000000 1.0
C      1  0.5463330000000  0.5075740000000  0.5160730000000 1.0
C      1  0.5541600000000  0.5354670000000  0.5029950000000 1.0
C      1  0.4613330000000  0.4681700000000  0.4257220000000 1.0
C      1  0.4853780000000  0.5277670000000  0.4218980000000 1.0
C      1  0.5860020000000  0.5061510000000  0.4588360000000 1.0
C      1  0.5134130000000  0.4336270000000  0.5133300000000 1.0
C      1  0.4300930000000  0.5337250000000  0.4593540000000 1.0
C      1  0.4793970000000  0.5710070000000  0.5323220000000 1.0
C      1  0.5305640000000  0.4966260000000  0.4945740000000 1.0
C      1  0.5566250000000  0.5531120000000  0.5273970000000 1.0
C      1  0.5833710000000  0.5088280000000  0.5280930000000 1.0
C      1  0.4672660000000  0.4689540000000  0.5167990000000 1.0
C      1  0.4542960000000  0.5393890000000  0.5560410000000 1.0
C      1  0.4647260000000  0.5316160000000  0.4766170000000 1.0
C      1  0.4798820000000  0.5541200000000  0.5567930000000 1.0
C      1  0.5709810000000  0.5307610000000  0.5444270000000 1.0
C      1  0.5301810000000  0.5452390000000  0.4877260000000 1.0
C      1  0.5776710000000  0.5351330000000  0.4834130000000 1.0
C      1  0.4866120000000  0.4379590000000  0.5599900000000 1.0
C      1  0.5019860000000  0.5228330000000  0.5203650000000 1.0
C      1  0.4238680000000  0.4808390000000  0.4942960000000 1.0
C      1  0.4951540000000  0.4766590000000  0.5125390000000 1.0
C      1  0.5357590000000  0.5210390000000  0.4205210000000 1.0
C      1  0.4249160000000  0.4824580000000  0.4627850000000 1.0
C      1  0.4782880000000  0.4605940000000  0.5773570000000 1.0
C      1  0.4469390000000  0.4322250000000  0.4728780000000 1.0
C      1  0.4977540000000  0.4834690000000  0.5755860000000 1.0
C      1  0.4147490000000  0.5019490000000  0.5156520000000 1.0
C      1  0.4849760000000  0.5100240000000  0.5760680000000 1.0
C      1  0.5216210000000  0.5259530000000  0.4640940000000 1.0
C      1  0.5101100000000  0.4783770000000  0.5389390000000 1.0
C      1  0.5853960000000  0.5005210000000  0.4996100000000 1.0
C      1  0.5748650000000  0.4723770000000  0.4965750000000 1.0
C      1  0.4618280000000  0.4389900000000  0.5178140000000 1.0
C      1  0.4315520000000  0.5266500000000  0.5098620000000 1.0
C      1  0.5540470000000  0.4893580000000  0.4331650000000 1.0
C      1  0.5355230000000  0.5726700000000  0.4754390000000 1.0
C      1  0.4890420000000  0.4500570000000  0.4716420000000 1.0
C      1  0.4586000000000  0.5121350000000  0.5643220000000 1.0
C      1  0.4235090000000  0.5445950000000  0.4858130000000 1.0
C      1  0.5484820000000  0.4905690000000  0.5668190000000 1.0
C      1  0.5423620000000  0.4302730000000  0.4754460000000 1.0
C      1  0.4460370000000  0.4611400000000  0.4538270000000 1.0
C      1  0.5436250000000  0.4328890000000  0.5038170000000 1.0
C      1  0.4893210000000  0.5645130000000  0.4612500000000 1.0
C      1  0.4605500000000  0.4301450000000  0.5465590000000 1.0
C      1  0.5778400000000  0.4807400000000  0.4487250000000 1.0
C      1  0.4843170000000  0.4219210000000  0.5059960000000 1.0
C      1  0.5082450000000  0.5840070000000  0.4733170000000 1.0
C      1  0.4572840000000  0.5151430000000  0.5005690000000 1.0
END
