TITL C-950532-2784-435 -1.18570558505617e-06 125000 -264.076783631459 0 0 44 (C1) n - 1
REM
REM in /home/bkarasulu/work/CARBON/AIRSS/Generating-Clusters/EDIP-Nigel-Params/with-SteepDescent/Only-C1/SD-CG/HFTN-CG
REM
REM
REM
REM
REM
REM ./C.cell (11c1c37f851c82e70ff6c80c92926a4b)
REM
REM compiler GCC version 9.2.1 20190827 (Red Hat 9.2.1-1)
REM options -cpp -mtune=generic -march=x86-64 -g -O0 -fpre-include=/usr/include/finclude/math-vector-fortran.h
REM seed 1866870019 -1020484125 714487702 1599983156 -1265065922 2028857417 -903139519 -1639160664 2109115365 861562372 -1682241620 -516261510 -1749025082 1068187473 222182317 -2132712101 278314418 -589287734 -553676785 1322774925 1096846661 -1787118011 -1552119568 -1883911485 -1273830517 -1219557243 -787988929 1647557080 -867959759 1192283599 -470177490 1679033546 -887856077
REM
CELL 1.54180   50.00000   50.00000   50.00000   90.00000   90.00000   90.00000
LATT -1
SFAC C  
C      1  0.4939690000000  0.4412360000000  0.5124890000000 1.0
C      1  0.4731520000000  0.4632390000000  0.4453310000000 1.0
C      1  0.4339660000000  0.4826440000000  0.4907410000000 1.0
C      1  0.4785340000000  0.5087150000000  0.4664990000000 1.0
C      1  0.4771960000000  0.5586850000000  0.4709000000000 1.0
C      1  0.4594040000000  0.5200740000000  0.5399490000000 1.0
C      1  0.4838000000000  0.5165930000000  0.5535230000000 1.0
C      1  0.4886860000000  0.4481740000000  0.4655810000000 1.0
C      1  0.4612490000000  0.5208400000000  0.5097450000000 1.0
C      1  0.5305780000000  0.5184950000000  0.5512460000000 1.0
C      1  0.5496170000000  0.5025270000000  0.4646180000000 1.0
C      1  0.4369340000000  0.5063790000000  0.5505560000000 1.0
C      1  0.5797660000000  0.4869620000000  0.5250220000000 1.0
C      1  0.5078480000000  0.5029500000000  0.5516100000000 1.0
C      1  0.4277940000000  0.4719920000000  0.4655840000000 1.0
C      1  0.5408650000000  0.5438340000000  0.5479200000000 1.0
C      1  0.4586990000000  0.4662220000000  0.5311550000000 1.0
C      1  0.4423210000000  0.5235240000000  0.4652780000000 1.0
C      1  0.5058210000000  0.5811220000000  0.5023570000000 1.0
C      1  0.4608460000000  0.4737990000000  0.5014660000000 1.0
C      1  0.5374050000000  0.4581140000000  0.4553720000000 1.0
C      1  0.4363820000000  0.5131380000000  0.4920150000000 1.0
C      1  0.5578980000000  0.4761300000000  0.4609140000000 1.0
C      1  0.5311860000000  0.4708750000000  0.5196500000000 1.0
C      1  0.4673600000000  0.5362970000000  0.4575730000000 1.0
C      1  0.5766050000000  0.4676240000000  0.4796600000000 1.0
C      1  0.5546110000000  0.4884000000000  0.5103250000000 1.0
C      1  0.5507460000000  0.5113360000000  0.4909980000000 1.0
C      1  0.4436220000000  0.4801300000000  0.5502850000000 1.0
C      1  0.5359980000000  0.5352990000000  0.4975110000000 1.0
C      1  0.5228520000000  0.5475260000000  0.4762630000000 1.0
C      1  0.5024870000000  0.5660810000000  0.4793900000000 1.0
C      1  0.4870740000000  0.4587910000000  0.5360880000000 1.0
C      1  0.5076870000000  0.4799740000000  0.5342800000000 1.0
C      1  0.5455280000000  0.5542810000000  0.5187960000000 1.0
C      1  0.5208120000000  0.4498000000000  0.5014060000000 1.0
C      1  0.4781670000000  0.4994310000000  0.4962430000000 1.0
C      1  0.4821480000000  0.4894980000000  0.4455990000000 1.0
C      1  0.5262730000000  0.5794510000000  0.5211590000000 1.0
C      1  0.4733600000000  0.4468560000000  0.4909200000000 1.0
C      1  0.5872040000000  0.4690390000000  0.5051330000000 1.0
C      1  0.5221680000000  0.5665560000000  0.5472490000000 1.0
C      1  0.4454000000000  0.4608090000000  0.4485150000000 1.0
C      1  0.5159820000000  0.4565550000000  0.4730860000000 1.0
END
