TITL C-950523-3027-710 2.4381220179247e-06 125000 -844.175602497559 0 0 136 (C1) n - 1
REM
REM in /home/bkarasulu/work/CARBON/AIRSS/Generating-Clusters/EDIP-Nigel-Params/with-SteepDescent/Only-C1/SD-CG/HFTN-CG
REM
REM
REM
REM
REM
REM ./C.cell (11c1c37f851c82e70ff6c80c92926a4b)
REM
REM compiler GCC version 9.2.1 20190827 (Red Hat 9.2.1-1)
REM options -cpp -mtune=generic -march=x86-64 -g -O0 -fpre-include=/usr/include/finclude/math-vector-fortran.h
REM seed 464766138 383229767 -141426637 -460685714 -1882089584 -115215165 1728733548 -1717010530 -39132011 -1388452970 -1760080066 1016812743 -1100218841 -937538464 402160206 1648083163 1672282310 1502867253 809241660 -1009220485 861853396 429575200 1502887700 -1737351800 -1718836373 -633203136 -1179516751 1190523294 -1184316221 -822839345 -20154931 -118310100 -409688379
REM
CELL 1.54180   50.00000   50.00000   50.00000   90.00000   90.00000   90.00000
LATT -1
SFAC C  
C      1  0.5132870000000  0.4432730000000  0.4163550000000 1.0
C      1  0.5961890000000  0.5285010000000  0.4873570000000 1.0
C      1  0.4070500000000  0.5205220000000  0.5227590000000 1.0
C      1  0.5086950000000  0.5124550000000  0.5365870000000 1.0
C      1  0.4873260000000  0.4916440000000  0.4892390000000 1.0
C      1  0.5408330000000  0.4616070000000  0.4752330000000 1.0
C      1  0.4620360000000  0.4726430000000  0.4166220000000 1.0
C      1  0.4552360000000  0.4432470000000  0.5011390000000 1.0
C      1  0.4672800000000  0.4277700000000  0.5663670000000 1.0
C      1  0.4644420000000  0.3983760000000  0.4875020000000 1.0
C      1  0.5578910000000  0.5558880000000  0.5703080000000 1.0
C      1  0.4856960000000  0.5083840000000  0.3931120000000 1.0
C      1  0.4742030000000  0.4164810000000  0.5398850000000 1.0
C      1  0.4883880000000  0.4046860000000  0.5058010000000 1.0
C      1  0.5357770000000  0.5043840000000  0.5978400000000 1.0
C      1  0.5281310000000  0.5521270000000  0.4812780000000 1.0
C      1  0.4476410000000  0.4403070000000  0.4546980000000 1.0
C      1  0.5398240000000  0.4412180000000  0.4309030000000 1.0
C      1  0.4967710000000  0.4127670000000  0.4504500000000 1.0
C      1  0.4596410000000  0.5628620000000  0.4539320000000 1.0
C      1  0.4512180000000  0.5169800000000  0.5951940000000 1.0
C      1  0.4915590000000  0.5279340000000  0.5975070000000 1.0
C      1  0.4780850000000  0.5499610000000  0.5842400000000 1.0
C      1  0.5201400000000  0.4183710000000  0.5421300000000 1.0
C      1  0.4793690000000  0.5165220000000  0.5349710000000 1.0
C      1  0.5264000000000  0.5823880000000  0.4796920000000 1.0
C      1  0.4705010000000  0.4989420000000  0.5828780000000 1.0
C      1  0.4122340000000  0.4827760000000  0.4671570000000 1.0
C      1  0.3990850000000  0.4820970000000  0.4926370000000 1.0
C      1  0.5785370000000  0.5008300000000  0.5616180000000 1.0
C      1  0.4913880000000  0.4517920000000  0.4635170000000 1.0
C      1  0.4363140000000  0.5438640000000  0.5554180000000 1.0
C      1  0.5587970000000  0.5320040000000  0.5517580000000 1.0
C      1  0.4072940000000  0.5403060000000  0.5031460000000 1.0
C      1  0.4834210000000  0.4493860000000  0.5868780000000 1.0
C      1  0.4266120000000  0.5146120000000  0.4307250000000 1.0
C      1  0.4634610000000  0.4468090000000  0.4305660000000 1.0
C      1  0.5220730000000  0.5328580000000  0.4165650000000 1.0
C      1  0.5478660000000  0.5738610000000  0.4335190000000 1.0
C      1  0.5343190000000  0.4199700000000  0.5181490000000 1.0
C      1  0.5493230000000  0.5105460000000  0.4701040000000 1.0
C      1  0.4871910000000  0.4411910000000  0.4933110000000 1.0
C      1  0.5199050000000  0.5838120000000  0.5363540000000 1.0
C      1  0.4603700000000  0.4979470000000  0.4526220000000 1.0
C      1  0.4427570000000  0.5576370000000  0.4771330000000 1.0
C      1  0.5427830000000  0.5420080000000  0.5070700000000 1.0
C      1  0.5494160000000  0.5879870000000  0.4610540000000 1.0
C      1  0.4746900000000  0.5663820000000  0.4118840000000 1.0
C      1  0.5189190000000  0.4832010000000  0.6058810000000 1.0
C      1  0.4160450000000  0.4748640000000  0.5333630000000 1.0
C      1  0.5081790000000  0.4392620000000  0.5575040000000 1.0
C      1  0.4886460000000  0.5571210000000  0.5586990000000 1.0
C      1  0.5735690000000  0.4440960000000  0.4952160000000 1.0
C      1  0.4625480000000  0.4719510000000  0.5117620000000 1.0
C      1  0.4980790000000  0.4629470000000  0.5400460000000 1.0
C      1  0.4040010000000  0.4527890000000  0.5160290000000 1.0
C      1  0.4971890000000  0.5896840000000  0.4746680000000 1.0
C      1  0.5545460000000  0.4699850000000  0.5334020000000 1.0
C      1  0.4502810000000  0.4500070000000  0.5564320000000 1.0
C      1  0.5129740000000  0.4865960000000  0.5497680000000 1.0
C      1  0.4179400000000  0.5215490000000  0.5504270000000 1.0
C      1  0.4883250000000  0.5496900000000  0.5014830000000 1.0
C      1  0.4719470000000  0.4748070000000  0.4688440000000 1.0
C      1  0.4941750000000  0.5218850000000  0.4167420000000 1.0
C      1  0.5620480000000  0.4767190000000  0.4555290000000 1.0
C      1  0.4447320000000  0.3974720000000  0.5081070000000 1.0
C      1  0.4506820000000  0.5734900000000  0.5006520000000 1.0
C      1  0.5299080000000  0.4500150000000  0.5750900000000 1.0
C      1  0.4637250000000  0.4716410000000  0.5928700000000 1.0
C      1  0.5904210000000  0.5569760000000  0.5164800000000 1.0
C      1  0.4287690000000  0.4921080000000  0.5571640000000 1.0
C      1  0.5222550000000  0.5593860000000  0.4288080000000 1.0
C      1  0.5045340000000  0.4577600000000  0.5112380000000 1.0
C      1  0.4856570000000  0.4813790000000  0.4010330000000 1.0
C      1  0.5125340000000  0.4570440000000  0.5976860000000 1.0
C      1  0.4185170000000  0.5404980000000  0.4773240000000 1.0
C      1  0.5341140000000  0.5540450000000  0.5867530000000 1.0
C      1  0.5555320000000  0.4419490000000  0.5184060000000 1.0
C      1  0.4893240000000  0.5665730000000  0.4564510000000 1.0
C      1  0.5587140000000  0.5809470000000  0.5574530000000 1.0
C      1  0.5005930000000  0.5430750000000  0.4761490000000 1.0
C      1  0.5703680000000  0.5727560000000  0.4756690000000 1.0
C      1  0.5236350000000  0.4980460000000  0.4576790000000 1.0
C      1  0.4204650000000  0.5125310000000  0.4601180000000 1.0
C      1  0.5168210000000  0.4090280000000  0.4960110000000 1.0
C      1  0.4518820000000  0.5596180000000  0.4266020000000 1.0
C      1  0.5664430000000  0.5622890000000  0.5027350000000 1.0
C      1  0.4383770000000  0.4669750000000  0.5780020000000 1.0
C      1  0.4726110000000  0.5751280000000  0.5435320000000 1.0
C      1  0.5824130000000  0.5142590000000  0.5086440000000 1.0
C      1  0.4560070000000  0.4162270000000  0.4670470000000 1.0
C      1  0.4892400000000  0.4303890000000  0.4286090000000 1.0
C      1  0.4274850000000  0.4566420000000  0.4697850000000 1.0
C      1  0.4667010000000  0.5334910000000  0.5133350000000 1.0
C      1  0.4170290000000  0.4950170000000  0.5122490000000 1.0
C      1  0.5219860000000  0.4766910000000  0.4964600000000 1.0
C      1  0.4994930000000  0.5757010000000  0.4212510000000 1.0
C      1  0.5187490000000  0.4646050000000  0.4539330000000 1.0
C      1  0.4683250000000  0.4697980000000  0.5413400000000 1.0
C      1  0.5818900000000  0.4799790000000  0.5408540000000 1.0
C      1  0.4512590000000  0.5585470000000  0.5287540000000 1.0
C      1  0.5454620000000  0.5393510000000  0.4604190000000 1.0
C      1  0.5533050000000  0.5130380000000  0.5005430000000 1.0
C      1  0.5529630000000  0.4955110000000  0.5749210000000 1.0
C      1  0.5831900000000  0.5333750000000  0.5319100000000 1.0
C      1  0.4628850000000  0.4973640000000  0.5525760000000 1.0
C      1  0.4995640000000  0.5129950000000  0.4679780000000 1.0
C      1  0.4920340000000  0.5909900000000  0.5267510000000 1.0
C      1  0.5737070000000  0.5571510000000  0.4406420000000 1.0
C      1  0.4525960000000  0.5151920000000  0.4822860000000 1.0
C      1  0.4456140000000  0.4961190000000  0.5041890000000 1.0
C      1  0.5116710000000  0.4715350000000  0.4110110000000 1.0
C      1  0.5418350000000  0.5124860000000  0.4266300000000 1.0
C      1  0.5297400000000  0.5358070000000  0.5370800000000 1.0
C      1  0.5943810000000  0.4880230000000  0.5154790000000 1.0
C      1  0.5192150000000  0.4152990000000  0.4676090000000 1.0
C      1  0.4495620000000  0.5425760000000  0.5825700000000 1.0
C      1  0.5661460000000  0.4289720000000  0.4719620000000 1.0
C      1  0.5384560000000  0.4746710000000  0.5595210000000 1.0
C      1  0.5424940000000  0.5985950000000  0.5442390000000 1.0
C      1  0.5566530000000  0.4665110000000  0.4276180000000 1.0
C      1  0.5925610000000  0.5137670000000  0.4620910000000 1.0
C      1  0.4512040000000  0.4214030000000  0.5226160000000 1.0
C      1  0.5892070000000  0.4836970000000  0.4654770000000 1.0
C      1  0.4841980000000  0.5125860000000  0.4435400000000 1.0
C      1  0.4816700000000  0.5792250000000  0.5000530000000 1.0
C      1  0.5175560000000  0.5599200000000  0.5532740000000 1.0
C      1  0.4393910000000  0.4905410000000  0.4205320000000 1.0
C      1  0.5400690000000  0.4903490000000  0.5149130000000 1.0
C      1  0.5440450000000  0.4230810000000  0.4551180000000 1.0
C      1  0.5898160000000  0.4699610000000  0.4923260000000 1.0
C      1  0.5387160000000  0.4851870000000  0.4133110000000 1.0
C      1  0.5206900000000  0.5290890000000  0.5937890000000 1.0
C      1  0.5752060000000  0.5259050000000  0.4385720000000 1.0
C      1  0.4341120000000  0.5393240000000  0.4202020000000 1.0
C      1  0.4180350000000  0.4422590000000  0.4930150000000 1.0
END
