TITL C-950531-5884-32 -2.35794897093037e-06 125000 -303.209062034944 0 0 50 (C1) n - 1
REM
REM in /home/bkarasulu/work/CARBON/AIRSS/Generating-Clusters/EDIP-Nigel-Params/with-SteepDescent/Only-C1/SD-CG/HFTN-CG
REM
REM
REM
REM
REM
REM ./C.cell (11c1c37f851c82e70ff6c80c92926a4b)
REM
REM compiler GCC version 9.2.1 20190827 (Red Hat 9.2.1-1)
REM options -cpp -mtune=generic -march=x86-64 -g -O0 -fpre-include=/usr/include/finclude/math-vector-fortran.h
REM seed 1794037795 613019260 -1336405340 -1263741519 -721821928 -1801623621 -1820179343 -1353384441 -660556304 -1242299166 -895066795 1401855281 170114337 431927980 -949207613 274091928 1464757007 1629972804 2062263827 -1058822848 -1970498436 979559862 -416736142 -556848080 -920141445 1204869200 -505344093 947074465 1663485812 -1935739013 737005916 1800135269 2144484992
REM
CELL 1.54180   50.00000   50.00000   50.00000   90.00000   90.00000   90.00000
LATT -1
SFAC C  
C      1  0.4751980000000  0.4533080000000  0.4565830000000 1.0
C      1  0.4571260000000  0.4650590000000  0.5284770000000 1.0
C      1  0.4753830000000  0.5132650000000  0.4978290000000 1.0
C      1  0.4955400000000  0.4673630000000  0.4434760000000 1.0
C      1  0.4433210000000  0.4913740000000  0.4587120000000 1.0
C      1  0.5462390000000  0.4752280000000  0.4542970000000 1.0
C      1  0.5550090000000  0.5162460000000  0.4999040000000 1.0
C      1  0.5441320000000  0.4504620000000  0.5090510000000 1.0
C      1  0.4968530000000  0.5546480000000  0.5330980000000 1.0
C      1  0.4891310000000  0.4939060000000  0.4341010000000 1.0
C      1  0.4327230000000  0.5295280000000  0.5124960000000 1.0
C      1  0.4914360000000  0.4426220000000  0.5027820000000 1.0
C      1  0.5089200000000  0.4913780000000  0.5572650000000 1.0
C      1  0.4625180000000  0.5038810000000  0.4421900000000 1.0
C      1  0.4767730000000  0.5623240000000  0.4915160000000 1.0
C      1  0.5441690000000  0.4666840000000  0.5358500000000 1.0
C      1  0.4507330000000  0.4659440000000  0.4986940000000 1.0
C      1  0.4230680000000  0.5076690000000  0.4983660000000 1.0
C      1  0.4717740000000  0.5317780000000  0.4489030000000 1.0
C      1  0.4948410000000  0.5316120000000  0.4303230000000 1.0
C      1  0.4808530000000  0.5352320000000  0.4778600000000 1.0
C      1  0.5574350000000  0.4918380000000  0.5383250000000 1.0
C      1  0.4684760000000  0.5534330000000  0.5366910000000 1.0
C      1  0.5445860000000  0.5026400000000  0.4484750000000 1.0
C      1  0.5029420000000  0.5659590000000  0.5071350000000 1.0
C      1  0.5221620000000  0.4583370000000  0.4520110000000 1.0
C      1  0.5173560000000  0.5460620000000  0.5516820000000 1.0
C      1  0.4588780000000  0.5194530000000  0.5223350000000 1.0
C      1  0.5273030000000  0.5585050000000  0.4947170000000 1.0
C      1  0.4345400000000  0.4861030000000  0.4845900000000 1.0
C      1  0.5190090000000  0.5412280000000  0.4395240000000 1.0
C      1  0.5052840000000  0.5062480000000  0.5810040000000 1.0
C      1  0.5017080000000  0.4470220000000  0.5485920000000 1.0
C      1  0.4890910000000  0.4865880000000  0.5345350000000 1.0
C      1  0.5397620000000  0.5357830000000  0.4837720000000 1.0
C      1  0.5599210000000  0.4691470000000  0.4791570000000 1.0
C      1  0.5090960000000  0.5322040000000  0.5743470000000 1.0
C      1  0.4813420000000  0.4446290000000  0.5298230000000 1.0
C      1  0.5422980000000  0.5390310000000  0.5412990000000 1.0
C      1  0.5569310000000  0.5185400000000  0.5288480000000 1.0
C      1  0.4702410000000  0.4498260000000  0.4839460000000 1.0
C      1  0.4976090000000  0.4996410000000  0.5092190000000 1.0
C      1  0.5229350000000  0.4352450000000  0.4681980000000 1.0
C      1  0.5372460000000  0.5283940000000  0.4558550000000 1.0
C      1  0.5218230000000  0.4651440000000  0.5551590000000 1.0
C      1  0.5198280000000  0.4365050000000  0.4961900000000 1.0
C      1  0.5450350000000  0.4876050000000  0.4972910000000 1.0
C      1  0.5169510000000  0.4893330000000  0.4926260000000 1.0
C      1  0.4543810000000  0.5609770000000  0.5119190000000 1.0
C      1  0.4600930000000  0.4950700000000  0.5409600000000 1.0
END
