TITL C-951347-9520-132 0.0114480713949582 125000 -614.034370176165 0 0 101 (C1) n - 1
REM
REM in /home/bkarasulu/work/CARBON/AIRSS/Generating-Clusters/EDIP-Nigel-Params/with-SteepDescent/Only-C1/SD-CG/HFTN-CG
REM
REM
REM
REM
REM
REM ./C.cell (11c1c37f851c82e70ff6c80c92926a4b)
REM
REM compiler GCC version 9.2.1 20190827 (Red Hat 9.2.1-1)
REM options -cpp -mtune=generic -march=x86-64 -g -O0 -fpre-include=/usr/include/finclude/math-vector-fortran.h
REM seed 1178439751 291095829 1497988943 -1301431631 -1644129329 592576391 -1390488598 -201959944 -183174547 400814916 -557694197 -1046130934 342403038 133161265 463211307 22928802 646157149 -1358897962 414540647 1236116040 1860901836 208874965 204739585 691875159 -2121857574 1836163961 -612622216 1627325991 -1247011528 -1734503552 -1558787003 1011601330 -1560584534
REM
CELL 1.54180   50.00000   50.00000   50.00000   90.00000   90.00000   90.00000
LATT -1
SFAC C  
C      1  0.4786700000000  0.4230370000000  0.4924900000000 1.0
C      1  0.4383240000000  0.4414390000000  0.5177860000000 1.0
C      1  0.4388890000000  0.4975660000000  0.5115940000000 1.0
C      1  0.5004220000000  0.5720480000000  0.5031670000000 1.0
C      1  0.5471850000000  0.4280730000000  0.4625040000000 1.0
C      1  0.4564420000000  0.4980310000000  0.4276420000000 1.0
C      1  0.5778330000000  0.5098390000000  0.4490720000000 1.0
C      1  0.4866440000000  0.5469280000000  0.5765650000000 1.0
C      1  0.4039860000000  0.4747700000000  0.5212060000000 1.0
C      1  0.4670490000000  0.4694040000000  0.4595870000000 1.0
C      1  0.4375200000000  0.4787520000000  0.4358240000000 1.0
C      1  0.5787240000000  0.4319450000000  0.5015820000000 1.0
C      1  0.5731890000000  0.5069100000000  0.5308570000000 1.0
C      1  0.4811880000000  0.5505330000000  0.4945190000000 1.0
C      1  0.5863310000000  0.5324740000000  0.5376150000000 1.0
C      1  0.4770460000000  0.5335280000000  0.5207500000000 1.0
C      1  0.5036180000000  0.4600640000000  0.5846110000000 1.0
C      1  0.4497630000000  0.5737240000000  0.5370860000000 1.0
C      1  0.5518620000000  0.5639020000000  0.5214860000000 1.0
C      1  0.4823650000000  0.5407950000000  0.4410400000000 1.0
C      1  0.5134550000000  0.5838260000000  0.4801940000000 1.0
C      1  0.4560660000000  0.5656340000000  0.4884450000000 1.0
C      1  0.4757190000000  0.5033070000000  0.5893880000000 1.0
C      1  0.5833790000000  0.4637220000000  0.5321520000000 1.0
C      1  0.4357420000000  0.5287820000000  0.5515070000000 1.0
C      1  0.3775280000000  0.4746890000000  0.5126260000000 1.0
C      1  0.5261350000000  0.5526790000000  0.4484430000000 1.0
C      1  0.5041420000000  0.5690040000000  0.4565210000000 1.0
C      1  0.4974090000000  0.4399610000000  0.5218100000000 1.0
C      1  0.5261470000000  0.5213060000000  0.5149670000000 1.0
C      1  0.4959150000000  0.4999420000000  0.5673300000000 1.0
C      1  0.5000810000000  0.4589510000000  0.4301530000000 1.0
C      1  0.5696530000000  0.5548910000000  0.5410670000000 1.0
C      1  0.5051770000000  0.5287080000000  0.5612100000000 1.0
C      1  0.4398910000000  0.5566560000000  0.4683020000000 1.0
C      1  0.5978510000000  0.4487970000000  0.5142310000000 1.0
C      1  0.4950430000000  0.5299050000000  0.4694100000000 1.0
C      1  0.5263180000000  0.4780110000000  0.5772670000000 1.0
C      1  0.4371720000000  0.4689760000000  0.5559360000000 1.0
C      1  0.5010830000000  0.4699570000000  0.5250630000000 1.0
C      1  0.4253260000000  0.4609710000000  0.5322940000000 1.0
C      1  0.4831700000000  0.5728610000000  0.5673240000000 1.0
C      1  0.5433450000000  0.5822210000000  0.4820500000000 1.0
C      1  0.5717510000000  0.5297400000000  0.4929420000000 1.0
C      1  0.5113360000000  0.4273730000000  0.5441860000000 1.0
C      1  0.3693960000000  0.4890190000000  0.4895540000000 1.0
C      1  0.5469640000000  0.5260070000000  0.4148180000000 1.0
C      1  0.4699230000000  0.4350190000000  0.5628560000000 1.0
C      1  0.5848600000000  0.4598210000000  0.4596240000000 1.0
C      1  0.5300100000000  0.4603000000000  0.4274190000000 1.0
C      1  0.4367490000000  0.5304450000000  0.4604410000000 1.0
C      1  0.4871930000000  0.4865890000000  0.5030150000000 1.0
C      1  0.5547840000000  0.5878220000000  0.5076080000000 1.0
C      1  0.4643760000000  0.4639040000000  0.5635830000000 1.0
C      1  0.5122300000000  0.5032620000000  0.4914700000000 1.0
C      1  0.5457310000000  0.5430090000000  0.5014720000000 1.0
C      1  0.5250810000000  0.4217670000000  0.4800680000000 1.0
C      1  0.5497490000000  0.5566970000000  0.4655030000000 1.0
C      1  0.5320560000000  0.5274030000000  0.5722560000000 1.0
C      1  0.5397750000000  0.5012200000000  0.5644380000000 1.0
C      1  0.4206380000000  0.5147060000000  0.5313330000000 1.0
C      1  0.4955350000000  0.4762250000000  0.4539010000000 1.0
C      1  0.4704050000000  0.4737420000000  0.5917810000000 1.0
C      1  0.5415830000000  0.4369390000000  0.4367700000000 1.0
C      1  0.4242050000000  0.5142210000000  0.4807160000000 1.0
C      1  0.4593500000000  0.4432390000000  0.4996590000000 1.0
C      1  0.5102430000000  0.5014830000000  0.4482170000000 1.0
C      1  0.4881760000000  0.4336120000000  0.4441670000000 1.0
C      1  0.4441880000000  0.5780320000000  0.5101210000000 1.0
C      1  0.5563080000000  0.4552990000000  0.5320150000000 1.0
C      1  0.5948970000000  0.5313820000000  0.5098750000000 1.0
C      1  0.5441270000000  0.5020230000000  0.5343990000000 1.0
C      1  0.4642970000000  0.4699810000000  0.4888800000000 1.0
C      1  0.5554880000000  0.4284440000000  0.5201090000000 1.0
C      1  0.4625380000000  0.5296180000000  0.5795760000000 1.0
C      1  0.5381370000000  0.4861670000000  0.4419660000000 1.0
C      1  0.5044880000000  0.5329020000000  0.5319120000000 1.0
C      1  0.5738240000000  0.5350650000000  0.4646790000000 1.0
C      1  0.4152700000000  0.5272550000000  0.5048800000000 1.0
C      1  0.4990960000000  0.5325730000000  0.4168760000000 1.0
C      1  0.4919120000000  0.5887100000000  0.5239580000000 1.0
C      1  0.4976240000000  0.4347030000000  0.5689680000000 1.0
C      1  0.4838070000000  0.4811710000000  0.5471910000000 1.0
C      1  0.5261800000000  0.5434830000000  0.4212890000000 1.0
C      1  0.4979860000000  0.4271070000000  0.4715980000000 1.0
C      1  0.4592780000000  0.5213420000000  0.4446760000000 1.0
C      1  0.5892150000000  0.4875350000000  0.4647480000000 1.0
C      1  0.4587930000000  0.5454920000000  0.5437280000000 1.0
C      1  0.4741170000000  0.5871720000000  0.5454260000000 1.0
C      1  0.5032140000000  0.5037650000000  0.4188250000000 1.0
C      1  0.5348090000000  0.4827660000000  0.4919140000000 1.0
C      1  0.5578610000000  0.5038030000000  0.4276630000000 1.0
C      1  0.4678510000000  0.5059210000000  0.5144250000000 1.0
C      1  0.3616610000000  0.4981560000000  0.5137150000000 1.0
C      1  0.4595610000000  0.4338840000000  0.4441280000000 1.0
C      1  0.5355240000000  0.4755830000000  0.5218750000000 1.0
C      1  0.4427680000000  0.4519060000000  0.4315870000000 1.0
C      1  0.5701920000000  0.4402100000000  0.4749100000000 1.0
C      1  0.5520130000000  0.4791280000000  0.4677280000000 1.0
C      1  0.5284320000000  0.4209400000000  0.5098050000000 1.0
C      1  0.4796420000000  0.4873950000000  0.4140880000000 1.0
END
