TITL C-950524-1808-329 -5.18888557221364e-06 125000 -1035.84055885026 0 0 165 (C1) n - 1
REM
REM in /home/bkarasulu/work/CARBON/AIRSS/Generating-Clusters/EDIP-Nigel-Params/with-SteepDescent/Only-C1/SD-CG/HFTN-CG
REM
REM
REM
REM
REM
REM ./C.cell (11c1c37f851c82e70ff6c80c92926a4b)
REM
REM compiler GCC version 9.2.1 20190827 (Red Hat 9.2.1-1)
REM options -cpp -mtune=generic -march=x86-64 -g -O0 -fpre-include=/usr/include/finclude/math-vector-fortran.h
REM seed 909967236 -977303248 1251464395 636487441 662735627 1729776302 -1118709795 1687646549 1037693952 -1107903916 1459782671 -1102662718 -237852785 1062295019 -1531690282 1387441420 -1356575523 -2044770660 -1552428220 912606558 -552356756 37423240 743192127 1498928412 -409002664 -851744754 2028135766 1565341934 1038776319 -870904148 -766119714 -450017679 993292859
REM
CELL 1.54180   50.00000   50.00000   50.00000   90.00000   90.00000   90.00000
LATT -1
SFAC C  
C      1  0.5019000000000  0.4423740000000  0.3971520000000 1.0
C      1  0.5237890000000  0.4123910000000  0.4859630000000 1.0
C      1  0.5815450000000  0.5323150000000  0.4584450000000 1.0
C      1  0.4786240000000  0.4798240000000  0.4413420000000 1.0
C      1  0.4844670000000  0.4152620000000  0.5299630000000 1.0
C      1  0.4894730000000  0.4701300000000  0.5302810000000 1.0
C      1  0.4554850000000  0.5950710000000  0.4522490000000 1.0
C      1  0.4177770000000  0.4460740000000  0.5458120000000 1.0
C      1  0.5543650000000  0.4740030000000  0.5208180000000 1.0
C      1  0.5423110000000  0.5474210000000  0.5391550000000 1.0
C      1  0.4745910000000  0.5722850000000  0.4098790000000 1.0
C      1  0.5249410000000  0.4823030000000  0.4097060000000 1.0
C      1  0.5230080000000  0.5542270000000  0.4733280000000 1.0
C      1  0.5175610000000  0.4314990000000  0.4402790000000 1.0
C      1  0.4055580000000  0.5090100000000  0.4610960000000 1.0
C      1  0.4447390000000  0.5262570000000  0.4434240000000 1.0
C      1  0.4736450000000  0.5974810000000  0.5445880000000 1.0
C      1  0.5416480000000  0.5412600000000  0.4040550000000 1.0
C      1  0.4039410000000  0.4787980000000  0.5604120000000 1.0
C      1  0.4925800000000  0.3923490000000  0.5121300000000 1.0
C      1  0.4261950000000  0.5231430000000  0.5625220000000 1.0
C      1  0.4337930000000  0.4578400000000  0.4195020000000 1.0
C      1  0.5244420000000  0.5361490000000  0.5607270000000 1.0
C      1  0.5715410000000  0.5152640000000  0.5890840000000 1.0
C      1  0.5503190000000  0.5577360000000  0.4264410000000 1.0
C      1  0.5163250000000  0.5404730000000  0.4324680000000 1.0
C      1  0.4862640000000  0.4277680000000  0.4422400000000 1.0
C      1  0.4434440000000  0.4693930000000  0.5114350000000 1.0
C      1  0.5072490000000  0.5967800000000  0.4516970000000 1.0
C      1  0.4334610000000  0.5821050000000  0.4690590000000 1.0
C      1  0.4295820000000  0.4941170000000  0.5012730000000 1.0
C      1  0.6134350000000  0.5032640000000  0.5035090000000 1.0
C      1  0.4145760000000  0.5626720000000  0.4555100000000 1.0
C      1  0.4451450000000  0.4215260000000  0.4789610000000 1.0
C      1  0.4364530000000  0.5713570000000  0.5637970000000 1.0
C      1  0.5802310000000  0.4154640000000  0.4965560000000 1.0
C      1  0.5553870000000  0.4679090000000  0.5713990000000 1.0
C      1  0.5705890000000  0.5399880000000  0.5446920000000 1.0
C      1  0.5446330000000  0.4792790000000  0.5993810000000 1.0
C      1  0.4254610000000  0.5500110000000  0.5508480000000 1.0
C      1  0.6017610000000  0.4745360000000  0.5018440000000 1.0
C      1  0.4573550000000  0.5240870000000  0.5227650000000 1.0
C      1  0.5333090000000  0.5310300000000  0.5155420000000 1.0
C      1  0.4836910000000  0.4577730000000  0.4673540000000 1.0
C      1  0.5685870000000  0.5870090000000  0.5451900000000 1.0
C      1  0.4870120000000  0.4296900000000  0.5751780000000 1.0
C      1  0.4802170000000  0.5641210000000  0.5841940000000 1.0
C      1  0.5187740000000  0.4871300000000  0.4887600000000 1.0
C      1  0.5123230000000  0.4829930000000  0.4388950000000 1.0
C      1  0.5673600000000  0.5570870000000  0.4506170000000 1.0
C      1  0.5096490000000  0.5712890000000  0.5824750000000 1.0
C      1  0.5992990000000  0.4784480000000  0.5740070000000 1.0
C      1  0.5415740000000  0.4477340000000  0.5201170000000 1.0
C      1  0.5120920000000  0.6026560000000  0.5042750000000 1.0
C      1  0.5085190000000  0.5156490000000  0.5233680000000 1.0
C      1  0.5841510000000  0.4430790000000  0.5434370000000 1.0
C      1  0.5358750000000  0.5897600000000  0.5123520000000 1.0
C      1  0.5830230000000  0.4555310000000  0.5708090000000 1.0
C      1  0.5471720000000  0.4899240000000  0.4969960000000 1.0
C      1  0.4221330000000  0.4479260000000  0.5157640000000 1.0
C      1  0.5612540000000  0.4318800000000  0.4549850000000 1.0
C      1  0.4234300000000  0.4829740000000  0.4251000000000 1.0
C      1  0.4734560000000  0.4152280000000  0.4684150000000 1.0
C      1  0.5475770000000  0.5105040000000  0.4351640000000 1.0
C      1  0.5905970000000  0.5049730000000  0.5706300000000 1.0
C      1  0.5608800000000  0.5810820000000  0.4982640000000 1.0
C      1  0.4945930000000  0.5631950000000  0.4411950000000 1.0
C      1  0.5319680000000  0.4480980000000  0.5708140000000 1.0
C      1  0.4585370000000  0.4742800000000  0.5376920000000 1.0
C      1  0.5126910000000  0.4601540000000  0.4792940000000 1.0
C      1  0.4817400000000  0.5105040000000  0.5634660000000 1.0
C      1  0.4339330000000  0.5456820000000  0.5231920000000 1.0
C      1  0.4821790000000  0.5966800000000  0.4671680000000 1.0
C      1  0.5254590000000  0.4584080000000  0.4523160000000 1.0
C      1  0.4509980000000  0.5615360000000  0.4805930000000 1.0
C      1  0.4964340000000  0.5140460000000  0.6041690000000 1.0
C      1  0.5785080000000  0.4782820000000  0.4529500000000 1.0
C      1  0.4663960000000  0.4479080000000  0.5724130000000 1.0
C      1  0.4515930000000  0.5130110000000  0.4958370000000 1.0
C      1  0.4891360000000  0.5200470000000  0.4682680000000 1.0
C      1  0.5152470000000  0.5062620000000  0.4652210000000 1.0
C      1  0.5305440000000  0.5060640000000  0.5610360000000 1.0
C      1  0.4228380000000  0.4328060000000  0.4623140000000 1.0
C      1  0.5900710000000  0.4634080000000  0.4761630000000 1.0
C      1  0.4951580000000  0.4015810000000  0.4840510000000 1.0
C      1  0.5629300000000  0.4050420000000  0.5163400000000 1.0
C      1  0.5216300000000  0.4023910000000  0.5598170000000 1.0
C      1  0.4773620000000  0.4345630000000  0.4132900000000 1.0
C      1  0.5360850000000  0.4157280000000  0.4579430000000 1.0
C      1  0.5534420000000  0.4909660000000  0.5472720000000 1.0
C      1  0.5620840000000  0.4572890000000  0.4383070000000 1.0
C      1  0.4949480000000  0.4100220000000  0.5574710000000 1.0
C      1  0.5902150000000  0.5573640000000  0.5328010000000 1.0
C      1  0.5413000000000  0.5120870000000  0.4071470000000 1.0
C      1  0.5297060000000  0.5790180000000  0.4587670000000 1.0
C      1  0.4454980000000  0.4889380000000  0.5891670000000 1.0
C      1  0.4960090000000  0.4413560000000  0.5197190000000 1.0
C      1  0.5411040000000  0.4222370000000  0.5607800000000 1.0
C      1  0.4997170000000  0.4914120000000  0.5104760000000 1.0
C      1  0.4454150000000  0.4355830000000  0.5541620000000 1.0
C      1  0.4424630000000  0.5331550000000  0.4747850000000 1.0
C      1  0.5847840000000  0.5082550000000  0.5116950000000 1.0
C      1  0.5833930000000  0.4664980000000  0.5248110000000 1.0
C      1  0.4098740000000  0.5331610000000  0.5073560000000 1.0
C      1  0.5790540000000  0.4357550000000  0.4771930000000 1.0
C      1  0.4339910000000  0.5544330000000  0.4339040000000 1.0
C      1  0.4646060000000  0.5059920000000  0.3877900000000 1.0
C      1  0.4944040000000  0.5236320000000  0.4213730000000 1.0
C      1  0.4627830000000  0.5786400000000  0.5645620000000 1.0
C      1  0.5197100000000  0.5887710000000  0.5605020000000 1.0
C      1  0.5267440000000  0.4351600000000  0.4118550000000 1.0
C      1  0.4695180000000  0.4723220000000  0.5898140000000 1.0
C      1  0.4932570000000  0.5393110000000  0.5566500000000 1.0
C      1  0.5404310000000  0.5790930000000  0.5401170000000 1.0
C      1  0.4601280000000  0.4575220000000  0.4084410000000 1.0
C      1  0.6058220000000  0.5330950000000  0.4713560000000 1.0
C      1  0.5664690000000  0.5804330000000  0.4692060000000 1.0
C      1  0.4374210000000  0.4228670000000  0.5077630000000 1.0
C      1  0.4040140000000  0.5056530000000  0.5507430000000 1.0
C      1  0.4709830000000  0.5533420000000  0.3885130000000 1.0
C      1  0.5178550000000  0.3814600000000  0.5205220000000 1.0
C      1  0.5778400000000  0.5108010000000  0.5436320000000 1.0
C      1  0.4470400000000  0.4801900000000  0.4624160000000 1.0
C      1  0.4857380000000  0.5356060000000  0.5256130000000 1.0
C      1  0.5821790000000  0.5819410000000  0.5191100000000 1.0
C      1  0.3888850000000  0.4834290000000  0.5082130000000 1.0
C      1  0.5283340000000  0.5531500000000  0.5950720000000 1.0
C      1  0.4607050000000  0.4665210000000  0.4851170000000 1.0
C      1  0.4872860000000  0.5266680000000  0.3922750000000 1.0
C      1  0.4547890000000  0.4184900000000  0.5317620000000 1.0
C      1  0.4026180000000  0.4515060000000  0.4727280000000 1.0
C      1  0.4952200000000  0.4845830000000  0.5966270000000 1.0
C      1  0.4853990000000  0.6058940000000  0.4954010000000 1.0
C      1  0.4870010000000  0.5563910000000  0.5053250000000 1.0
C      1  0.6240370000000  0.5165260000000  0.4816710000000 1.0
C      1  0.4756060000000  0.5126650000000  0.4423960000000 1.0
C      1  0.4494180000000  0.5323240000000  0.3894720000000 1.0
C      1  0.4746290000000  0.4802620000000  0.3977720000000 1.0
C      1  0.4566320000000  0.5049000000000  0.5464630000000 1.0
C      1  0.5575350000000  0.4279450000000  0.5359840000000 1.0
C      1  0.4208740000000  0.5085090000000  0.4361260000000 1.0
C      1  0.3977350000000  0.5083300000000  0.5215520000000 1.0
C      1  0.5384430000000  0.5284810000000  0.4678660000000 1.0
C      1  0.4539880000000  0.5755820000000  0.4296980000000 1.0
C      1  0.5239780000000  0.5257910000000  0.6040810000000 1.0
C      1  0.5038810000000  0.4912580000000  0.5543500000000 1.0
C      1  0.3983020000000  0.4574640000000  0.5005610000000 1.0
C      1  0.5447530000000  0.4589440000000  0.4122930000000 1.0
C      1  0.5521840000000  0.5191170000000  0.4955400000000 1.0
C      1  0.4645400000000  0.5964650000000  0.5155910000000 1.0
C      1  0.5434120000000  0.5072530000000  0.5904430000000 1.0
C      1  0.5194100000000  0.4398100000000  0.5012500000000 1.0
C      1  0.5380880000000  0.3934070000000  0.5043050000000 1.0
C      1  0.4267700000000  0.4359080000000  0.4350170000000 1.0
C      1  0.5021260000000  0.4721490000000  0.3919070000000 1.0
C      1  0.4118860000000  0.5348690000000  0.4761310000000 1.0
C      1  0.4590440000000  0.5673140000000  0.5080920000000 1.0
C      1  0.5185620000000  0.4654290000000  0.5962760000000 1.0
C      1  0.4930980000000  0.5491670000000  0.4750080000000 1.0
C      1  0.4320080000000  0.4753840000000  0.5667390000000 1.0
C      1  0.4457150000000  0.5182350000000  0.5870540000000 1.0
C      1  0.4728830000000  0.5326990000000  0.5948410000000 1.0
C      1  0.4195230000000  0.4853540000000  0.4737820000000 1.0
C      1  0.5000710000000  0.6051190000000  0.5493950000000 1.0
C      1  0.5731160000000  0.5070030000000  0.4468160000000 1.0
END
