TITL C-951341-1326-317 6.13211077501271e-07 125000 -705.977187602632 0 0 114 (C1) n - 1
REM
REM in /home/bkarasulu/work/CARBON/AIRSS/Generating-Clusters/EDIP-Nigel-Params/with-SteepDescent/Only-C1/SD-CG/HFTN-CG
REM
REM
REM
REM
REM
REM ./C.cell (11c1c37f851c82e70ff6c80c92926a4b)
REM
REM compiler GCC version 9.2.1 20190827 (Red Hat 9.2.1-1)
REM options -cpp -mtune=generic -march=x86-64 -g -O0 -fpre-include=/usr/include/finclude/math-vector-fortran.h
REM seed 1831954712 1725782867 -1252743004 199103968 228852740 -596141620 1156632014 927555821 1204483337 -1818090210 15869172 1193692517 1541056881 376045975 -1144596878 -123938013 712108887 -2076232144 -1124394026 1472057392 -1934643815 -1780886601 816532108 -703451653 636217124 228003688 1079833913 1732742319 474732041 1666384458 384646541 1622455251 -2054034704
REM
CELL 1.54180   50.00000   50.00000   50.00000   90.00000   90.00000   90.00000
LATT -1
SFAC C  
C      1  0.4615350000000  0.5662840000000  0.4594890000000 1.0
C      1  0.4568600000000  0.4690280000000  0.5708470000000 1.0
C      1  0.4720540000000  0.5233350000000  0.5810560000000 1.0
C      1  0.5029010000000  0.4561440000000  0.5864240000000 1.0
C      1  0.5551360000000  0.5443420000000  0.5640600000000 1.0
C      1  0.5365460000000  0.4495300000000  0.5522010000000 1.0
C      1  0.4080580000000  0.5013190000000  0.4663730000000 1.0
C      1  0.4817860000000  0.5305870000000  0.4915390000000 1.0
C      1  0.5570320000000  0.4636340000000  0.4171860000000 1.0
C      1  0.5047910000000  0.4144490000000  0.5086080000000 1.0
C      1  0.5102430000000  0.5682500000000  0.4662060000000 1.0
C      1  0.4406920000000  0.5027580000000  0.5048750000000 1.0
C      1  0.6011290000000  0.5372240000000  0.5049420000000 1.0
C      1  0.5392230000000  0.5643870000000  0.4534220000000 1.0
C      1  0.4693650000000  0.4053530000000  0.4775430000000 1.0
C      1  0.4276350000000  0.5445570000000  0.4876270000000 1.0
C      1  0.4410610000000  0.4830830000000  0.5499980000000 1.0
C      1  0.5238640000000  0.5305030000000  0.5971300000000 1.0
C      1  0.5675510000000  0.4757020000000  0.4411430000000 1.0
C      1  0.4872990000000  0.4346630000000  0.5499850000000 1.0
C      1  0.5711060000000  0.5697440000000  0.5237530000000 1.0
C      1  0.5597760000000  0.5567380000000  0.4759390000000 1.0
C      1  0.5135890000000  0.4728350000000  0.5224560000000 1.0
C      1  0.4566510000000  0.4194530000000  0.5222520000000 1.0
C      1  0.4276470000000  0.4844940000000  0.4818740000000 1.0
C      1  0.5113610000000  0.5134180000000  0.4043970000000 1.0
C      1  0.5222110000000  0.4892470000000  0.3958880000000 1.0
C      1  0.5233500000000  0.4908070000000  0.5448730000000 1.0
C      1  0.4308940000000  0.5116730000000  0.5534870000000 1.0
C      1  0.5102340000000  0.4474190000000  0.4795960000000 1.0
C      1  0.5731420000000  0.5295560000000  0.5428000000000 1.0
C      1  0.4535370000000  0.5294250000000  0.5607680000000 1.0
C      1  0.4411760000000  0.4485400000000  0.4513740000000 1.0
C      1  0.4516900000000  0.5257890000000  0.4892040000000 1.0
C      1  0.4810840000000  0.4520120000000  0.4930860000000 1.0
C      1  0.4800750000000  0.4615600000000  0.4307420000000 1.0
C      1  0.4641020000000  0.5013660000000  0.4157360000000 1.0
C      1  0.4603250000000  0.4872070000000  0.5262670000000 1.0
C      1  0.5128240000000  0.4390980000000  0.5663000000000 1.0
C      1  0.3940570000000  0.5109890000000  0.5106060000000 1.0
C      1  0.5230460000000  0.5389490000000  0.5577190000000 1.0
C      1  0.4953270000000  0.5994080000000  0.5002970000000 1.0
C      1  0.4900370000000  0.5118520000000  0.4235110000000 1.0
C      1  0.5601820000000  0.4701560000000  0.4937990000000 1.0
C      1  0.5279180000000  0.5786360000000  0.5386780000000 1.0
C      1  0.4591270000000  0.5386950000000  0.4472740000000 1.0
C      1  0.4567240000000  0.5559390000000  0.5486260000000 1.0
C      1  0.5537080000000  0.5230100000000  0.5199140000000 1.0
C      1  0.5163800000000  0.4967430000000  0.4851590000000 1.0
C      1  0.5270850000000  0.4580180000000  0.4528290000000 1.0
C      1  0.5878300000000  0.5060960000000  0.5515910000000 1.0
C      1  0.5280210000000  0.5344580000000  0.4114310000000 1.0
C      1  0.4663140000000  0.4740650000000  0.4077410000000 1.0
C      1  0.5721980000000  0.5305450000000  0.4678280000000 1.0
C      1  0.4561590000000  0.4401860000000  0.5457070000000 1.0
C      1  0.5140950000000  0.5805950000000  0.4924710000000 1.0
C      1  0.5274310000000  0.4712080000000  0.4954670000000 1.0
C      1  0.4934890000000  0.5386370000000  0.5197830000000 1.0
C      1  0.4413790000000  0.5715200000000  0.4808250000000 1.0
C      1  0.4342680000000  0.4377830000000  0.4782060000000 1.0
C      1  0.5236950000000  0.5627760000000  0.5131810000000 1.0
C      1  0.4818100000000  0.5087930000000  0.5344220000000 1.0
C      1  0.4869300000000  0.5351500000000  0.4405330000000 1.0
C      1  0.5519690000000  0.5528510000000  0.5061940000000 1.0
C      1  0.5300500000000  0.4648550000000  0.4072350000000 1.0
C      1  0.5244070000000  0.5214030000000  0.4735720000000 1.0
C      1  0.4853700000000  0.4732670000000  0.5720340000000 1.0
C      1  0.5011020000000  0.5390730000000  0.4675610000000 1.0
C      1  0.5467650000000  0.5185530000000  0.4554250000000 1.0
C      1  0.5496270000000  0.5225920000000  0.5877670000000 1.0
C      1  0.5071280000000  0.5656820000000  0.5540140000000 1.0
C      1  0.4962360000000  0.4038020000000  0.4838810000000 1.0
C      1  0.4861770000000  0.4119180000000  0.5304450000000 1.0
C      1  0.4195900000000  0.5171200000000  0.5244500000000 1.0
C      1  0.5426870000000  0.5401870000000  0.4345230000000 1.0
C      1  0.4972430000000  0.4957740000000  0.5571900000000 1.0
C      1  0.4005480000000  0.5225910000000  0.4846360000000 1.0
C      1  0.5885910000000  0.4898280000000  0.5288580000000 1.0
C      1  0.4902920000000  0.5009270000000  0.4969330000000 1.0
C      1  0.5505700000000  0.4716920000000  0.5651330000000 1.0
C      1  0.5492540000000  0.4956580000000  0.5791290000000 1.0
C      1  0.4198830000000  0.5465020000000  0.5166630000000 1.0
C      1  0.5712620000000  0.4579970000000  0.4662080000000 1.0
C      1  0.5508580000000  0.4379630000000  0.4572530000000 1.0
C      1  0.5704990000000  0.4514320000000  0.5154430000000 1.0
C      1  0.4859950000000  0.5808360000000  0.4548600000000 1.0
C      1  0.5552780000000  0.5733600000000  0.5489550000000 1.0
C      1  0.4363470000000  0.5665700000000  0.5298010000000 1.0
C      1  0.4979000000000  0.5260410000000  0.5892880000000 1.0
C      1  0.4642470000000  0.4380720000000  0.4385990000000 1.0
C      1  0.5329860000000  0.4224410000000  0.5071970000000 1.0
C      1  0.4489980000000  0.5836580000000  0.5081850000000 1.0
C      1  0.4185090000000  0.5094390000000  0.4414190000000 1.0
C      1  0.5892260000000  0.4624200000000  0.5330910000000 1.0
C      1  0.4846190000000  0.4620160000000  0.5224710000000 1.0
C      1  0.5884710000000  0.5176870000000  0.4888670000000 1.0
C      1  0.4772000000000  0.5857330000000  0.5165400000000 1.0
C      1  0.5421070000000  0.4172510000000  0.4782600000000 1.0
C      1  0.4595900000000  0.4281880000000  0.4927710000000 1.0
C      1  0.4443830000000  0.4779140000000  0.4559020000000 1.0
C      1  0.5485730000000  0.4366010000000  0.5278290000000 1.0
C      1  0.4202040000000  0.4657250000000  0.5414300000000 1.0
C      1  0.5108570000000  0.4546320000000  0.4276160000000 1.0
C      1  0.5282300000000  0.5183650000000  0.5349020000000 1.0
C      1  0.4830730000000  0.5630230000000  0.5359180000000 1.0
C      1  0.5161090000000  0.4118370000000  0.4657820000000 1.0
C      1  0.4717610000000  0.4794540000000  0.4836510000000 1.0
C      1  0.4764820000000  0.4822590000000  0.4536590000000 1.0
C      1  0.4126180000000  0.4541560000000  0.5186540000000 1.0
C      1  0.5434890000000  0.4885920000000  0.4508800000000 1.0
C      1  0.5916890000000  0.5490700000000  0.5286300000000 1.0
C      1  0.4176800000000  0.4579210000000  0.4917540000000 1.0
C      1  0.4447110000000  0.5160820000000  0.4336570000000 1.0
C      1  0.5718160000000  0.4992700000000  0.5058430000000 1.0
END
