TITL C-951333-8791-559 7.6055284456765e-07 125000 -439.762594648399 0 0 73 (C1) n - 1
REM
REM in /home/bkarasulu/work/CARBON/AIRSS/Generating-Clusters/EDIP-Nigel-Params/with-SteepDescent/Only-C1/SD-CG/HFTN-CG
REM
REM
REM
REM
REM
REM ./C.cell (11c1c37f851c82e70ff6c80c92926a4b)
REM
REM compiler GCC version 9.2.1 20190827 (Red Hat 9.2.1-1)
REM options -cpp -mtune=generic -march=x86-64 -g -O0 -fpre-include=/usr/include/finclude/math-vector-fortran.h
REM seed 595905414 1384464860 -1369570355 1922702135 -1785478072 1142010972 -1587906470 1624987631 68517091 1094499836 -1661819841 278642932 905430678 -768586780 -1107900024 -1877502048 -990915368 -379637317 -325668264 -827700482 -1455552014 673909698 1551601419 1072616936 594008631 -1615100755 1813279118 830309409 803952900 565122947 893410843 -328106796 -680183711
REM
CELL 1.54180   50.00000   50.00000   50.00000   90.00000   90.00000   90.00000
LATT -1
SFAC C  
C      1  0.5177470000000  0.4903190000000  0.4203870000000 1.0
C      1  0.5616180000000  0.4769920000000  0.5042200000000 1.0
C      1  0.5118340000000  0.5584680000000  0.5447060000000 1.0
C      1  0.4902320000000  0.5577250000000  0.4466010000000 1.0
C      1  0.5673600000000  0.5206970000000  0.5072870000000 1.0
C      1  0.5304350000000  0.4474990000000  0.4398350000000 1.0
C      1  0.5247680000000  0.5161400000000  0.4309950000000 1.0
C      1  0.4752710000000  0.5171200000000  0.4637260000000 1.0
C      1  0.4251180000000  0.5578870000000  0.4803020000000 1.0
C      1  0.5573030000000  0.5357300000000  0.4628730000000 1.0
C      1  0.5205490000000  0.5126490000000  0.5819260000000 1.0
C      1  0.5352510000000  0.5518390000000  0.5252300000000 1.0
C      1  0.5234950000000  0.5024570000000  0.5361900000000 1.0
C      1  0.4952420000000  0.5324760000000  0.5024050000000 1.0
C      1  0.4305780000000  0.4655030000000  0.4777050000000 1.0
C      1  0.5251710000000  0.4732760000000  0.5504510000000 1.0
C      1  0.5324530000000  0.5216080000000  0.5576080000000 1.0
C      1  0.4241200000000  0.5359490000000  0.4962180000000 1.0
C      1  0.5186100000000  0.4979760000000  0.4868810000000 1.0
C      1  0.5530770000000  0.4669640000000  0.5458870000000 1.0
C      1  0.5251510000000  0.5744700000000  0.4771620000000 1.0
C      1  0.4520380000000  0.5101860000000  0.5594820000000 1.0
C      1  0.5589480000000  0.4853080000000  0.4482660000000 1.0
C      1  0.4531560000000  0.5597750000000  0.4776630000000 1.0
C      1  0.5116220000000  0.4522210000000  0.5664280000000 1.0
C      1  0.5071680000000  0.5376650000000  0.4356850000000 1.0
C      1  0.4874910000000  0.4691670000000  0.4289080000000 1.0
C      1  0.4640800000000  0.4507570000000  0.5033330000000 1.0
C      1  0.5620230000000  0.5179740000000  0.5516820000000 1.0
C      1  0.4663070000000  0.4389340000000  0.5539500000000 1.0
C      1  0.5590550000000  0.4675610000000  0.4731660000000 1.0
C      1  0.4592190000000  0.4249450000000  0.4747680000000 1.0
C      1  0.4947450000000  0.5147330000000  0.5270700000000 1.0
C      1  0.5507970000000  0.4528720000000  0.5201710000000 1.0
C      1  0.4768270000000  0.4374450000000  0.5280870000000 1.0
C      1  0.4828520000000  0.4522460000000  0.5723750000000 1.0
C      1  0.4494630000000  0.4960400000000  0.4445610000000 1.0
C      1  0.4749600000000  0.4779840000000  0.4952150000000 1.0
C      1  0.5210010000000  0.4331730000000  0.4842950000000 1.0
C      1  0.5011510000000  0.4491420000000  0.4437470000000 1.0
C      1  0.4310900000000  0.4813890000000  0.5255690000000 1.0
C      1  0.4608470000000  0.4702950000000  0.4399760000000 1.0
C      1  0.4348860000000  0.4598350000000  0.5076760000000 1.0
C      1  0.4642500000000  0.5555970000000  0.5463770000000 1.0
C      1  0.4806630000000  0.5583590000000  0.5036200000000 1.0
C      1  0.4660940000000  0.5448050000000  0.4564970000000 1.0
C      1  0.5688360000000  0.4909770000000  0.5402160000000 1.0
C      1  0.5001830000000  0.4841720000000  0.5034870000000 1.0
C      1  0.4850620000000  0.4803920000000  0.5674680000000 1.0
C      1  0.5475050000000  0.5123810000000  0.4484800000000 1.0
C      1  0.4511810000000  0.4512400000000  0.4612180000000 1.0
C      1  0.4382700000000  0.5067340000000  0.5347310000000 1.0
C      1  0.4937840000000  0.5029790000000  0.5835450000000 1.0
C      1  0.5005750000000  0.5784300000000  0.4635580000000 1.0
C      1  0.4458470000000  0.5239610000000  0.5111260000000 1.0
C      1  0.5268250000000  0.5769570000000  0.5074040000000 1.0
C      1  0.4584140000000  0.5500060000000  0.5201890000000 1.0
C      1  0.5042140000000  0.4318810000000  0.5279030000000 1.0
C      1  0.5624100000000  0.5390440000000  0.5298800000000 1.0
C      1  0.5323720000000  0.5479250000000  0.4700040000000 1.0
C      1  0.5756810000000  0.5325350000000  0.4833320000000 1.0
C      1  0.4872730000000  0.4160630000000  0.4753360000000 1.0
C      1  0.4936600000000  0.4452800000000  0.4726660000000 1.0
C      1  0.4992320000000  0.5769660000000  0.5210380000000 1.0
C      1  0.4357120000000  0.4943150000000  0.4706560000000 1.0
C      1  0.5050620000000  0.5223490000000  0.4764730000000 1.0
C      1  0.4882960000000  0.5383120000000  0.5505750000000 1.0
C      1  0.5246570000000  0.4415690000000  0.5118790000000 1.0
C      1  0.5431610000000  0.4431180000000  0.4662370000000 1.0
C      1  0.4742920000000  0.5223900000000  0.5734410000000 1.0
C      1  0.4589660000000  0.5033020000000  0.4874980000000 1.0
C      1  0.5419180000000  0.5018580000000  0.5067620000000 1.0
C      1  0.5404980000000  0.4727110000000  0.4277380000000 1.0
END
