TITL C-951338-5626-74 7.6890794986705e-09 125000 -291.400716020375 0 0 49 (C1) n - 1
REM
REM in /home/bkarasulu/work/CARBON/AIRSS/Generating-Clusters/EDIP-Nigel-Params/with-SteepDescent/Only-C1/SD-CG/HFTN-CG
REM
REM
REM
REM
REM
REM ./C.cell (11c1c37f851c82e70ff6c80c92926a4b)
REM
REM compiler GCC version 9.2.1 20190827 (Red Hat 9.2.1-1)
REM options -cpp -mtune=generic -march=x86-64 -g -O0 -fpre-include=/usr/include/finclude/math-vector-fortran.h
REM seed 1832902765 -1377724883 -307294070 1534219007 -155774382 1158420478 -1903028711 342414329 -1069806680 -232441701 284294565 314715458 -169635738 1899353492 921888863 -948213450 -104173580 -1529319620 -279825527 -237488324 -307887248 -685582159 1683022880 -2076943459 -1827175144 -1725749379 1732322941 -1573707169 -224381626 2032186656 -1059330593 -1184828522 1949584041
REM
CELL 1.54180   50.00000   50.00000   50.00000   90.00000   90.00000   90.00000
LATT -1
SFAC C  
C      1  0.5064770000000  0.4933750000000  0.5030420000000 1.0
C      1  0.4639520000000  0.4697190000000  0.5385610000000 1.0
C      1  0.5270410000000  0.5092070000000  0.5214310000000 1.0
C      1  0.4234490000000  0.5157550000000  0.4953870000000 1.0
C      1  0.5348240000000  0.4459330000000  0.5005650000000 1.0
C      1  0.4541940000000  0.4556190000000  0.4714290000000 1.0
C      1  0.5514700000000  0.4917270000000  0.5278480000000 1.0
C      1  0.5139690000000  0.4632300000000  0.4560870000000 1.0
C      1  0.4812680000000  0.5032890000000  0.4488910000000 1.0
C      1  0.4944480000000  0.4438570000000  0.4522250000000 1.0
C      1  0.5397680000000  0.4667390000000  0.5393160000000 1.0
C      1  0.5006840000000  0.4970710000000  0.5548830000000 1.0
C      1  0.5114470000000  0.5234010000000  0.5465970000000 1.0
C      1  0.4572150000000  0.5194880000000  0.5404540000000 1.0
C      1  0.5119840000000  0.5618560000000  0.4837120000000 1.0
C      1  0.5011050000000  0.5381550000000  0.4723630000000 1.0
C      1  0.4776260000000  0.5521760000000  0.5489890000000 1.0
C      1  0.5549080000000  0.5121840000000  0.4593880000000 1.0
C      1  0.4982780000000  0.5690480000000  0.5065510000000 1.0
C      1  0.5714670000000  0.4677710000000  0.4886950000000 1.0
C      1  0.4756950000000  0.4368410000000  0.4717600000000 1.0
C      1  0.4571580000000  0.4923580000000  0.4628460000000 1.0
C      1  0.5108110000000  0.4725360000000  0.5416730000000 1.0
C      1  0.5377260000000  0.5344600000000  0.5503250000000 1.0
C      1  0.4837480000000  0.5101560000000  0.4921170000000 1.0
C      1  0.5337440000000  0.5032200000000  0.4436750000000 1.0
C      1  0.4674850000000  0.4756360000000  0.4917810000000 1.0
C      1  0.4483900000000  0.4757530000000  0.5144540000000 1.0
C      1  0.4667710000000  0.5296700000000  0.5109180000000 1.0
C      1  0.4874380000000  0.4375460000000  0.4982770000000 1.0
C      1  0.4304010000000  0.4970170000000  0.5147260000000 1.0
C      1  0.4793490000000  0.5322600000000  0.4542050000000 1.0
C      1  0.5074080000000  0.4605790000000  0.4998300000000 1.0
C      1  0.4712680000000  0.4952310000000  0.5519150000000 1.0
C      1  0.4555160000000  0.5405920000000  0.5603690000000 1.0
C      1  0.5674860000000  0.4919030000000  0.5024330000000 1.0
C      1  0.5519260000000  0.5392020000000  0.5007510000000 1.0
C      1  0.5460540000000  0.4425880000000  0.5261200000000 1.0
C      1  0.5395510000000  0.5600050000000  0.4869830000000 1.0
C      1  0.4512330000000  0.5395250000000  0.4628310000000 1.0
C      1  0.5542010000000  0.4486650000000  0.4802600000000 1.0
C      1  0.4432200000000  0.5390840000000  0.4942640000000 1.0
C      1  0.5535640000000  0.5411100000000  0.5286110000000 1.0
C      1  0.4889100000000  0.4536490000000  0.5331680000000 1.0
C      1  0.4345520000000  0.5130040000000  0.4659670000000 1.0
C      1  0.5082050000000  0.4937150000000  0.4597200000000 1.0
C      1  0.5327590000000  0.4745630000000  0.4361890000000 1.0
C      1  0.4798160000000  0.5541930000000  0.5207920000000 1.0
C      1  0.5600410000000  0.5153360000000  0.4866230000000 1.0
END
