TITL C-951342-2639-592 -6.28865247723306e-06 125000 -756.554312596454 0 0 123 (C1) n - 1
REM
REM in /home/bkarasulu/work/CARBON/AIRSS/Generating-Clusters/EDIP-Nigel-Params/with-SteepDescent/Only-C1/SD-CG/HFTN-CG
REM
REM
REM
REM
REM
REM ./C.cell (11c1c37f851c82e70ff6c80c92926a4b)
REM
REM compiler GCC version 9.2.1 20190827 (Red Hat 9.2.1-1)
REM options -cpp -mtune=generic -march=x86-64 -g -O0 -fpre-include=/usr/include/finclude/math-vector-fortran.h
REM seed 144792537 -1870468335 642971466 -1625882623 1296416729 433860000 -1797139888 -1019952413 1559945321 906051741 -131080070 -1834837924 -188366806 1808661563 599802225 -127107027 -1263597159 2103522459 -1638860039 -1328944717 1294539377 -2021825855 1359733202 1260801233 320040966 82211435 -2096018126 -773336747 -21568922 609675463 294264783 1634997163 699759050
REM
CELL 1.54180   50.00000   50.00000   50.00000   90.00000   90.00000   90.00000
LATT -1
SFAC C  
C      1  0.5759640000000  0.5457480000000  0.4935530000000 1.0
C      1  0.4896210000000  0.5625850000000  0.5651090000000 1.0
C      1  0.5348470000000  0.5165110000000  0.4140260000000 1.0
C      1  0.5042950000000  0.5203270000000  0.5827360000000 1.0
C      1  0.5505350000000  0.5742490000000  0.4569490000000 1.0
C      1  0.5314900000000  0.4101620000000  0.4946370000000 1.0
C      1  0.5039450000000  0.4188550000000  0.4549010000000 1.0
C      1  0.6023760000000  0.5104960000000  0.5127780000000 1.0
C      1  0.4405860000000  0.4517000000000  0.5263130000000 1.0
C      1  0.4852940000000  0.5145920000000  0.4010060000000 1.0
C      1  0.5551400000000  0.5022160000000  0.5686110000000 1.0
C      1  0.5489990000000  0.4522340000000  0.5732460000000 1.0
C      1  0.4403160000000  0.4929080000000  0.4735990000000 1.0
C      1  0.4517900000000  0.4236940000000  0.5121770000000 1.0
C      1  0.4653510000000  0.5290790000000  0.4898460000000 1.0
C      1  0.5664790000000  0.4821610000000  0.4351120000000 1.0
C      1  0.5331240000000  0.4181340000000  0.4644140000000 1.0
C      1  0.4461520000000  0.5076410000000  0.4471020000000 1.0
C      1  0.5328570000000  0.5900480000000  0.5007640000000 1.0
C      1  0.3896310000000  0.5149630000000  0.4862600000000 1.0
C      1  0.4920820000000  0.5419630000000  0.4373720000000 1.0
C      1  0.3980900000000  0.5004280000000  0.4612520000000 1.0
C      1  0.4969640000000  0.4810400000000  0.5470340000000 1.0
C      1  0.4714550000000  0.4916830000000  0.4068450000000 1.0
C      1  0.4148410000000  0.5288430000000  0.5562990000000 1.0
C      1  0.4375720000000  0.5150510000000  0.4942640000000 1.0
C      1  0.4585820000000  0.5332120000000  0.5876310000000 1.0
C      1  0.4133810000000  0.5329370000000  0.4877920000000 1.0
C      1  0.5394580000000  0.5657330000000  0.4840340000000 1.0
C      1  0.4805520000000  0.4172310000000  0.5012390000000 1.0
C      1  0.4651100000000  0.5470270000000  0.5639780000000 1.0
C      1  0.5305390000000  0.5157930000000  0.5033590000000 1.0
C      1  0.5554260000000  0.5332370000000  0.5637480000000 1.0
C      1  0.5115360000000  0.3967240000000  0.5360410000000 1.0
C      1  0.5363170000000  0.5561190000000  0.5686360000000 1.0
C      1  0.5448850000000  0.4939460000000  0.4539580000000 1.0
C      1  0.4572210000000  0.5355170000000  0.5375420000000 1.0
C      1  0.4091600000000  0.4812740000000  0.5170890000000 1.0
C      1  0.5868790000000  0.4798750000000  0.4580620000000 1.0
C      1  0.5353050000000  0.4413700000000  0.4997730000000 1.0
C      1  0.5572210000000  0.4518550000000  0.4316780000000 1.0
C      1  0.5452320000000  0.4786240000000  0.4782080000000 1.0
C      1  0.4390900000000  0.4543280000000  0.5580310000000 1.0
C      1  0.5643640000000  0.5179100000000  0.4225390000000 1.0
C      1  0.5333780000000  0.4920470000000  0.3987000000000 1.0
C      1  0.4585340000000  0.4564680000000  0.4394310000000 1.0
C      1  0.5055880000000  0.4000750000000  0.5081810000000 1.0
C      1  0.4190230000000  0.5453980000000  0.4613670000000 1.0
C      1  0.4880190000000  0.5092780000000  0.4931860000000 1.0
C      1  0.5284190000000  0.4738580000000  0.5348190000000 1.0
C      1  0.5013980000000  0.5751240000000  0.5405610000000 1.0
C      1  0.5223910000000  0.5303270000000  0.5272000000000 1.0
C      1  0.4719560000000  0.5471260000000  0.5137520000000 1.0
C      1  0.4834620000000  0.5018110000000  0.5277450000000 1.0
C      1  0.4169340000000  0.5193820000000  0.4453460000000 1.0
C      1  0.5269250000000  0.4526470000000  0.4307540000000 1.0
C      1  0.4700110000000  0.4879050000000  0.5745950000000 1.0
C      1  0.5102650000000  0.5483950000000  0.5801350000000 1.0
C      1  0.4155720000000  0.4762870000000  0.4699600000000 1.0
C      1  0.4356040000000  0.4340280000000  0.4882930000000 1.0
C      1  0.5134410000000  0.5225200000000  0.4799280000000 1.0
C      1  0.4654100000000  0.5338980000000  0.4512200000000 1.0
C      1  0.4754760000000  0.4634370000000  0.5908610000000 1.0
C      1  0.5542590000000  0.4990070000000  0.5009900000000 1.0
C      1  0.4559030000000  0.5788160000000  0.4818780000000 1.0
C      1  0.5013580000000  0.4628020000000  0.6010150000000 1.0
C      1  0.4559540000000  0.4764110000000  0.5162290000000 1.0
C      1  0.5313190000000  0.5795520000000  0.5486110000000 1.0
C      1  0.5171750000000  0.4759950000000  0.4149500000000 1.0
C      1  0.5021120000000  0.5528040000000  0.5197820000000 1.0
C      1  0.5579990000000  0.4796960000000  0.5246830000000 1.0
C      1  0.5214840000000  0.4578800000000  0.4645100000000 1.0
C      1  0.5330530000000  0.5679700000000  0.4359020000000 1.0
C      1  0.5365860000000  0.4294580000000  0.5653530000000 1.0
C      1  0.5696420000000  0.4606160000000  0.4768990000000 1.0
C      1  0.4772860000000  0.5125550000000  0.5891470000000 1.0
C      1  0.4145520000000  0.4580410000000  0.4968970000000 1.0
C      1  0.4795680000000  0.4435310000000  0.4256000000000 1.0
C      1  0.5137060000000  0.5523640000000  0.4776000000000 1.0
C      1  0.5233240000000  0.4784170000000  0.6009790000000 1.0
C      1  0.5742410000000  0.5398120000000  0.5424150000000 1.0
C      1  0.4279900000000  0.5394240000000  0.5337650000000 1.0
C      1  0.4990550000000  0.4355400000000  0.5332050000000 1.0
C      1  0.5735430000000  0.5273260000000  0.4488720000000 1.0
C      1  0.5650980000000  0.5561060000000  0.5191860000000 1.0
C      1  0.5178320000000  0.4525540000000  0.5196870000000 1.0
C      1  0.4586920000000  0.5739210000000  0.5121060000000 1.0
C      1  0.4596170000000  0.4731840000000  0.4856240000000 1.0
C      1  0.5131450000000  0.4185330000000  0.5545760000000 1.0
C      1  0.5706450000000  0.4311460000000  0.5174400000000 1.0
C      1  0.4997640000000  0.4908220000000  0.4337610000000 1.0
C      1  0.4576150000000  0.4460780000000  0.4701150000000 1.0
C      1  0.5895480000000  0.5149080000000  0.5375280000000 1.0
C      1  0.5201270000000  0.5100020000000  0.4493620000000 1.0
C      1  0.5720380000000  0.5538850000000  0.4641890000000 1.0
C      1  0.5446160000000  0.4781460000000  0.5832070000000 1.0
C      1  0.5812640000000  0.5157080000000  0.4938750000000 1.0
C      1  0.4561390000000  0.4852530000000  0.4297190000000 1.0
C      1  0.4825040000000  0.4285240000000  0.4742390000000 1.0
C      1  0.5744430000000  0.4576110000000  0.5084700000000 1.0
C      1  0.5564150000000  0.4086810000000  0.5098380000000 1.0
C      1  0.5593640000000  0.4370490000000  0.4577760000000 1.0
C      1  0.5046630000000  0.5299170000000  0.4138610000000 1.0
C      1  0.4344600000000  0.4976580000000  0.5198580000000 1.0
C      1  0.4406210000000  0.4833620000000  0.5663790000000 1.0
C      1  0.4933490000000  0.4701450000000  0.4551100000000 1.0
C      1  0.5485580000000  0.5806570000000  0.5243380000000 1.0
C      1  0.4472480000000  0.5570150000000  0.4608360000000 1.0
C      1  0.4816950000000  0.5922910000000  0.5240460000000 1.0
C      1  0.4975820000000  0.5989170000000  0.5000920000000 1.0
C      1  0.4810270000000  0.5934130000000  0.4760780000000 1.0
C      1  0.4977910000000  0.5237500000000  0.5453810000000 1.0
C      1  0.4842620000000  0.4838230000000  0.4793890000000 1.0
C      1  0.5079280000000  0.5630820000000  0.4501980000000 1.0
C      1  0.4659640000000  0.4443830000000  0.5689960000000 1.0
C      1  0.5735120000000  0.4924930000000  0.5475770000000 1.0
C      1  0.5047060000000  0.4316240000000  0.4289720000000 1.0
C      1  0.4338610000000  0.5671620000000  0.5274930000000 1.0
C      1  0.4931700000000  0.5876900000000  0.4517700000000 1.0
C      1  0.4204750000000  0.5013570000000  0.5550330000000 1.0
C      1  0.4809210000000  0.4549120000000  0.5447850000000 1.0
C      1  0.5892580000000  0.5085540000000  0.4657930000000 1.0
C      1  0.3881090000000  0.4976380000000  0.5084600000000 1.0
END
