TITL C-950521-2237-179 -2.72874937488406e-06 125000 -779.550070104909 0 0 125 (C1) n - 1
REM
REM in /home/bkarasulu/work/CARBON/AIRSS/Generating-Clusters/EDIP-Nigel-Params/with-SteepDescent/Only-C1/SD-CG/HFTN-CG
REM
REM
REM
REM
REM
REM ./C.cell (11c1c37f851c82e70ff6c80c92926a4b)
REM
REM compiler GCC version 9.2.1 20190827 (Red Hat 9.2.1-1)
REM options -cpp -mtune=generic -march=x86-64 -g -O0 -fpre-include=/usr/include/finclude/math-vector-fortran.h
REM seed 262310212 -1059248345 -162066463 -234658377 657674364 29542073 -1122246621 -1399486829 290429030 687931428 -1402841167 1582624776 -1455280021 -1489311765 132766124 -2076077495 1087902368 -745263428 1459114973 -2132509442 1522118460 198554670 584903691 1158012976 -1097012182 -743526221 1396422190 312883826 994604995 718370658 -564472850 -570240387 -2090779742
REM
CELL 1.54180   50.00000   50.00000   50.00000   90.00000   90.00000   90.00000
LATT -1
SFAC C  
C      1  0.5557750000000  0.4339290000000  0.4297420000000 1.0
C      1  0.4586930000000  0.4571290000000  0.5785900000000 1.0
C      1  0.5259450000000  0.5292800000000  0.4794890000000 1.0
C      1  0.5050610000000  0.4363910000000  0.5645690000000 1.0
C      1  0.5282670000000  0.5810700000000  0.5434370000000 1.0
C      1  0.4197740000000  0.5308700000000  0.5304450000000 1.0
C      1  0.5554850000000  0.4911290000000  0.4555100000000 1.0
C      1  0.5457210000000  0.4257440000000  0.5344430000000 1.0
C      1  0.6032090000000  0.5095660000000  0.5378700000000 1.0
C      1  0.5653810000000  0.5466890000000  0.4506490000000 1.0
C      1  0.4735970000000  0.5201200000000  0.5870710000000 1.0
C      1  0.4637250000000  0.5837670000000  0.4618420000000 1.0
C      1  0.5026520000000  0.5694960000000  0.4952650000000 1.0
C      1  0.4280060000000  0.4643520000000  0.4447120000000 1.0
C      1  0.4289670000000  0.4369710000000  0.5109220000000 1.0
C      1  0.4847560000000  0.5655190000000  0.5579480000000 1.0
C      1  0.5660210000000  0.4736870000000  0.5658470000000 1.0
C      1  0.3983310000000  0.4593620000000  0.4845830000000 1.0
C      1  0.4919460000000  0.5047820000000  0.4350600000000 1.0
C      1  0.5696270000000  0.5427440000000  0.5252030000000 1.0
C      1  0.4319470000000  0.4563260000000  0.5660770000000 1.0
C      1  0.5964990000000  0.5126760000000  0.4605630000000 1.0
C      1  0.4712330000000  0.5361180000000  0.4827900000000 1.0
C      1  0.4192610000000  0.5519860000000  0.5104190000000 1.0
C      1  0.4364630000000  0.5406110000000  0.5560950000000 1.0
C      1  0.5768030000000  0.5532940000000  0.4970420000000 1.0
C      1  0.5000960000000  0.5205200000000  0.4901800000000 1.0
C      1  0.5733010000000  0.5004610000000  0.5746140000000 1.0
C      1  0.4011460000000  0.5003960000000  0.4602070000000 1.0
C      1  0.4950050000000  0.4800210000000  0.5402210000000 1.0
C      1  0.5766650000000  0.4471980000000  0.4988400000000 1.0
C      1  0.4899550000000  0.4016940000000  0.5353200000000 1.0
C      1  0.4941670000000  0.4650810000000  0.5698500000000 1.0
C      1  0.4220870000000  0.5554340000000  0.4622430000000 1.0
C      1  0.4814740000000  0.5976840000000  0.5223020000000 1.0
C      1  0.5007030000000  0.5265330000000  0.5853000000000 1.0
C      1  0.5166160000000  0.4902990000000  0.4259790000000 1.0
C      1  0.4765730000000  0.4571460000000  0.5292790000000 1.0
C      1  0.4845470000000  0.4510920000000  0.4292350000000 1.0
C      1  0.5078220000000  0.4336790000000  0.4351420000000 1.0
C      1  0.5303790000000  0.4744820000000  0.4495660000000 1.0
C      1  0.5752980000000  0.5313720000000  0.4740000000000 1.0
C      1  0.4233280000000  0.4804090000000  0.5532260000000 1.0
C      1  0.4776210000000  0.5026420000000  0.5303520000000 1.0
C      1  0.4767130000000  0.6052360000000  0.4742240000000 1.0
C      1  0.5102060000000  0.5450740000000  0.4336010000000 1.0
C      1  0.4827080000000  0.5542100000000  0.5152740000000 1.0
C      1  0.4025530000000  0.4709060000000  0.4594190000000 1.0
C      1  0.5348680000000  0.4208190000000  0.4820470000000 1.0
C      1  0.4071240000000  0.5074600000000  0.5158320000000 1.0
C      1  0.5340160000000  0.4361630000000  0.5609360000000 1.0
C      1  0.5903150000000  0.5131790000000  0.4320790000000 1.0
C      1  0.4578600000000  0.4932980000000  0.5124860000000 1.0
C      1  0.4394320000000  0.5761950000000  0.4758670000000 1.0
C      1  0.4578260000000  0.5089780000000  0.4702040000000 1.0
C      1  0.4630280000000  0.4410160000000  0.5511780000000 1.0
C      1  0.5604990000000  0.5120660000000  0.4345120000000 1.0
C      1  0.5162990000000  0.4695730000000  0.4808240000000 1.0
C      1  0.4759190000000  0.4628470000000  0.4564650000000 1.0
C      1  0.4481070000000  0.4576970000000  0.4671050000000 1.0
C      1  0.5524780000000  0.5111790000000  0.4806990000000 1.0
C      1  0.4541190000000  0.5384630000000  0.4234920000000 1.0
C      1  0.4118460000000  0.4802940000000  0.5262420000000 1.0
C      1  0.5785250000000  0.4637530000000  0.5430100000000 1.0
C      1  0.4811840000000  0.4928770000000  0.4596630000000 1.0
C      1  0.4570690000000  0.5625210000000  0.5498880000000 1.0
C      1  0.4722490000000  0.4937400000000  0.4159730000000 1.0
C      1  0.4949680000000  0.5246470000000  0.5193800000000 1.0
C      1  0.5594130000000  0.4371840000000  0.4770400000000 1.0
C      1  0.5316150000000  0.5687410000000  0.5069440000000 1.0
C      1  0.4698590000000  0.4112390000000  0.5544450000000 1.0
C      1  0.5267890000000  0.4298130000000  0.5101070000000 1.0
C      1  0.5790010000000  0.5149270000000  0.5246960000000 1.0
C      1  0.5276250000000  0.4605640000000  0.5078300000000 1.0
C      1  0.4796850000000  0.4397430000000  0.5051480000000 1.0
C      1  0.4536740000000  0.4241780000000  0.4708690000000 1.0
C      1  0.4779620000000  0.4102880000000  0.4638400000000 1.0
C      1  0.4333160000000  0.5347700000000  0.4440090000000 1.0
C      1  0.5045880000000  0.4242580000000  0.4637700000000 1.0
C      1  0.5560180000000  0.5468190000000  0.5685060000000 1.0
C      1  0.5714030000000  0.4418130000000  0.4512590000000 1.0
C      1  0.5649800000000  0.4952520000000  0.5075870000000 1.0
C      1  0.4986350000000  0.4189380000000  0.5139320000000 1.0
C      1  0.4551990000000  0.5806180000000  0.5258580000000 1.0
C      1  0.4418200000000  0.5019700000000  0.5559880000000 1.0
C      1  0.5246790000000  0.4955950000000  0.5423480000000 1.0
C      1  0.5205640000000  0.5533810000000  0.4619750000000 1.0
C      1  0.5051600000000  0.5521070000000  0.5733380000000 1.0
C      1  0.4033130000000  0.5144780000000  0.4868470000000 1.0
C      1  0.4889680000000  0.4701690000000  0.4078780000000 1.0
C      1  0.5248540000000  0.5352080000000  0.4118280000000 1.0
C      1  0.4445850000000  0.5644110000000  0.5027310000000 1.0
C      1  0.4474090000000  0.5198250000000  0.5773880000000 1.0
C      1  0.4939370000000  0.4495610000000  0.4773170000000 1.0
C      1  0.4469710000000  0.4864140000000  0.4872530000000 1.0
C      1  0.4177110000000  0.5109270000000  0.4378240000000 1.0
C      1  0.4937740000000  0.5982460000000  0.4952280000000 1.0
C      1  0.5846320000000  0.4670630000000  0.4482650000000 1.0
C      1  0.4994670000000  0.4934760000000  0.4818910000000 1.0
C      1  0.5317260000000  0.5630400000000  0.5670120000000 1.0
C      1  0.4527130000000  0.4275880000000  0.4993270000000 1.0
C      1  0.4797770000000  0.5584260000000  0.4624430000000 1.0
C      1  0.5369460000000  0.5104690000000  0.4153050000000 1.0
C      1  0.5778440000000  0.5545770000000  0.5510420000000 1.0
C      1  0.5392290000000  0.5466520000000  0.5277200000000 1.0
C      1  0.5979460000000  0.5095160000000  0.5644930000000 1.0
C      1  0.4346990000000  0.4886580000000  0.4267040000000 1.0
C      1  0.4542950000000  0.5150870000000  0.4058340000000 1.0
C      1  0.5219950000000  0.5220860000000  0.5288980000000 1.0
C      1  0.5554290000000  0.5724250000000  0.4884630000000 1.0
C      1  0.4083800000000  0.4557420000000  0.5101810000000 1.0
C      1  0.4918140000000  0.4122050000000  0.5729230000000 1.0
C      1  0.5704830000000  0.4413170000000  0.5272740000000 1.0
C      1  0.5191250000000  0.4784240000000  0.5824450000000 1.0
C      1  0.5322790000000  0.4492820000000  0.4320040000000 1.0
C      1  0.5965110000000  0.4834410000000  0.4690490000000 1.0
C      1  0.5863630000000  0.4760070000000  0.4963610000000 1.0
C      1  0.4987560000000  0.5850780000000  0.5426600000000 1.0
C      1  0.5461070000000  0.4775250000000  0.5266650000000 1.0
C      1  0.5398850000000  0.4637630000000  0.5683030000000 1.0
C      1  0.5235590000000  0.5078540000000  0.5795520000000 1.0
C      1  0.5473130000000  0.5667400000000  0.4602650000000 1.0
C      1  0.4807780000000  0.5473810000000  0.4345300000000 1.0
C      1  0.4069810000000  0.5433510000000  0.4851710000000 1.0
C      1  0.5516220000000  0.5194470000000  0.5789990000000 1.0
END
