TITL C-950527-2551-313 -7.83471201504593e-07 125000 -369.916279500187 0 0 60 (C1) n - 1
REM
REM in /home/bkarasulu/work/CARBON/AIRSS/Generating-Clusters/EDIP-Nigel-Params/with-SteepDescent/Only-C1/SD-CG/HFTN-CG
REM
REM
REM
REM
REM
REM ./C.cell (11c1c37f851c82e70ff6c80c92926a4b)
REM
REM compiler GCC version 9.2.1 20190827 (Red Hat 9.2.1-1)
REM options -cpp -mtune=generic -march=x86-64 -g -O0 -fpre-include=/usr/include/finclude/math-vector-fortran.h
REM seed -589903372 -1997742044 -975596803 -2032168179 700630589 -988542682 1346371866 -996762915 -158188172 -609863282 1625105827 1331737745 -689005722 1171243770 -674611480 -1503076501 -824580557 -1634738123 -357306739 2073521965 15043290 -2089822130 -1308481531 1940559812 113794662 1678224666 -2063360025 -469065709 349775692 -597752016 602050007 1328350608 -1086657509
REM
CELL 1.54180   50.00000   50.00000   50.00000   90.00000   90.00000   90.00000
LATT -1
SFAC C  
C      1  0.4337530000000  0.5017890000000  0.4936430000000 1.0
C      1  0.5273760000000  0.4911910000000  0.5839870000000 1.0
C      1  0.5049250000000  0.5667950000000  0.4822130000000 1.0
C      1  0.4825260000000  0.5461450000000  0.4394040000000 1.0
C      1  0.4781670000000  0.5651530000000  0.4962990000000 1.0
C      1  0.5260390000000  0.5595010000000  0.5029960000000 1.0
C      1  0.5129930000000  0.5604320000000  0.5303730000000 1.0
C      1  0.5566050000000  0.5167150000000  0.4763030000000 1.0
C      1  0.4465720000000  0.4873350000000  0.4701350000000 1.0
C      1  0.4591520000000  0.5367180000000  0.4558690000000 1.0
C      1  0.4560940000000  0.5474400000000  0.4843150000000 1.0
C      1  0.4679140000000  0.5407200000000  0.5435140000000 1.0
C      1  0.4811310000000  0.5255240000000  0.5657010000000 1.0
C      1  0.4895020000000  0.5233430000000  0.4200180000000 1.0
C      1  0.4774440000000  0.4962450000000  0.5688100000000 1.0
C      1  0.4679070000000  0.4643100000000  0.5503980000000 1.0
C      1  0.5367810000000  0.5293400000000  0.4308740000000 1.0
C      1  0.5313460000000  0.5557190000000  0.4401940000000 1.0
C      1  0.5073860000000  0.4433190000000  0.5005130000000 1.0
C      1  0.5198900000000  0.5117740000000  0.5337590000000 1.0
C      1  0.5457500000000  0.4716240000000  0.4969170000000 1.0
C      1  0.5145320000000  0.4740880000000  0.5000630000000 1.0
C      1  0.5638690000000  0.4960040000000  0.4967670000000 1.0
C      1  0.4442740000000  0.5299750000000  0.5307000000000 1.0
C      1  0.4834730000000  0.5601380000000  0.5260260000000 1.0
C      1  0.5191940000000  0.4761140000000  0.4489110000000 1.0
C      1  0.4904650000000  0.5068600000000  0.4754690000000 1.0
C      1  0.4596450000000  0.4524620000000  0.5036800000000 1.0
C      1  0.5289910000000  0.4338600000000  0.5201570000000 1.0
C      1  0.4301030000000  0.5083040000000  0.5422220000000 1.0
C      1  0.4826520000000  0.5115230000000  0.5030770000000 1.0
C      1  0.4765170000000  0.4979060000000  0.4301920000000 1.0
C      1  0.5139910000000  0.5248260000000  0.4700650000000 1.0
C      1  0.5022560000000  0.4806040000000  0.4742440000000 1.0
C      1  0.4535090000000  0.5233880000000  0.5031430000000 1.0
C      1  0.4520710000000  0.4687170000000  0.5261330000000 1.0
C      1  0.4620830000000  0.4628670000000  0.4764280000000 1.0
C      1  0.5153020000000  0.4419200000000  0.5461850000000 1.0
C      1  0.5074130000000  0.5506970000000  0.4565960000000 1.0
C      1  0.5623630000000  0.5112680000000  0.5213330000000 1.0
C      1  0.5531420000000  0.4489730000000  0.5141890000000 1.0
C      1  0.5002890000000  0.4797370000000  0.5766760000000 1.0
C      1  0.4850870000000  0.4409170000000  0.5426380000000 1.0
C      1  0.5458620000000  0.4810740000000  0.5627140000000 1.0
C      1  0.4660210000000  0.5069400000000  0.4570040000000 1.0
C      1  0.5362760000000  0.5104680000000  0.4541080000000 1.0
C      1  0.5062090000000  0.5366080000000  0.5726900000000 1.0
C      1  0.5309090000000  0.4491520000000  0.4568440000000 1.0
C      1  0.5069230000000  0.4367160000000  0.4700060000000 1.0
C      1  0.5020950000000  0.4954670000000  0.5190420000000 1.0
C      1  0.5523950000000  0.4526660000000  0.4757180000000 1.0
C      1  0.4815380000000  0.4365690000000  0.5134960000000 1.0
C      1  0.4827180000000  0.4516030000000  0.4562120000000 1.0
C      1  0.4930310000000  0.4724590000000  0.4319700000000 1.0
C      1  0.4313420000000  0.4886260000000  0.5214810000000 1.0
C      1  0.5384800000000  0.5316110000000  0.4992630000000 1.0
C      1  0.5603240000000  0.4979440000000  0.5457090000000 1.0
C      1  0.5168690000000  0.5216360000000  0.4129260000000 1.0
C      1  0.5182460000000  0.4713210000000  0.5517250000000 1.0
C      1  0.5202870000000  0.5368610000000  0.5479630000000 1.0
END
