TITL C-951337-3020-316 -1.45228187328054e-06 125000 -849.603393055278 0 0 135 (C1) n - 1
REM
REM in /home/bkarasulu/work/CARBON/AIRSS/Generating-Clusters/EDIP-Nigel-Params/with-SteepDescent/Only-C1/SD-CG/HFTN-CG
REM
REM
REM
REM
REM
REM ./C.cell (11c1c37f851c82e70ff6c80c92926a4b)
REM
REM compiler GCC version 9.2.1 20190827 (Red Hat 9.2.1-1)
REM options -cpp -mtune=generic -march=x86-64 -g -O0 -fpre-include=/usr/include/finclude/math-vector-fortran.h
REM seed 853020058 -1155697447 1247329395 -1988280996 1381607207 1524088951 1464385578 -1501095690 670349179 456310237 1877371904 -360426567 -1301298714 443559990 -1949040668 992478998 -1509921699 -1953690698 -855362093 92174400 -64290034 227678307 -1236505663 -127502055 -1298737177 426337890 -11374202 400444820 107015727 -909496285 497240980 514902256 -1740299688
REM
CELL 1.54180   50.00000   50.00000   50.00000   90.00000   90.00000   90.00000
LATT -1
SFAC C  
C      1  0.4520780000000  0.5860560000000  0.5439190000000 1.0
C      1  0.4256940000000  0.5113930000000  0.5219130000000 1.0
C      1  0.5038230000000  0.4279760000000  0.4379050000000 1.0
C      1  0.4628880000000  0.4642830000000  0.5360320000000 1.0
C      1  0.4787040000000  0.4410690000000  0.4305380000000 1.0
C      1  0.5046880000000  0.4334550000000  0.5699090000000 1.0
C      1  0.5037180000000  0.4647810000000  0.5068330000000 1.0
C      1  0.4754340000000  0.5564940000000  0.5442500000000 1.0
C      1  0.5062000000000  0.4983370000000  0.4709120000000 1.0
C      1  0.5728850000000  0.4703690000000  0.5621450000000 1.0
C      1  0.4229550000000  0.5483190000000  0.4566290000000 1.0
C      1  0.5340510000000  0.4141440000000  0.5222520000000 1.0
C      1  0.5110210000000  0.4936570000000  0.4999060000000 1.0
C      1  0.4428000000000  0.5248180000000  0.5781950000000 1.0
C      1  0.4622450000000  0.5841840000000  0.4937280000000 1.0
C      1  0.5502840000000  0.5151930000000  0.4474200000000 1.0
C      1  0.5043510000000  0.5150410000000  0.5186970000000 1.0
C      1  0.4929160000000  0.4541690000000  0.5338010000000 1.0
C      1  0.4279480000000  0.5342430000000  0.4309320000000 1.0
C      1  0.5485570000000  0.5754520000000  0.5243810000000 1.0
C      1  0.4755010000000  0.4306460000000  0.5675040000000 1.0
C      1  0.5133240000000  0.5794060000000  0.4346180000000 1.0
C      1  0.5273300000000  0.4412050000000  0.4268690000000 1.0
C      1  0.5475030000000  0.4684240000000  0.5424890000000 1.0
C      1  0.4647220000000  0.4206640000000  0.5421210000000 1.0
C      1  0.4813280000000  0.4632330000000  0.4883440000000 1.0
C      1  0.5514040000000  0.4228790000000  0.4795810000000 1.0
C      1  0.4367810000000  0.4369950000000  0.4967610000000 1.0
C      1  0.5261190000000  0.4857000000000  0.4017470000000 1.0
C      1  0.5000990000000  0.5632110000000  0.5286980000000 1.0
C      1  0.5830990000000  0.4778040000000  0.4372700000000 1.0
C      1  0.5843530000000  0.5124130000000  0.5453670000000 1.0
C      1  0.5099550000000  0.5961870000000  0.5470430000000 1.0
C      1  0.5114040000000  0.5772630000000  0.4727990000000 1.0
C      1  0.5345770000000  0.5357160000000  0.4329020000000 1.0
C      1  0.4306570000000  0.4988390000000  0.5737650000000 1.0
C      1  0.5579310000000  0.4236610000000  0.5077720000000 1.0
C      1  0.4557980000000  0.4297610000000  0.4747070000000 1.0
C      1  0.4615220000000  0.4433030000000  0.5894060000000 1.0
C      1  0.5083000000000  0.5540100000000  0.5823000000000 1.0
C      1  0.5968190000000  0.4752390000000  0.4878800000000 1.0
C      1  0.5039490000000  0.5423100000000  0.5078970000000 1.0
C      1  0.4652030000000  0.4848790000000  0.5138810000000 1.0
C      1  0.5621220000000  0.4893220000000  0.5828220000000 1.0
C      1  0.5764330000000  0.4668800000000  0.4653880000000 1.0
C      1  0.4666970000000  0.5285960000000  0.4614590000000 1.0
C      1  0.5724020000000  0.4587710000000  0.4172810000000 1.0
C      1  0.5403910000000  0.5921240000000  0.5016000000000 1.0
C      1  0.5503610000000  0.4770890000000  0.4769920000000 1.0
C      1  0.4018780000000  0.4667910000000  0.5122070000000 1.0
C      1  0.5014580000000  0.5028710000000  0.3993380000000 1.0
C      1  0.5269640000000  0.4876120000000  0.5539700000000 1.0
C      1  0.5169080000000  0.4582230000000  0.4056710000000 1.0
C      1  0.5810960000000  0.4710630000000  0.5134660000000 1.0
C      1  0.5064450000000  0.5293320000000  0.4334540000000 1.0
C      1  0.5737780000000  0.5371550000000  0.4757580000000 1.0
C      1  0.5760730000000  0.4428450000000  0.5170420000000 1.0
C      1  0.5699140000000  0.5152250000000  0.5716340000000 1.0
C      1  0.5567620000000  0.4380970000000  0.4311790000000 1.0
C      1  0.4770830000000  0.5088450000000  0.5288780000000 1.0
C      1  0.5551870000000  0.4895810000000  0.4035920000000 1.0
C      1  0.5531170000000  0.5362510000000  0.5795170000000 1.0
C      1  0.4114530000000  0.5316460000000  0.5040230000000 1.0
C      1  0.5748640000000  0.5277550000000  0.5208870000000 1.0
C      1  0.5189080000000  0.3969970000000  0.5025020000000 1.0
C      1  0.4972320000000  0.5264130000000  0.4625770000000 1.0
C      1  0.4959750000000  0.6058150000000  0.5235010000000 1.0
C      1  0.4145950000000  0.4970220000000  0.5476900000000 1.0
C      1  0.4075270000000  0.4695090000000  0.5395780000000 1.0
C      1  0.5679460000000  0.4367690000000  0.4593390000000 1.0
C      1  0.5275170000000  0.5130670000000  0.5366750000000 1.0
C      1  0.4689090000000  0.5927920000000  0.5204380000000 1.0
C      1  0.5084450000000  0.4562900000000  0.5895950000000 1.0
C      1  0.4857070000000  0.5088490000000  0.6013850000000 1.0
C      1  0.4689560000000  0.4835040000000  0.6062190000000 1.0
C      1  0.5168510000000  0.5097000000000  0.5991530000000 1.0
C      1  0.5334360000000  0.4935780000000  0.4599210000000 1.0
C      1  0.4573710000000  0.5272690000000  0.4318170000000 1.0
C      1  0.4826720000000  0.4574700000000  0.6051050000000 1.0
C      1  0.6044030000000  0.5020300000000  0.4888480000000 1.0
C      1  0.4874640000000  0.4592100000000  0.4090400000000 1.0
C      1  0.5441250000000  0.5292950000000  0.4833080000000 1.0
C      1  0.4582400000000  0.4864760000000  0.4549650000000 1.0
C      1  0.5479850000000  0.4415450000000  0.5544180000000 1.0
C      1  0.4464750000000  0.5091300000000  0.4764190000000 1.0
C      1  0.5522000000000  0.5904480000000  0.4765210000000 1.0
C      1  0.5891480000000  0.4836400000000  0.5405800000000 1.0
C      1  0.5138380000000  0.6034600000000  0.5004080000000 1.0
C      1  0.4798860000000  0.4995170000000  0.5559700000000 1.0
C      1  0.5689770000000  0.5018040000000  0.4270600000000 1.0
C      1  0.4315470000000  0.5470850000000  0.5647040000000 1.0
C      1  0.4875050000000  0.4165520000000  0.5271250000000 1.0
C      1  0.4671660000000  0.5790000000000  0.4500800000000 1.0
C      1  0.4358880000000  0.5486520000000  0.5178300000000 1.0
C      1  0.4576960000000  0.4971160000000  0.4257230000000 1.0
C      1  0.5925480000000  0.5263500000000  0.4958950000000 1.0
C      1  0.5368190000000  0.5635410000000  0.4397830000000 1.0
C      1  0.4864820000000  0.5681280000000  0.4310630000000 1.0
C      1  0.4447870000000  0.5664430000000  0.4652940000000 1.0
C      1  0.4838740000000  0.5472260000000  0.5709710000000 1.0
C      1  0.4185690000000  0.5240510000000  0.4747940000000 1.0
C      1  0.4316150000000  0.5648770000000  0.5427310000000 1.0
C      1  0.4854640000000  0.4777500000000  0.4639940000000 1.0
C      1  0.4801760000000  0.4128150000000  0.4788200000000 1.0
C      1  0.5683790000000  0.5556530000000  0.5256740000000 1.0
C      1  0.4306300000000  0.4855690000000  0.4207090000000 1.0
C      1  0.5488800000000  0.5134660000000  0.5123160000000 1.0
C      1  0.4543970000000  0.4433810000000  0.4480550000000 1.0
C      1  0.4408920000000  0.4329640000000  0.5278470000000 1.0
C      1  0.4965400000000  0.5313080000000  0.3964300000000 1.0
C      1  0.5531880000000  0.4829500000000  0.5067180000000 1.0
C      1  0.5285840000000  0.4044380000000  0.4750000000000 1.0
C      1  0.4893980000000  0.4008860000000  0.5039790000000 1.0
C      1  0.4125670000000  0.5074860000000  0.4312240000000 1.0
C      1  0.4058790000000  0.5002980000000  0.4601020000000 1.0
C      1  0.4287940000000  0.4520610000000  0.5471260000000 1.0
C      1  0.5592420000000  0.5738970000000  0.4552900000000 1.0
C      1  0.4412440000000  0.4949190000000  0.5030230000000 1.0
C      1  0.4784370000000  0.4868460000000  0.4065760000000 1.0
C      1  0.5309360000000  0.5770960000000  0.5464630000000 1.0
C      1  0.4728810000000  0.5206730000000  0.5770500000000 1.0
C      1  0.4990800000000  0.4754230000000  0.5571940000000 1.0
C      1  0.5275580000000  0.5358800000000  0.5908570000000 1.0
C      1  0.4156750000000  0.4565410000000  0.4901930000000 1.0
C      1  0.4614530000000  0.5349220000000  0.5288550000000 1.0
C      1  0.5247460000000  0.4272350000000  0.5482260000000 1.0
C      1  0.5145480000000  0.5458940000000  0.4809840000000 1.0
C      1  0.5818150000000  0.5580560000000  0.4588000000000 1.0
C      1  0.4305170000000  0.4620740000000  0.4415900000000 1.0
C      1  0.4449440000000  0.4777000000000  0.5889390000000 1.0
C      1  0.4764680000000  0.5451240000000  0.4138980000000 1.0
C      1  0.4177520000000  0.4731680000000  0.4658310000000 1.0
C      1  0.4821870000000  0.5887550000000  0.4730010000000 1.0
C      1  0.5311320000000  0.4865500000000  0.5854540000000 1.0
C      1  0.5040300000000  0.4143480000000  0.4625880000000 1.0
END
