TITL C-951341-1326-306 -7.82006958828781e-07 125000 -236.321140478815 0 0 39 (C1) n - 1
REM
REM in /home/bkarasulu/work/CARBON/AIRSS/Generating-Clusters/EDIP-Nigel-Params/with-SteepDescent/Only-C1/SD-CG/HFTN-CG
REM
REM
REM
REM
REM
REM ./C.cell (11c1c37f851c82e70ff6c80c92926a4b)
REM
REM compiler GCC version 9.2.1 20190827 (Red Hat 9.2.1-1)
REM options -cpp -mtune=generic -march=x86-64 -g -O0 -fpre-include=/usr/include/finclude/math-vector-fortran.h
REM seed 973307058 -647592275 -562088581 -1645947009 -1428396684 1992316432 -1246215896 789208021 -485213980 467971446 -384371995 1467402 289570534 203690223 -267716227 769321440 1494164459 -1290830655 -465714204 -318259432 426659784 -200270588 -860464162 1819452478 1130900219 423797839 -145001598 456039152 1258949871 -921190289 -1646476234 1041024142 1787344796
REM
CELL 1.54180   50.00000   50.00000   50.00000   90.00000   90.00000   90.00000
LATT -1
SFAC C  
C      1  0.4784120000000  0.4495350000000  0.5307120000000 1.0
C      1  0.4808690000000  0.4888640000000  0.4523210000000 1.0
C      1  0.4364980000000  0.4819650000000  0.5259690000000 1.0
C      1  0.4747460000000  0.4599150000000  0.5050110000000 1.0
C      1  0.4964300000000  0.5351010000000  0.4348270000000 1.0
C      1  0.5173880000000  0.4858620000000  0.5141500000000 1.0
C      1  0.5625100000000  0.5450360000000  0.5036350000000 1.0
C      1  0.5014080000000  0.5339770000000  0.4831370000000 1.0
C      1  0.4848190000000  0.5405240000000  0.4597410000000 1.0
C      1  0.4593060000000  0.5375450000000  0.5121090000000 1.0
C      1  0.5026250000000  0.5288350000000  0.5346010000000 1.0
C      1  0.4622980000000  0.4920520000000  0.5635950000000 1.0
C      1  0.4890910000000  0.4860370000000  0.5570280000000 1.0
C      1  0.5222990000000  0.4522750000000  0.5483380000000 1.0
C      1  0.5597340000000  0.4645710000000  0.5164590000000 1.0
C      1  0.5030760000000  0.4785040000000  0.4657350000000 1.0
C      1  0.5506290000000  0.5251450000000  0.5192160000000 1.0
C      1  0.5353800000000  0.4686850000000  0.5299150000000 1.0
C      1  0.5301580000000  0.5247090000000  0.4775830000000 1.0
C      1  0.5390540000000  0.5047800000000  0.5007610000000 1.0
C      1  0.4977490000000  0.4999940000000  0.5323970000000 1.0
C      1  0.5301370000000  0.5342720000000  0.5351840000000 1.0
C      1  0.4886070000000  0.5374010000000  0.5099430000000 1.0
C      1  0.4426920000000  0.5009280000000  0.5455740000000 1.0
C      1  0.4471480000000  0.5263370000000  0.5346890000000 1.0
C      1  0.5588530000000  0.4828050000000  0.4947690000000 1.0
C      1  0.5511420000000  0.4723280000000  0.4701800000000 1.0
C      1  0.5300780000000  0.4830000000000  0.4547480000000 1.0
C      1  0.4457330000000  0.5384770000000  0.4877930000000 1.0
C      1  0.4504600000000  0.4758460000000  0.5025590000000 1.0
C      1  0.4946580000000  0.4571300000000  0.5524180000000 1.0
C      1  0.5484770000000  0.5469720000000  0.4804990000000 1.0
C      1  0.4565700000000  0.5007380000000  0.4590590000000 1.0
C      1  0.5193060000000  0.5224310000000  0.4288380000000 1.0
C      1  0.5022570000000  0.4662210000000  0.4932440000000 1.0
C      1  0.5157710000000  0.4425620000000  0.4918370000000 1.0
C      1  0.5342430000000  0.5117270000000  0.4499880000000 1.0
C      1  0.4569980000000  0.5303050000000  0.4631430000000 1.0
C      1  0.4423920000000  0.4866110000000  0.4782950000000 1.0
END
