TITL C-950525-1983-29 -8.0236265352908e-07 125000 -1095.66925922537 0 0 175 (C1) n - 1
REM
REM in /home/bkarasulu/work/CARBON/AIRSS/Generating-Clusters/EDIP-Nigel-Params/with-SteepDescent/Only-C1/SD-CG/HFTN-CG
REM
REM
REM
REM
REM
REM ./C.cell (11c1c37f851c82e70ff6c80c92926a4b)
REM
REM compiler GCC version 9.2.1 20190827 (Red Hat 9.2.1-1)
REM options -cpp -mtune=generic -march=x86-64 -g -O0 -fpre-include=/usr/include/finclude/math-vector-fortran.h
REM seed 928492851 804365408 -1676269681 -1034753218 -229340590 -512999701 2090968368 -332715047 -1876648526 1875905279 -1066632921 -1299637189 -509937086 390710983 -1514481757 -875620577 -407979322 2016040744 1643628563 1266539192 -1032896666 -1143482 -941016547 847867426 -375801263 -1408497601 -1614920953 -1707073386 959042479 -970346703 526728763 -189285794 -1240976422
REM
CELL 1.54180   50.00000   50.00000   50.00000   90.00000   90.00000   90.00000
LATT -1
SFAC C  
C      1  0.5485210000000  0.4730440000000  0.5444200000000 1.0
C      1  0.5507390000000  0.4502490000000  0.4029490000000 1.0
C      1  0.4174730000000  0.4455720000000  0.5457920000000 1.0
C      1  0.5029680000000  0.4508960000000  0.5447390000000 1.0
C      1  0.5572180000000  0.4893930000000  0.5221280000000 1.0
C      1  0.5663300000000  0.5695690000000  0.4337800000000 1.0
C      1  0.5174250000000  0.5545870000000  0.5910650000000 1.0
C      1  0.5723070000000  0.5219540000000  0.4165600000000 1.0
C      1  0.4871440000000  0.4756600000000  0.5032160000000 1.0
C      1  0.4823160000000  0.3816840000000  0.4497890000000 1.0
C      1  0.6084830000000  0.5439900000000  0.4972150000000 1.0
C      1  0.4516720000000  0.5251920000000  0.5292060000000 1.0
C      1  0.6090360000000  0.5234120000000  0.5159100000000 1.0
C      1  0.4622600000000  0.5867520000000  0.4530970000000 1.0
C      1  0.5942880000000  0.4810900000000  0.4442960000000 1.0
C      1  0.4450380000000  0.5303050000000  0.4042670000000 1.0
C      1  0.5142880000000  0.4226860000000  0.5840850000000 1.0
C      1  0.4986180000000  0.6159200000000  0.4901130000000 1.0
C      1  0.4918390000000  0.4224690000000  0.4230170000000 1.0
C      1  0.4895300000000  0.5919340000000  0.4445310000000 1.0
C      1  0.4831530000000  0.4696600000000  0.4291040000000 1.0
C      1  0.4764550000000  0.4718440000000  0.4752690000000 1.0
C      1  0.5007240000000  0.4276470000000  0.4868220000000 1.0
C      1  0.4870710000000  0.5100370000000  0.5678760000000 1.0
C      1  0.4030990000000  0.5531300000000  0.5327380000000 1.0
C      1  0.5192790000000  0.5333890000000  0.4502090000000 1.0
C      1  0.4050220000000  0.4995490000000  0.4937070000000 1.0
C      1  0.5115800000000  0.4045660000000  0.5608150000000 1.0
C      1  0.4961170000000  0.5152460000000  0.6173860000000 1.0
C      1  0.4063960000000  0.4719760000000  0.4482780000000 1.0
C      1  0.4692060000000  0.5318740000000  0.5554170000000 1.0
C      1  0.5246860000000  0.4343610000000  0.5303800000000 1.0
C      1  0.5990640000000  0.4582560000000  0.4636190000000 1.0
C      1  0.4886960000000  0.5474910000000  0.5393030000000 1.0
C      1  0.4290970000000  0.5548650000000  0.4638730000000 1.0
C      1  0.5555870000000  0.4231600000000  0.5592100000000 1.0
C      1  0.5204640000000  0.5072400000000  0.4370920000000 1.0
C      1  0.4968880000000  0.3811380000000  0.4754580000000 1.0
C      1  0.4723630000000  0.4410600000000  0.4380520000000 1.0
C      1  0.5331130000000  0.5889860000000  0.4938310000000 1.0
C      1  0.5428020000000  0.4336220000000  0.5843440000000 1.0
C      1  0.3956280000000  0.4904800000000  0.5234630000000 1.0
C      1  0.4403510000000  0.4279900000000  0.5369730000000 1.0
C      1  0.4091150000000  0.5036190000000  0.5471370000000 1.0
C      1  0.5027800000000  0.4991940000000  0.5433790000000 1.0
C      1  0.4727200000000  0.6041740000000  0.5001480000000 1.0
C      1  0.5497590000000  0.5385070000000  0.4506950000000 1.0
C      1  0.5184930000000  0.4751470000000  0.5489230000000 1.0
C      1  0.3952330000000  0.5275370000000  0.4868890000000 1.0
C      1  0.4436000000000  0.5577450000000  0.5166810000000 1.0
C      1  0.4681010000000  0.5129400000000  0.4018800000000 1.0
C      1  0.4609130000000  0.4187040000000  0.5568930000000 1.0
C      1  0.5570800000000  0.5813160000000  0.4578180000000 1.0
C      1  0.5236860000000  0.4771690000000  0.6019170000000 1.0
C      1  0.5374260000000  0.6032870000000  0.4588700000000 1.0
C      1  0.5077240000000  0.5333800000000  0.4770240000000 1.0
C      1  0.5795320000000  0.4332650000000  0.4603370000000 1.0
C      1  0.5481620000000  0.4470100000000  0.4945600000000 1.0
C      1  0.4957890000000  0.4440050000000  0.5751450000000 1.0
C      1  0.5576030000000  0.4444590000000  0.5369980000000 1.0
C      1  0.5184480000000  0.4609490000000  0.4651830000000 1.0
C      1  0.5225070000000  0.5020910000000  0.6160840000000 1.0
C      1  0.4244850000000  0.4624570000000  0.5699130000000 1.0
C      1  0.4448420000000  0.4973500000000  0.4427850000000 1.0
C      1  0.4386620000000  0.4771240000000  0.5173490000000 1.0
C      1  0.3947160000000  0.5461570000000  0.5073540000000 1.0
C      1  0.5638400000000  0.4222660000000  0.5000090000000 1.0
C      1  0.5867890000000  0.5480970000000  0.4773690000000 1.0
C      1  0.4735330000000  0.5672820000000  0.5226790000000 1.0
C      1  0.4041770000000  0.5420250000000  0.5791690000000 1.0
C      1  0.4840080000000  0.5543580000000  0.4125940000000 1.0
C      1  0.5290510000000  0.4930810000000  0.3885800000000 1.0
C      1  0.4195620000000  0.5288680000000  0.5981030000000 1.0
C      1  0.4944790000000  0.5291710000000  0.4005270000000 1.0
C      1  0.5192040000000  0.5691670000000  0.5630140000000 1.0
C      1  0.4956600000000  0.5015520000000  0.5128370000000 1.0
C      1  0.5356770000000  0.4861870000000  0.4768420000000 1.0
C      1  0.5229270000000  0.5162820000000  0.4066430000000 1.0
C      1  0.4156930000000  0.5014670000000  0.5958650000000 1.0
C      1  0.5979000000000  0.5073850000000  0.4575950000000 1.0
C      1  0.5873910000000  0.5314120000000  0.4421860000000 1.0
C      1  0.4987500000000  0.5776400000000  0.4209720000000 1.0
C      1  0.4846670000000  0.5661890000000  0.4947360000000 1.0
C      1  0.5738150000000  0.5746870000000  0.4805040000000 1.0
C      1  0.5193770000000  0.4462080000000  0.5019950000000 1.0
C      1  0.4730880000000  0.4984470000000  0.6153070000000 1.0
C      1  0.5373900000000  0.5253890000000  0.5496280000000 1.0
C      1  0.4109930000000  0.4635680000000  0.5205700000000 1.0
C      1  0.4751410000000  0.4857390000000  0.5891390000000 1.0
C      1  0.4086130000000  0.4871720000000  0.5727770000000 1.0
C      1  0.5621630000000  0.5752990000000  0.5344260000000 1.0
C      1  0.5202610000000  0.5107800000000  0.4934340000000 1.0
C      1  0.4559470000000  0.5523670000000  0.4180490000000 1.0
C      1  0.5078960000000  0.6066470000000  0.4624470000000 1.0
C      1  0.4774800000000  0.5373240000000  0.4842580000000 1.0
C      1  0.6020590000000  0.4716340000000  0.4900070000000 1.0
C      1  0.4493450000000  0.4832550000000  0.4687940000000 1.0
C      1  0.4986280000000  0.5762130000000  0.5953060000000 1.0
C      1  0.5594230000000  0.5811910000000  0.5051230000000 1.0
C      1  0.4454660000000  0.5384470000000  0.6014110000000 1.0
C      1  0.5575190000000  0.4495770000000  0.4323020000000 1.0
C      1  0.3947600000000  0.4760010000000  0.4761090000000 1.0
C      1  0.4176610000000  0.5780670000000  0.5372590000000 1.0
C      1  0.4632150000000  0.4902210000000  0.4210190000000 1.0
C      1  0.5407580000000  0.5886720000000  0.5522310000000 1.0
C      1  0.4356330000000  0.5698890000000  0.4885190000000 1.0
C      1  0.5742220000000  0.4922140000000  0.4116580000000 1.0
C      1  0.4691760000000  0.5164480000000  0.5047140000000 1.0
C      1  0.4881180000000  0.4059680000000  0.5159600000000 1.0
C      1  0.4527950000000  0.4639450000000  0.5794110000000 1.0
C      1  0.4539710000000  0.4442950000000  0.5157820000000 1.0
C      1  0.5181940000000  0.6056330000000  0.5388920000000 1.0
C      1  0.5064930000000  0.5254700000000  0.5898850000000 1.0
C      1  0.4531110000000  0.5486400000000  0.5762150000000 1.0
C      1  0.5247510000000  0.5787390000000  0.4121310000000 1.0
C      1  0.5949880000000  0.4535760000000  0.5412120000000 1.0
C      1  0.4246620000000  0.4381480000000  0.4760760000000 1.0
C      1  0.4541200000000  0.5785520000000  0.5728030000000 1.0
C      1  0.4019860000000  0.5203990000000  0.4406820000000 1.0
C      1  0.5181940000000  0.5478410000000  0.5432440000000 1.0
C      1  0.4908300000000  0.5991320000000  0.5480790000000 1.0
C      1  0.5746840000000  0.5476360000000  0.5426130000000 1.0
C      1  0.4972810000000  0.4804810000000  0.4535100000000 1.0
C      1  0.6026730000000  0.5429970000000  0.5346700000000 1.0
C      1  0.4450980000000  0.5661400000000  0.4416480000000 1.0
C      1  0.5541890000000  0.4781090000000  0.3937300000000 1.0
C      1  0.5651190000000  0.4788410000000  0.4369350000000 1.0
C      1  0.5555290000000  0.5183440000000  0.5256680000000 1.0
C      1  0.4511350000000  0.4299420000000  0.4872220000000 1.0
C      1  0.5928790000000  0.4537240000000  0.5118450000000 1.0
C      1  0.4443170000000  0.4387680000000  0.4307050000000 1.0
C      1  0.5620560000000  0.5307770000000  0.5668980000000 1.0
C      1  0.4667040000000  0.6049790000000  0.5317840000000 1.0
C      1  0.5148200000000  0.5644110000000  0.4933040000000 1.0
C      1  0.5005950000000  0.3974970000000  0.4338030000000 1.0
C      1  0.4812500000000  0.4555370000000  0.5229640000000 1.0
C      1  0.5457290000000  0.4973860000000  0.4513840000000 1.0
C      1  0.5611210000000  0.4074810000000  0.4586090000000 1.0
C      1  0.4671500000000  0.4385530000000  0.5773940000000 1.0
C      1  0.4532100000000  0.5923430000000  0.4802070000000 1.0
C      1  0.4013770000000  0.5327930000000  0.5530250000000 1.0
C      1  0.5156370000000  0.4395110000000  0.4148880000000 1.0
C      1  0.4863150000000  0.4075070000000  0.5447960000000 1.0
C      1  0.4753090000000  0.4412440000000  0.4709570000000 1.0
C      1  0.5156700000000  0.4048220000000  0.4750200000000 1.0
C      1  0.5594870000000  0.4767740000000  0.4947610000000 1.0
C      1  0.4267770000000  0.4499960000000  0.4499850000000 1.0
C      1  0.5901260000000  0.4986340000000  0.4851190000000 1.0
C      1  0.4537660000000  0.3998000000000  0.4829060000000 1.0
C      1  0.4369680000000  0.5005540000000  0.5371690000000 1.0
C      1  0.5374300000000  0.4028560000000  0.5481020000000 1.0
C      1  0.5582370000000  0.3983380000000  0.4854210000000 1.0
C      1  0.5068910000000  0.4768110000000  0.3835370000000 1.0
C      1  0.5475040000000  0.5629910000000  0.4137900000000 1.0
C      1  0.5303600000000  0.4413990000000  0.4425410000000 1.0
C      1  0.4766610000000  0.3878830000000  0.4969270000000 1.0
C      1  0.5908370000000  0.4710420000000  0.5637070000000 1.0
C      1  0.5476940000000  0.5347540000000  0.4066330000000 1.0
C      1  0.5749600000000  0.5054910000000  0.5737190000000 1.0
C      1  0.5020480000000  0.4639040000000  0.4078740000000 1.0
C      1  0.5216470000000  0.6120260000000  0.5095100000000 1.0
C      1  0.4563750000000  0.3919270000000  0.4557720000000 1.0
C      1  0.4437600000000  0.5885190000000  0.5465300000000 1.0
C      1  0.5633940000000  0.5267200000000  0.4784130000000 1.0
C      1  0.4053150000000  0.5380870000000  0.4618430000000 1.0
C      1  0.5637830000000  0.4786210000000  0.5700610000000 1.0
C      1  0.5320680000000  0.4114800000000  0.4502630000000 1.0
C      1  0.4822300000000  0.5886650000000  0.5745630000000 1.0
C      1  0.5909400000000  0.4294310000000  0.4964690000000 1.0
C      1  0.4161430000000  0.4970600000000  0.4347430000000 1.0
C      1  0.5483900000000  0.4631210000000  0.5925920000000 1.0
C      1  0.4383310000000  0.4962140000000  0.4929400000000 1.0
C      1  0.5441960000000  0.5274830000000  0.5013330000000 1.0
C      1  0.4983590000000  0.4674550000000  0.5922190000000 1.0
C      1  0.4042080000000  0.4524050000000  0.4925480000000 1.0
END
