TITL C-951335-1172-330 1.23810956166081 125000 -131.707655302852 0 0 23 (C1) n - 1
REM
REM in /home/bkarasulu/work/CARBON/AIRSS/Generating-Clusters/EDIP-Nigel-Params/with-SteepDescent/Only-C1/SD-CG/HFTN-CG
REM
REM
REM
REM
REM
REM ./C.cell (11c1c37f851c82e70ff6c80c92926a4b)
REM
REM compiler GCC version 9.2.1 20190827 (Red Hat 9.2.1-1)
REM options -cpp -mtune=generic -march=x86-64 -g -O0 -fpre-include=/usr/include/finclude/math-vector-fortran.h
REM seed 540275255 -73621153 -1209483187 -1530348753 -1320960956 974755574 -2080083569 -1013134276 545110163 2091883056 -1261526332 797632931 -885230663 320634170 -647805663 -1513985865 256364604 505348602 -1016055806 1760672768 736899631 -196497645 564514470 416313692 312665737 1530232960 1398399966 271866508 -807102907 -1282808957 -1402647045 -1181981944 -1790853038
REM
CELL 1.54180   50.00000   50.00000   50.00000   90.00000   90.00000   90.00000
LATT -1
SFAC C  
C      1  0.5393090000000  0.5620830000000  0.4758430000000 1.0
C      1  0.5176930000000  0.5462970000000  0.4686410000000 1.0
C      1  0.4790420000000  0.5197790000000  0.4805080000000 1.0
C      1  0.5244740000000  0.4935900000000  0.5201220000000 1.0
C      1  0.5158200000000  0.4672690000000  0.5247620000000 1.0
C      1  0.3970420000000  0.5139070000000  0.4727050000000 1.0
C      1  0.5050520000000  0.5269860000000  0.4855010000000 1.0
C      1  0.4082440000000  0.5097460000000  0.5009920000000 1.0
C      1  0.5529150000000  0.4966540000000  0.5259630000000 1.0
C      1  0.5543340000000  0.5388190000000  0.4756430000000 1.0
C      1  0.4406900000000  0.5057380000000  0.4549380000000 1.0
C      1  0.5364960000000  0.4543000000000  0.5370540000000 1.0
C      1  0.5509380000000  0.5171100000000  0.4937210000000 1.0
C      1  0.5968810000000  0.4476010000000  0.5609420000000 1.0
C      1  0.4019380000000  0.4818820000000  0.4949660000000 1.0
C      1  0.5238160000000  0.5073170000000  0.4945200000000 1.0
C      1  0.5845920000000  0.4616090000000  0.5395480000000 1.0
C      1  0.4355770000000  0.5159630000000  0.5009600000000 1.0
C      1  0.5578690000000  0.4722320000000  0.5402590000000 1.0
C      1  0.6063730000000  0.4719980000000  0.5544680000000 1.0
C      1  0.4522030000000  0.5145340000000  0.4786940000000 1.0
C      1  0.4049930000000  0.4757710000000  0.4674600000000 1.0
C      1  0.4137100000000  0.4988150000000  0.4517920000000 1.0
END
