TITL C-950531-5884-551 -3.93702660664205e-06 125000 -903.143286069343 0 0 143 (C1) n - 1
REM
REM in /home/bkarasulu/work/CARBON/AIRSS/Generating-Clusters/EDIP-Nigel-Params/with-SteepDescent/Only-C1/SD-CG/HFTN-CG
REM
REM
REM
REM
REM
REM ./C.cell (11c1c37f851c82e70ff6c80c92926a4b)
REM
REM compiler GCC version 9.2.1 20190827 (Red Hat 9.2.1-1)
REM options -cpp -mtune=generic -march=x86-64 -g -O0 -fpre-include=/usr/include/finclude/math-vector-fortran.h
REM seed 670870822 1051459099 766896362 -1013024589 -1327126309 -1685121964 249541716 -581472600 167185276 -507888396 -247092826 -641660587 840716668 1756223642 50609562 -1991409779 -1436623038 -874524828 -830078631 694262810 36176602 -1228557166 276973664 243079375 1845404864 1324977121 1212890935 125007348 2091488900 1232365464 -2033377864 2060247762 -1951874795
REM
CELL 1.54180   50.00000   50.00000   50.00000   90.00000   90.00000   90.00000
LATT -1
SFAC C  
C      1  0.4836700000000  0.5601240000000  0.4869180000000 1.0
C      1  0.5187590000000  0.5816800000000  0.5171360000000 1.0
C      1  0.5105030000000  0.4918560000000  0.4913920000000 1.0
C      1  0.4643550000000  0.5102810000000  0.5008620000000 1.0
C      1  0.4350050000000  0.5582660000000  0.4950650000000 1.0
C      1  0.5065100000000  0.5403220000000  0.5719920000000 1.0
C      1  0.4256460000000  0.5396830000000  0.4748970000000 1.0
C      1  0.4347330000000  0.5482370000000  0.5225860000000 1.0
C      1  0.4181940000000  0.4822110000000  0.4450920000000 1.0
C      1  0.4938770000000  0.6087880000000  0.5032780000000 1.0
C      1  0.4536990000000  0.4161070000000  0.5360150000000 1.0
C      1  0.6137160000000  0.4923490000000  0.4903770000000 1.0
C      1  0.4306230000000  0.4288790000000  0.4925030000000 1.0
C      1  0.4158940000000  0.5122230000000  0.4831890000000 1.0
C      1  0.4518300000000  0.4839260000000  0.5561270000000 1.0
C      1  0.5347460000000  0.3982770000000  0.4961910000000 1.0
C      1  0.5540210000000  0.4724330000000  0.5607850000000 1.0
C      1  0.5476580000000  0.5452990000000  0.5768200000000 1.0
C      1  0.4993500000000  0.4179720000000  0.4479630000000 1.0
C      1  0.5225050000000  0.5310130000000  0.5448000000000 1.0
C      1  0.4870420000000  0.5638740000000  0.5726500000000 1.0
C      1  0.4711180000000  0.5090330000000  0.3983400000000 1.0
C      1  0.5294910000000  0.4313790000000  0.5482630000000 1.0
C      1  0.4712000000000  0.4627420000000  0.5147520000000 1.0
C      1  0.6183820000000  0.4980340000000  0.5173710000000 1.0
C      1  0.4812940000000  0.4835480000000  0.5622920000000 1.0
C      1  0.4071390000000  0.5367540000000  0.5292580000000 1.0
C      1  0.5889430000000  0.5356690000000  0.4851390000000 1.0
C      1  0.5119540000000  0.4490080000000  0.4091170000000 1.0
C      1  0.4907240000000  0.4484660000000  0.5321550000000 1.0
C      1  0.4586620000000  0.5577040000000  0.5664590000000 1.0
C      1  0.4833050000000  0.4653320000000  0.4607130000000 1.0
C      1  0.5330280000000  0.4514480000000  0.4514480000000 1.0
C      1  0.4512150000000  0.5200840000000  0.4364860000000 1.0
C      1  0.5075790000000  0.4423750000000  0.4642270000000 1.0
C      1  0.5531680000000  0.4566960000000  0.4713120000000 1.0
C      1  0.5559070000000  0.4812500000000  0.5122760000000 1.0
C      1  0.4593160000000  0.4633550000000  0.4801460000000 1.0
C      1  0.4456980000000  0.5690940000000  0.5416570000000 1.0
C      1  0.4884160000000  0.5517010000000  0.4269750000000 1.0
C      1  0.6001450000000  0.4982310000000  0.5387860000000 1.0
C      1  0.5189320000000  0.4500670000000  0.5718330000000 1.0
C      1  0.4851330000000  0.4882010000000  0.4150460000000 1.0
C      1  0.5809160000000  0.4643370000000  0.4614130000000 1.0
C      1  0.5090140000000  0.4065890000000  0.5482350000000 1.0
C      1  0.5166480000000  0.5173220000000  0.3865880000000 1.0
C      1  0.5829710000000  0.4830560000000  0.4403040000000 1.0
C      1  0.4399240000000  0.4734560000000  0.5815820000000 1.0
C      1  0.5824840000000  0.5439310000000  0.5152830000000 1.0
C      1  0.5173220000000  0.5317070000000  0.4677430000000 1.0
C      1  0.4796800000000  0.5306560000000  0.4773610000000 1.0
C      1  0.4744620000000  0.4094650000000  0.4607930000000 1.0
C      1  0.5383410000000  0.5691740000000  0.5603320000000 1.0
C      1  0.5684100000000  0.4972120000000  0.4207790000000 1.0
C      1  0.4764470000000  0.4065950000000  0.4900960000000 1.0
C      1  0.5937330000000  0.4668750000000  0.5377490000000 1.0
C      1  0.4822520000000  0.5755500000000  0.4423780000000 1.0
C      1  0.5372390000000  0.4766640000000  0.5345650000000 1.0
C      1  0.5789300000000  0.4620700000000  0.5118950000000 1.0
C      1  0.5513270000000  0.5362470000000  0.4338070000000 1.0
C      1  0.5258060000000  0.4915720000000  0.3923110000000 1.0
C      1  0.5426260000000  0.4818640000000  0.4863770000000 1.0
C      1  0.4971580000000  0.5891130000000  0.5801710000000 1.0
C      1  0.4541080000000  0.4168960000000  0.5065480000000 1.0
C      1  0.5249220000000  0.5589230000000  0.4646780000000 1.0
C      1  0.5566220000000  0.5860090000000  0.4965740000000 1.0
C      1  0.5291710000000  0.5223930000000  0.5999820000000 1.0
C      1  0.5075580000000  0.5350000000000  0.5185430000000 1.0
C      1  0.4909910000000  0.5281580000000  0.3892030000000 1.0
C      1  0.4557400000000  0.4881060000000  0.6028720000000 1.0
C      1  0.4777790000000  0.4126720000000  0.5552110000000 1.0
C      1  0.4475050000000  0.5207730000000  0.4077870000000 1.0
C      1  0.4375010000000  0.4385790000000  0.5468050000000 1.0
C      1  0.5104870000000  0.6011210000000  0.4784680000000 1.0
C      1  0.5619480000000  0.5263330000000  0.4871790000000 1.0
C      1  0.4553600000000  0.5925910000000  0.5295040000000 1.0
C      1  0.4126360000000  0.5128640000000  0.5486150000000 1.0
C      1  0.5193700000000  0.5924970000000  0.5631750000000 1.0
C      1  0.4873530000000  0.5540600000000  0.3989260000000 1.0
C      1  0.6071990000000  0.5159470000000  0.4769630000000 1.0
C      1  0.3964990000000  0.4620980000000  0.4781240000000 1.0
C      1  0.4672160000000  0.4707950000000  0.4343380000000 1.0
C      1  0.5417310000000  0.5988880000000  0.4757170000000 1.0
C      1  0.5642530000000  0.5682940000000  0.5175250000000 1.0
C      1  0.4573540000000  0.5754070000000  0.4852700000000 1.0
C      1  0.5389350000000  0.5636340000000  0.5311680000000 1.0
C      1  0.4109420000000  0.4512860000000  0.5017140000000 1.0
C      1  0.5190610000000  0.4498580000000  0.5247910000000 1.0
C      1  0.5002140000000  0.5040100000000  0.4384350000000 1.0
C      1  0.4532960000000  0.5248370000000  0.5248980000000 1.0
C      1  0.4634760000000  0.4414770000000  0.4251950000000 1.0
C      1  0.4928810000000  0.4987270000000  0.5397890000000 1.0
C      1  0.4527510000000  0.4256060000000  0.4482270000000 1.0
C      1  0.4457510000000  0.4908350000000  0.4455380000000 1.0
C      1  0.4728980000000  0.4348180000000  0.5760020000000 1.0
C      1  0.5430820000000  0.4957030000000  0.5965040000000 1.0
C      1  0.4851620000000  0.4934970000000  0.5910180000000 1.0
C      1  0.5211820000000  0.5007310000000  0.5431600000000 1.0
C      1  0.5297780000000  0.4695640000000  0.5910590000000 1.0
C      1  0.5027430000000  0.4731470000000  0.3956020000000 1.0
C      1  0.4410280000000  0.4924250000000  0.4897800000000 1.0
C      1  0.4911690000000  0.4297850000000  0.4213430000000 1.0
C      1  0.5477530000000  0.4257430000000  0.4926760000000 1.0
C      1  0.4424670000000  0.5123860000000  0.5505440000000 1.0
C      1  0.4384310000000  0.5454820000000  0.4495980000000 1.0
C      1  0.5605020000000  0.4300070000000  0.5433790000000 1.0
C      1  0.5210180000000  0.4399200000000  0.4952850000000 1.0
C      1  0.4035880000000  0.4929670000000  0.5269080000000 1.0
C      1  0.5511130000000  0.5911870000000  0.4493790000000 1.0
C      1  0.4248410000000  0.4755270000000  0.5137780000000 1.0
C      1  0.4458960000000  0.4648880000000  0.5329170000000 1.0
C      1  0.5810870000000  0.5222440000000  0.5380520000000 1.0
C      1  0.5421330000000  0.4859310000000  0.4158660000000 1.0
C      1  0.4994440000000  0.5203900000000  0.5947970000000 1.0
C      1  0.4003710000000  0.4966280000000  0.4633170000000 1.0
C      1  0.4649130000000  0.5991860000000  0.5039250000000 1.0
C      1  0.4852620000000  0.4903090000000  0.5121230000000 1.0
C      1  0.5187450000000  0.5205010000000  0.4950570000000 1.0
C      1  0.4438660000000  0.4433750000000  0.5761140000000 1.0
C      1  0.5043380000000  0.3991880000000  0.4994670000000 1.0
C      1  0.5956850000000  0.4687810000000  0.4868650000000 1.0
C      1  0.5675320000000  0.4336390000000  0.5144680000000 1.0
C      1  0.5632120000000  0.4981980000000  0.5751730000000 1.0
C      1  0.5527400000000  0.5050080000000  0.4706300000000 1.0
C      1  0.5754410000000  0.4524960000000  0.5574400000000 1.0
C      1  0.5627520000000  0.5238570000000  0.5612810000000 1.0
C      1  0.4803580000000  0.5272190000000  0.4437600000000 1.0
C      1  0.4143750000000  0.4554280000000  0.4560950000000 1.0
C      1  0.5008360000000  0.5753270000000  0.4669340000000 1.0
C      1  0.4907350000000  0.4547260000000  0.5615630000000 1.0
C      1  0.4975300000000  0.5613910000000  0.5131040000000 1.0
C      1  0.3979080000000  0.5158100000000  0.5074450000000 1.0
C      1  0.5119970000000  0.3891010000000  0.5256260000000 1.0
C      1  0.4971580000000  0.4896860000000  0.4647190000000 1.0
C      1  0.4391090000000  0.4430540000000  0.4679720000000 1.0
C      1  0.4554120000000  0.5174040000000  0.5990000000000 1.0
C      1  0.4542080000000  0.5725800000000  0.4539430000000 1.0
C      1  0.5451450000000  0.5636830000000  0.4446910000000 1.0
C      1  0.5714790000000  0.5252200000000  0.4177230000000 1.0
C      1  0.5354350000000  0.5152040000000  0.4478740000000 1.0
C      1  0.5355420000000  0.4584770000000  0.4238980000000 1.0
C      1  0.4513980000000  0.5295350000000  0.5730060000000 1.0
C      1  0.5118110000000  0.6025490000000  0.5369250000000 1.0
END
