TITL C-951337-3020-136 -4.66567157607188e-06 125000 -840.361699315426 0 0 136 (C1) n - 1
REM
REM in /home/bkarasulu/work/CARBON/AIRSS/Generating-Clusters/EDIP-Nigel-Params/with-SteepDescent/Only-C1/SD-CG/HFTN-CG
REM
REM
REM
REM
REM
REM ./C.cell (11c1c37f851c82e70ff6c80c92926a4b)
REM
REM compiler GCC version 9.2.1 20190827 (Red Hat 9.2.1-1)
REM options -cpp -mtune=generic -march=x86-64 -g -O0 -fpre-include=/usr/include/finclude/math-vector-fortran.h
REM seed 1815887688 -2121796960 110678033 -1612509754 -952238667 1279950618 704199522 -420423831 -1415610783 -2111010043 1594477689 -1243335904 1772240523 -2071380529 -1278655737 -1040403384 -1806045198 1929731381 929856471 678079419 594377207 596318591 1898665424 -921325323 -639232519 -1813979990 -936297827 2089458399 -374423265 -292034079 -549986128 826736818 1157488726
REM
CELL 1.54180   50.00000   50.00000   50.00000   90.00000   90.00000   90.00000
LATT -1
SFAC C  
C      1  0.4325330000000  0.5836890000000  0.4563630000000 1.0
C      1  0.4803770000000  0.5614050000000  0.4761690000000 1.0
C      1  0.4453390000000  0.5173690000000  0.4967650000000 1.0
C      1  0.5527830000000  0.5264420000000  0.4068940000000 1.0
C      1  0.5193140000000  0.5599830000000  0.4195920000000 1.0
C      1  0.4144060000000  0.5187930000000  0.4431520000000 1.0
C      1  0.5248410000000  0.4300390000000  0.5711670000000 1.0
C      1  0.4792990000000  0.3971240000000  0.5044580000000 1.0
C      1  0.4795260000000  0.4775160000000  0.5859700000000 1.0
C      1  0.4087730000000  0.5427970000000  0.5159170000000 1.0
C      1  0.4520280000000  0.5408990000000  0.5164140000000 1.0
C      1  0.5079790000000  0.4894080000000  0.5832550000000 1.0
C      1  0.4182990000000  0.5009890000000  0.5402660000000 1.0
C      1  0.4338310000000  0.5271800000000  0.4189120000000 1.0
C      1  0.4140010000000  0.5232100000000  0.4934470000000 1.0
C      1  0.5644250000000  0.4816000000000  0.4265160000000 1.0
C      1  0.5632180000000  0.4406500000000  0.4571410000000 1.0
C      1  0.5173030000000  0.5825590000000  0.5318890000000 1.0
C      1  0.5173410000000  0.4203220000000  0.4783790000000 1.0
C      1  0.5460620000000  0.5835970000000  0.5331880000000 1.0
C      1  0.4476450000000  0.4886600000000  0.5091640000000 1.0
C      1  0.5221000000000  0.4493760000000  0.5244660000000 1.0
C      1  0.5197150000000  0.4349270000000  0.4249560000000 1.0
C      1  0.5704710000000  0.5504260000000  0.5576130000000 1.0
C      1  0.5294650000000  0.5361440000000  0.5775770000000 1.0
C      1  0.4829510000000  0.4490730000000  0.5879500000000 1.0
C      1  0.5673780000000  0.5104600000000  0.4246200000000 1.0
C      1  0.4315110000000  0.4450060000000  0.5377960000000 1.0
C      1  0.4843270000000  0.4897040000000  0.4758050000000 1.0
C      1  0.4562140000000  0.5135200000000  0.4071270000000 1.0
C      1  0.5092900000000  0.4031090000000  0.5009610000000 1.0
C      1  0.4642800000000  0.5913160000000  0.5119730000000 1.0
C      1  0.4864600000000  0.4502360000000  0.4568990000000 1.0
C      1  0.4811180000000  0.5311410000000  0.4089050000000 1.0
C      1  0.5983060000000  0.5015260000000  0.5347230000000 1.0
C      1  0.5118820000000  0.5057670000000  0.5335120000000 1.0
C      1  0.4596200000000  0.4805750000000  0.4254370000000 1.0
C      1  0.4483890000000  0.5691300000000  0.4386310000000 1.0
C      1  0.5758170000000  0.5260450000000  0.4471200000000 1.0
C      1  0.3980330000000  0.4981320000000  0.4954140000000 1.0
C      1  0.4910780000000  0.5584030000000  0.4167170000000 1.0
C      1  0.5510640000000  0.5279500000000  0.5581890000000 1.0
C      1  0.5367280000000  0.5244130000000  0.5302490000000 1.0
C      1  0.3986400000000  0.4831360000000  0.4719610000000 1.0
C      1  0.4665240000000  0.4899630000000  0.6087870000000 1.0
C      1  0.5713270000000  0.4313840000000  0.4841340000000 1.0
C      1  0.4752860000000  0.5175050000000  0.4799060000000 1.0
C      1  0.4703870000000  0.5251360000000  0.5361960000000 1.0
C      1  0.4056700000000  0.4836840000000  0.5196600000000 1.0
C      1  0.5403490000000  0.4173180000000  0.5481500000000 1.0
C      1  0.5571540000000  0.5750470000000  0.5572860000000 1.0
C      1  0.5860830000000  0.4837870000000  0.4718810000000 1.0
C      1  0.5689160000000  0.4234910000000  0.5394340000000 1.0
C      1  0.4445080000000  0.4185260000000  0.5386340000000 1.0
C      1  0.5354290000000  0.4461880000000  0.5917860000000 1.0
C      1  0.5268700000000  0.5186890000000  0.4550870000000 1.0
C      1  0.4267810000000  0.4586380000000  0.5623200000000 1.0
C      1  0.5249960000000  0.4737150000000  0.4811530000000 1.0
C      1  0.4539800000000  0.5232940000000  0.5717510000000 1.0
C      1  0.4230020000000  0.5649390000000  0.4749390000000 1.0
C      1  0.5939520000000  0.5033990000000  0.5625320000000 1.0
C      1  0.5711550000000  0.5575690000000  0.4925350000000 1.0
C      1  0.4231050000000  0.4397580000000  0.4801360000000 1.0
C      1  0.4416960000000  0.4738100000000  0.4508580000000 1.0
C      1  0.4975040000000  0.4395710000000  0.5654610000000 1.0
C      1  0.4286460000000  0.4877200000000  0.5644270000000 1.0
C      1  0.5277730000000  0.5320060000000  0.4212620000000 1.0
C      1  0.5418030000000  0.4860160000000  0.5025350000000 1.0
C      1  0.4764660000000  0.5758360000000  0.5592380000000 1.0
C      1  0.4845920000000  0.5317050000000  0.5944630000000 1.0
C      1  0.4371600000000  0.5440440000000  0.5579440000000 1.0
C      1  0.4720600000000  0.5252050000000  0.4517660000000 1.0
C      1  0.5985980000000  0.4694990000000  0.4945690000000 1.0
C      1  0.5381350000000  0.4290120000000  0.4472730000000 1.0
C      1  0.5043820000000  0.5771710000000  0.5571680000000 1.0
C      1  0.4585900000000  0.4814130000000  0.5609230000000 1.0
C      1  0.5763740000000  0.5280600000000  0.4968870000000 1.0
C      1  0.5132240000000  0.5938910000000  0.4816600000000 1.0
C      1  0.4670810000000  0.4453500000000  0.4961840000000 1.0
C      1  0.5331450000000  0.4724530000000  0.5807630000000 1.0
C      1  0.4115750000000  0.5380400000000  0.4678600000000 1.0
C      1  0.5391110000000  0.5858950000000  0.4734110000000 1.0
C      1  0.5945290000000  0.5263260000000  0.5206400000000 1.0
C      1  0.4992630000000  0.5336180000000  0.4939550000000 1.0
C      1  0.4730860000000  0.4409850000000  0.5246330000000 1.0
C      1  0.4747820000000  0.5774820000000  0.4309900000000 1.0
C      1  0.5024290000000  0.5917690000000  0.5090540000000 1.0
C      1  0.5742100000000  0.4549680000000  0.5607410000000 1.0
C      1  0.5969050000000  0.4411840000000  0.4922000000000 1.0
C      1  0.4626710000000  0.4292350000000  0.4553490000000 1.0
C      1  0.5226960000000  0.4106560000000  0.5259180000000 1.0
C      1  0.4965710000000  0.4539120000000  0.5379310000000 1.0
C      1  0.5190310000000  0.4913350000000  0.4596860000000 1.0
C      1  0.4813290000000  0.4977230000000  0.4382180000000 1.0
C      1  0.5050940000000  0.4937600000000  0.4184250000000 1.0
C      1  0.5622380000000  0.5751520000000  0.5122520000000 1.0
C      1  0.4170290000000  0.5304710000000  0.5410130000000 1.0
C      1  0.5678470000000  0.5531980000000  0.4466810000000 1.0
C      1  0.5954680000000  0.4756910000000  0.5226240000000 1.0
C      1  0.4246300000000  0.5667280000000  0.5063120000000 1.0
C      1  0.4397540000000  0.5851300000000  0.5276340000000 1.0
C      1  0.4224370000000  0.4594870000000  0.5131350000000 1.0
C      1  0.5910320000000  0.5471820000000  0.5389870000000 1.0
C      1  0.5730020000000  0.4168490000000  0.5104230000000 1.0
C      1  0.5508690000000  0.4673480000000  0.4069000000000 1.0
C      1  0.5075350000000  0.4481750000000  0.4787720000000 1.0
C      1  0.4929910000000  0.4833990000000  0.5326860000000 1.0
C      1  0.4930960000000  0.5837440000000  0.4640580000000 1.0
C      1  0.4686190000000  0.5638810000000  0.5022550000000 1.0
C      1  0.4987180000000  0.5317220000000  0.5255550000000 1.0
C      1  0.4772450000000  0.4583020000000  0.4110300000000 1.0
C      1  0.4602390000000  0.4730290000000  0.4850290000000 1.0
C      1  0.5265940000000  0.4535300000000  0.4034190000000 1.0
C      1  0.4468070000000  0.5399140000000  0.4434470000000 1.0
C      1  0.5533080000000  0.4762110000000  0.5584650000000 1.0
C      1  0.4687190000000  0.4036660000000  0.5315130000000 1.0
C      1  0.5400950000000  0.4719800000000  0.5285580000000 1.0
C      1  0.5203950000000  0.5628600000000  0.5754890000000 1.0
C      1  0.5081180000000  0.5185330000000  0.5852890000000 1.0
C      1  0.4440790000000  0.4254780000000  0.4950450000000 1.0
C      1  0.4609190000000  0.5166840000000  0.6012110000000 1.0
C      1  0.5068100000000  0.5183930000000  0.4052640000000 1.0
C      1  0.5658040000000  0.5027110000000  0.5647460000000 1.0
C      1  0.4894940000000  0.4372580000000  0.4290160000000 1.0
C      1  0.4502600000000  0.5694640000000  0.5505530000000 1.0
C      1  0.5556530000000  0.5633310000000  0.4697800000000 1.0
C      1  0.5276530000000  0.5309620000000  0.4821300000000 1.0
C      1  0.4164730000000  0.4898440000000  0.4517030000000 1.0
C      1  0.4598340000000  0.4035070000000  0.4830060000000 1.0
C      1  0.4665860000000  0.4941730000000  0.5340570000000 1.0
C      1  0.5020480000000  0.4708530000000  0.4002090000000 1.0
C      1  0.5742260000000  0.4675930000000  0.4499120000000 1.0
C      1  0.4369410000000  0.4447710000000  0.4551950000000 1.0
C      1  0.5854820000000  0.5133920000000  0.4716030000000 1.0
C      1  0.5937120000000  0.4533770000000  0.5404410000000 1.0
C      1  0.5470940000000  0.5165990000000  0.5022930000000 1.0
END
