TITL C-951346-9544-79 -8.10284355202435e-06 125000 -630.206704383186 0 0 102 (C1) n - 1
REM
REM in /home/bkarasulu/work/CARBON/AIRSS/Generating-Clusters/EDIP-Nigel-Params/with-SteepDescent/Only-C1/SD-CG/HFTN-CG
REM
REM
REM
REM
REM
REM ./C.cell (11c1c37f851c82e70ff6c80c92926a4b)
REM
REM compiler GCC version 9.2.1 20190827 (Red Hat 9.2.1-1)
REM options -cpp -mtune=generic -march=x86-64 -g -O0 -fpre-include=/usr/include/finclude/math-vector-fortran.h
REM seed 1705437721 -516434996 -903535485 1655357691 -910577748 1045156791 -425886162 -1455298599 1533862144 1832667307 569622535 1627642190 -356981877 -1806295499 -551908428 2041292547 2006509046 -964517942 -2007251799 852715393 -1692602803 524773301 -1883136097 1561588386 -1985421418 -436427275 -416015213 -2092136515 -2091867824 -888176246 328138012 1931519757 -1761331554
REM
CELL 1.54180   50.00000   50.00000   50.00000   90.00000   90.00000   90.00000
LATT -1
SFAC C  
C      1  0.5261710000000  0.4264430000000  0.4435320000000 1.0
C      1  0.4391950000000  0.4818340000000  0.5696380000000 1.0
C      1  0.4501300000000  0.4248030000000  0.4832460000000 1.0
C      1  0.5376870000000  0.4337260000000  0.5458240000000 1.0
C      1  0.5214050000000  0.5349770000000  0.4972170000000 1.0
C      1  0.4909760000000  0.5904320000000  0.5278830000000 1.0
C      1  0.5255700000000  0.4796830000000  0.4931620000000 1.0
C      1  0.5285440000000  0.5089880000000  0.4763040000000 1.0
C      1  0.4447370000000  0.5461960000000  0.4538090000000 1.0
C      1  0.4893070000000  0.5694720000000  0.4834130000000 1.0
C      1  0.4941760000000  0.4291400000000  0.5654950000000 1.0
C      1  0.4554920000000  0.4362820000000  0.5404850000000 1.0
C      1  0.5166570000000  0.5192990000000  0.4114240000000 1.0
C      1  0.5065190000000  0.4818650000000  0.4415620000000 1.0
C      1  0.5407990000000  0.4842220000000  0.5193900000000 1.0
C      1  0.5261110000000  0.4920100000000  0.4200840000000 1.0
C      1  0.4673300000000  0.4712510000000  0.5721490000000 1.0
C      1  0.5751980000000  0.4575620000000  0.5188140000000 1.0
C      1  0.5375810000000  0.4505440000000  0.4844260000000 1.0
C      1  0.5016510000000  0.4177010000000  0.4540850000000 1.0
C      1  0.4899720000000  0.5333640000000  0.5340770000000 1.0
C      1  0.4392470000000  0.5089360000000  0.5777960000000 1.0
C      1  0.4824200000000  0.4691350000000  0.4281350000000 1.0
C      1  0.4456110000000  0.5290640000000  0.4787740000000 1.0
C      1  0.4752020000000  0.5794030000000  0.5493910000000 1.0
C      1  0.4418470000000  0.5421470000000  0.5063070000000 1.0
C      1  0.5743310000000  0.5072750000000  0.5368230000000 1.0
C      1  0.4438590000000  0.5276010000000  0.4282240000000 1.0
C      1  0.4735810000000  0.5820260000000  0.5049810000000 1.0
C      1  0.4132210000000  0.4888480000000  0.4636520000000 1.0
C      1  0.4929880000000  0.5407450000000  0.4910230000000 1.0
C      1  0.5010170000000  0.4859090000000  0.5475750000000 1.0
C      1  0.4692370000000  0.5419910000000  0.4172270000000 1.0
C      1  0.5199410000000  0.4397000000000  0.5670280000000 1.0
C      1  0.4659430000000  0.4867420000000  0.4126790000000 1.0
C      1  0.5782580000000  0.4658060000000  0.4705990000000 1.0
C      1  0.4793860000000  0.4205710000000  0.4374370000000 1.0
C      1  0.4216650000000  0.5088940000000  0.4818570000000 1.0
C      1  0.5128960000000  0.5058700000000  0.5847140000000 1.0
C      1  0.4902730000000  0.5548520000000  0.5562870000000 1.0
C      1  0.4834950000000  0.4530750000000  0.5092920000000 1.0
C      1  0.5223060000000  0.5871370000000  0.4796620000000 1.0
C      1  0.4134210000000  0.4762470000000  0.5210080000000 1.0
C      1  0.5265810000000  0.5009840000000  0.5391970000000 1.0
C      1  0.5258940000000  0.5514600000000  0.4473340000000 1.0
C      1  0.4696080000000  0.4464660000000  0.4436640000000 1.0
C      1  0.4752480000000  0.4969210000000  0.4983480000000 1.0
C      1  0.4133950000000  0.5041610000000  0.5100910000000 1.0
C      1  0.5305810000000  0.5680310000000  0.5018360000000 1.0
C      1  0.4685380000000  0.4159560000000  0.5253140000000 1.0
C      1  0.5541000000000  0.5138910000000  0.4556270000000 1.0
C      1  0.4659020000000  0.4497170000000  0.4741600000000 1.0
C      1  0.4312160000000  0.4807520000000  0.4441830000000 1.0
C      1  0.4920380000000  0.4837620000000  0.5852960000000 1.0
C      1  0.4635520000000  0.5571940000000  0.5194020000000 1.0
C      1  0.4979410000000  0.4207830000000  0.4830660000000 1.0
C      1  0.5587990000000  0.5653140000000  0.5409960000000 1.0
C      1  0.5588870000000  0.5685120000000  0.5113430000000 1.0
C      1  0.4947220000000  0.4758980000000  0.4949360000000 1.0
C      1  0.4449290000000  0.4721990000000  0.4785620000000 1.0
C      1  0.5236990000000  0.4235870000000  0.5240940000000 1.0
C      1  0.4330240000000  0.4599320000000  0.5046300000000 1.0
C      1  0.4780590000000  0.5076370000000  0.5449160000000 1.0
C      1  0.5863370000000  0.4907270000000  0.4848100000000 1.0
C      1  0.4212490000000  0.4756830000000  0.5485200000000 1.0
C      1  0.5594570000000  0.4656700000000  0.4458970000000 1.0
C      1  0.5321010000000  0.5690920000000  0.5522290000000 1.0
C      1  0.5397880000000  0.4994800000000  0.5780540000000 1.0
C      1  0.5065380000000  0.5311620000000  0.4376810000000 1.0
C      1  0.5531300000000  0.5427070000000  0.4476280000000 1.0
C      1  0.4783250000000  0.5414500000000  0.5813300000000 1.0
C      1  0.5844260000000  0.5412820000000  0.4790870000000 1.0
C      1  0.5349070000000  0.4507420000000  0.4546190000000 1.0
C      1  0.5004880000000  0.4555550000000  0.5374960000000 1.0
C      1  0.4353090000000  0.5183390000000  0.5230620000000 1.0
C      1  0.5671910000000  0.4476780000000  0.4914670000000 1.0
C      1  0.4276320000000  0.4315250000000  0.4996320000000 1.0
C      1  0.5712060000000  0.5434860000000  0.5046760000000 1.0
C      1  0.4689530000000  0.4427460000000  0.5653860000000 1.0
C      1  0.5254990000000  0.5547520000000  0.5767000000000 1.0
C      1  0.4494090000000  0.4987630000000  0.4315790000000 1.0
C      1  0.5794730000000  0.4870990000000  0.5142920000000 1.0
C      1  0.5533280000000  0.4927330000000  0.4334000000000 1.0
C      1  0.5223360000000  0.4275030000000  0.4966780000000 1.0
C      1  0.4727150000000  0.5564890000000  0.4446740000000 1.0
C      1  0.5813650000000  0.5141030000000  0.4680260000000 1.0
C      1  0.4875220000000  0.5813520000000  0.4470310000000 1.0
C      1  0.5030830000000  0.5086020000000  0.4577050000000 1.0
C      1  0.5174240000000  0.5260630000000  0.5254340000000 1.0
C      1  0.4727340000000  0.4124530000000  0.4972220000000 1.0
C      1  0.5551960000000  0.4549920000000  0.5394610000000 1.0
C      1  0.5072130000000  0.5352720000000  0.5896600000000 1.0
C      1  0.5792990000000  0.5346310000000  0.5308860000000 1.0
C      1  0.4563390000000  0.4616650000000  0.5236770000000 1.0
C      1  0.4660460000000  0.5166000000000  0.5717080000000 1.0
C      1  0.4587600000000  0.4975270000000  0.5240620000000 1.0
C      1  0.4884770000000  0.5239980000000  0.4038280000000 1.0
C      1  0.5168950000000  0.5793610000000  0.4515480000000 1.0
C      1  0.5164750000000  0.5753260000000  0.5274270000000 1.0
C      1  0.4765530000000  0.5184710000000  0.4789670000000 1.0
C      1  0.5731690000000  0.5586380000000  0.4595490000000 1.0
C      1  0.5615870000000  0.5013600000000  0.5614240000000 1.0
END
