TITL C-950526-5686-29 -9.12961176045906e-07 125000 -798.331430694419 0 0 130 (C1) n - 1
REM
REM in /home/bkarasulu/work/CARBON/AIRSS/Generating-Clusters/EDIP-Nigel-Params/with-SteepDescent/Only-C1/SD-CG/HFTN-CG
REM
REM
REM
REM
REM
REM ./C.cell (11c1c37f851c82e70ff6c80c92926a4b)
REM
REM compiler GCC version 9.2.1 20190827 (Red Hat 9.2.1-1)
REM options -cpp -mtune=generic -march=x86-64 -g -O0 -fpre-include=/usr/include/finclude/math-vector-fortran.h
REM seed -1545084433 -2017040880 1830809650 -1503424271 1451554973 128220248 693308100 773250462 -1704191331 -253055164 -986381269 -767702639 -160890470 -2022419580 -818269512 1609176498 39457260 89751298 -1749405572 141422352 1942089992 105176364 732975783 1959542225 -2042633206 291123664 -1885607958 1427368570 855495901 -145044157 -1587253589 1645534803 1718993727
REM
CELL 1.54180   50.00000   50.00000   50.00000   90.00000   90.00000   90.00000
LATT -1
SFAC C  
C      1  0.5439680000000  0.5849900000000  0.5164070000000 1.0
C      1  0.5079460000000  0.4901990000000  0.4048770000000 1.0
C      1  0.4961490000000  0.5645970000000  0.5336740000000 1.0
C      1  0.5191480000000  0.4315100000000  0.5756570000000 1.0
C      1  0.6010710000000  0.5025710000000  0.4742360000000 1.0
C      1  0.4684090000000  0.5042030000000  0.5826310000000 1.0
C      1  0.5146590000000  0.4127890000000  0.5292150000000 1.0
C      1  0.5629080000000  0.4779650000000  0.4834120000000 1.0
C      1  0.4541940000000  0.4646680000000  0.4082970000000 1.0
C      1  0.5289180000000  0.4104290000000  0.4554800000000 1.0
C      1  0.5640840000000  0.4993980000000  0.5416450000000 1.0
C      1  0.4951900000000  0.4204860000000  0.5853750000000 1.0
C      1  0.5337110000000  0.5044900000000  0.5954910000000 1.0
C      1  0.4553620000000  0.5147310000000  0.5023750000000 1.0
C      1  0.4724860000000  0.4392980000000  0.5201950000000 1.0
C      1  0.5126910000000  0.4785910000000  0.5959960000000 1.0
C      1  0.4840570000000  0.5427780000000  0.4318930000000 1.0
C      1  0.4922620000000  0.5499330000000  0.5895920000000 1.0
C      1  0.5626810000000  0.4146350000000  0.5187930000000 1.0
C      1  0.5173520000000  0.5469100000000  0.5725780000000 1.0
C      1  0.5529910000000  0.4717260000000  0.5515980000000 1.0
C      1  0.4766710000000  0.5866760000000  0.5253320000000 1.0
C      1  0.4329450000000  0.5619660000000  0.5181410000000 1.0
C      1  0.4633610000000  0.4582610000000  0.5820090000000 1.0
C      1  0.4440170000000  0.4122800000000  0.4943620000000 1.0
C      1  0.4505690000000  0.5785750000000  0.5357670000000 1.0
C      1  0.6010880000000  0.4945960000000  0.5304560000000 1.0
C      1  0.5700010000000  0.4806340000000  0.4389240000000 1.0
C      1  0.5445650000000  0.5238140000000  0.4236850000000 1.0
C      1  0.4853880000000  0.4892940000000  0.4264870000000 1.0
C      1  0.4248530000000  0.4597810000000  0.5459430000000 1.0
C      1  0.4916480000000  0.4711450000000  0.4815670000000 1.0
C      1  0.5332730000000  0.4456500000000  0.4238690000000 1.0
C      1  0.4061080000000  0.5564910000000  0.4767390000000 1.0
C      1  0.5892230000000  0.5481950000000  0.4676230000000 1.0
C      1  0.5150270000000  0.4293500000000  0.4380650000000 1.0
C      1  0.5314250000000  0.5048870000000  0.4080220000000 1.0
C      1  0.3943750000000  0.4836700000000  0.4815090000000 1.0
C      1  0.4435110000000  0.5005500000000  0.5667330000000 1.0
C      1  0.4475900000000  0.5838010000000  0.4729670000000 1.0
C      1  0.4761370000000  0.5784770000000  0.4699520000000 1.0
C      1  0.5435310000000  0.4651580000000  0.4419050000000 1.0
C      1  0.5439950000000  0.5739990000000  0.5447350000000 1.0
C      1  0.4815460000000  0.5163610000000  0.5166660000000 1.0
C      1  0.4824330000000  0.5118810000000  0.4485680000000 1.0
C      1  0.5253240000000  0.4535610000000  0.5911950000000 1.0
C      1  0.5007860000000  0.5411380000000  0.4084800000000 1.0
C      1  0.4431180000000  0.5340800000000  0.5268380000000 1.0
C      1  0.4001930000000  0.5069280000000  0.4962480000000 1.0
C      1  0.5039130000000  0.5174730000000  0.4977610000000 1.0
C      1  0.4650590000000  0.4104990000000  0.4751430000000 1.0
C      1  0.5197580000000  0.5675370000000  0.4424240000000 1.0
C      1  0.4263440000000  0.5155500000000  0.5446620000000 1.0
C      1  0.5291890000000  0.4986670000000  0.5667750000000 1.0
C      1  0.5276220000000  0.5538720000000  0.4679950000000 1.0
C      1  0.5398340000000  0.5822030000000  0.4726420000000 1.0
C      1  0.5164550000000  0.5713410000000  0.5556220000000 1.0
C      1  0.5461000000000  0.5456780000000  0.5840040000000 1.0
C      1  0.5177510000000  0.4607990000000  0.4904780000000 1.0
C      1  0.4464460000000  0.4251380000000  0.5194170000000 1.0
C      1  0.4079800000000  0.5049360000000  0.4321060000000 1.0
C      1  0.5725110000000  0.4314790000000  0.4975610000000 1.0
C      1  0.4171580000000  0.4413140000000  0.4674300000000 1.0
C      1  0.5346220000000  0.4110670000000  0.5085040000000 1.0
C      1  0.5356760000000  0.4577820000000  0.5310690000000 1.0
C      1  0.5905550000000  0.4660000000000  0.5287690000000 1.0
C      1  0.4128300000000  0.5186620000000  0.4556740000000 1.0
C      1  0.5896280000000  0.5125770000000  0.5542440000000 1.0
C      1  0.4709390000000  0.4657930000000  0.5023480000000 1.0
C      1  0.5647350000000  0.5107930000000  0.4454580000000 1.0
C      1  0.5269330000000  0.5283540000000  0.5254290000000 1.0
C      1  0.4920300000000  0.5988970000000  0.4855440000000 1.0
C      1  0.4360640000000  0.4623120000000  0.4303220000000 1.0
C      1  0.4781360000000  0.5269360000000  0.5945210000000 1.0
C      1  0.4787720000000  0.6086610000000  0.5078830000000 1.0
C      1  0.4916970000000  0.4093150000000  0.4870570000000 1.0
C      1  0.4598550000000  0.5298070000000  0.4743220000000 1.0
C      1  0.4856410000000  0.4319920000000  0.4334210000000 1.0
C      1  0.4561270000000  0.5618070000000  0.5587620000000 1.0
C      1  0.5174060000000  0.5567270000000  0.5139370000000 1.0
C      1  0.4789850000000  0.5381420000000  0.5389880000000 1.0
C      1  0.5217630000000  0.4756070000000  0.5141670000000 1.0
C      1  0.5168000000000  0.5224590000000  0.5536730000000 1.0
C      1  0.5535300000000  0.5167210000000  0.5189720000000 1.0
C      1  0.4782180000000  0.5527020000000  0.4824220000000 1.0
C      1  0.4743430000000  0.5685150000000  0.5786950000000 1.0
C      1  0.4618050000000  0.5451190000000  0.4146850000000 1.0
C      1  0.4861570000000  0.4462420000000  0.5459160000000 1.0
C      1  0.4773330000000  0.4494060000000  0.4130870000000 1.0
C      1  0.4985780000000  0.4997220000000  0.4729700000000 1.0
C      1  0.5498990000000  0.5041000000000  0.4710480000000 1.0
C      1  0.5872450000000  0.4767190000000  0.4653390000000 1.0
C      1  0.5619890000000  0.5551090000000  0.5595200000000 1.0
C      1  0.5982170000000  0.5110350000000  0.5046370000000 1.0
C      1  0.4482490000000  0.4849790000000  0.5045600000000 1.0
C      1  0.5685900000000  0.4269490000000  0.5439670000000 1.0
C      1  0.4343610000000  0.5387820000000  0.4574650000000 1.0
C      1  0.5620930000000  0.5782780000000  0.4935470000000 1.0
C      1  0.5428610000000  0.4575280000000  0.4713740000000 1.0
C      1  0.5851970000000  0.5410600000000  0.5451230000000 1.0
C      1  0.3920980000000  0.5325860000000  0.4850970000000 1.0
C      1  0.5241500000000  0.4991250000000  0.4627390000000 1.0
C      1  0.5532280000000  0.5241240000000  0.6005950000000 1.0
C      1  0.4265730000000  0.4337400000000  0.5364610000000 1.0
C      1  0.5063500000000  0.5462590000000  0.4881650000000 1.0
C      1  0.4399690000000  0.5478870000000  0.4309300000000 1.0
C      1  0.5770310000000  0.4528300000000  0.5522890000000 1.0
C      1  0.4261920000000  0.4821480000000  0.5259290000000 1.0
C      1  0.4593050000000  0.4910140000000  0.3981350000000 1.0
C      1  0.5680980000000  0.4587350000000  0.5096360000000 1.0
C      1  0.4825480000000  0.4798860000000  0.5891520000000 1.0
C      1  0.4892960000000  0.4145050000000  0.5147060000000 1.0
C      1  0.4630340000000  0.4267880000000  0.4516020000000 1.0
C      1  0.4431890000000  0.4717450000000  0.5649960000000 1.0
C      1  0.4892740000000  0.5710070000000  0.4435130000000 1.0
C      1  0.5204340000000  0.5980110000000  0.4882380000000 1.0
C      1  0.5152280000000  0.4372510000000  0.5460680000000 1.0
C      1  0.4036580000000  0.5026030000000  0.5249840000000 1.0
C      1  0.4372690000000  0.4396240000000  0.4474810000000 1.0
C      1  0.4133620000000  0.4781140000000  0.4375440000000 1.0
C      1  0.5770430000000  0.5537110000000  0.4918970000000 1.0
C      1  0.4290020000000  0.5690330000000  0.4890810000000 1.0
C      1  0.4046120000000  0.4662610000000  0.4621620000000 1.0
C      1  0.5790300000000  0.5333130000000  0.5139790000000 1.0
C      1  0.5266410000000  0.5476920000000  0.4202820000000 1.0
C      1  0.4751030000000  0.4338370000000  0.5702590000000 1.0
C      1  0.4851740000000  0.4982820000000  0.3886480000000 1.0
C      1  0.5552000000000  0.4304680000000  0.4743640000000 1.0
C      1  0.5908650000000  0.5235250000000  0.4550150000000 1.0
C      1  0.5201290000000  0.4046580000000  0.4824030000000 1.0
END
