TITL C-950527-2551-73 4.44400953583452e-07 125000 -859.848211447075 0 0 137 (C1) n - 1
REM
REM in /home/bkarasulu/work/CARBON/AIRSS/Generating-Clusters/EDIP-Nigel-Params/with-SteepDescent/Only-C1/SD-CG/HFTN-CG
REM
REM
REM
REM
REM
REM ./C.cell (11c1c37f851c82e70ff6c80c92926a4b)
REM
REM compiler GCC version 9.2.1 20190827 (Red Hat 9.2.1-1)
REM options -cpp -mtune=generic -march=x86-64 -g -O0 -fpre-include=/usr/include/finclude/math-vector-fortran.h
REM seed -981033469 -1902967743 2098681558 1634147127 1443284963 1176788807 1789551106 -1799785908 -1816567982 -2017617570 722395633 -121717211 1933454088 1407642065 -1721844057 504328836 -730963767 1369671032 -1166788397 828502108 630245359 1416503541 1108281955 1294114002 1567842224 -516772033 679433218 958369841 412136570 103256848 125700158 -530562246 1797534888
REM
CELL 1.54180   50.00000   50.00000   50.00000   90.00000   90.00000   90.00000
LATT -1
SFAC C  
C      1  0.4510070000000  0.5928270000000  0.5166590000000 1.0
C      1  0.4319460000000  0.5494810000000  0.5318020000000 1.0
C      1  0.5412630000000  0.5703270000000  0.4617930000000 1.0
C      1  0.4598750000000  0.4584380000000  0.4239100000000 1.0
C      1  0.4656930000000  0.5529670000000  0.4116420000000 1.0
C      1  0.5227340000000  0.5247920000000  0.5830780000000 1.0
C      1  0.5114180000000  0.4468210000000  0.4315920000000 1.0
C      1  0.4954600000000  0.4145780000000  0.5292270000000 1.0
C      1  0.4689730000000  0.4860080000000  0.5283150000000 1.0
C      1  0.4205560000000  0.4680000000000  0.5460490000000 1.0
C      1  0.5086150000000  0.5324510000000  0.4406840000000 1.0
C      1  0.5555120000000  0.5201520000000  0.5014450000000 1.0
C      1  0.5206720000000  0.5902500000000  0.4717750000000 1.0
C      1  0.4851800000000  0.5681040000000  0.5412260000000 1.0
C      1  0.4903790000000  0.5405620000000  0.4643330000000 1.0
C      1  0.5635940000000  0.4475410000000  0.5424230000000 1.0
C      1  0.5457110000000  0.5149720000000  0.4235620000000 1.0
C      1  0.4935730000000  0.3995740000000  0.4810560000000 1.0
C      1  0.4838370000000  0.4652040000000  0.5854240000000 1.0
C      1  0.4939490000000  0.5559190000000  0.4138980000000 1.0
C      1  0.5798110000000  0.5413860000000  0.4626590000000 1.0
C      1  0.6006400000000  0.5281580000000  0.5272950000000 1.0
C      1  0.5064770000000  0.4578200000000  0.5094700000000 1.0
C      1  0.5107010000000  0.5500380000000  0.5728780000000 1.0
C      1  0.5740360000000  0.5678820000000  0.5032390000000 1.0
C      1  0.4408800000000  0.5275680000000  0.5896300000000 1.0
C      1  0.4206490000000  0.5014930000000  0.4498770000000 1.0
C      1  0.5651500000000  0.4669600000000  0.4886640000000 1.0
C      1  0.5266370000000  0.5276070000000  0.5085550000000 1.0
C      1  0.4393240000000  0.4791030000000  0.4566800000000 1.0
C      1  0.5443800000000  0.5032690000000  0.5806880000000 1.0
C      1  0.6054010000000  0.5036180000000  0.5123740000000 1.0
C      1  0.5312580000000  0.4785220000000  0.5896330000000 1.0
C      1  0.5079750000000  0.5750650000000  0.4293680000000 1.0
C      1  0.4455790000000  0.5686320000000  0.4584220000000 1.0
C      1  0.6043890000000  0.5297860000000  0.4702100000000 1.0
C      1  0.5968790000000  0.5064990000000  0.4842580000000 1.0
C      1  0.5370330000000  0.5680670000000  0.4316300000000 1.0
C      1  0.4426100000000  0.4192500000000  0.4430490000000 1.0
C      1  0.4416630000000  0.4143790000000  0.4726430000000 1.0
C      1  0.4167160000000  0.4501540000000  0.5215320000000 1.0
C      1  0.5550860000000  0.4297190000000  0.4464710000000 1.0
C      1  0.5712400000000  0.4836780000000  0.4477380000000 1.0
C      1  0.4745780000000  0.5147030000000  0.5759700000000 1.0
C      1  0.5259880000000  0.4273630000000  0.4478300000000 1.0
C      1  0.4985290000000  0.5118230000000  0.5937080000000 1.0
C      1  0.5493480000000  0.5033860000000  0.4514720000000 1.0
C      1  0.5096930000000  0.4866380000000  0.4983430000000 1.0
C      1  0.4788480000000  0.5262000000000  0.5466820000000 1.0
C      1  0.5674130000000  0.5017690000000  0.5613070000000 1.0
C      1  0.5312010000000  0.4663400000000  0.4211100000000 1.0
C      1  0.4754570000000  0.4574710000000  0.5197560000000 1.0
C      1  0.4387890000000  0.5670520000000  0.5562390000000 1.0
C      1  0.4793470000000  0.4210400000000  0.4646390000000 1.0
C      1  0.5563190000000  0.4591530000000  0.4364370000000 1.0
C      1  0.5890510000000  0.4814290000000  0.5237240000000 1.0
C      1  0.5957560000000  0.4559250000000  0.5098110000000 1.0
C      1  0.5101790000000  0.5855160000000  0.5400500000000 1.0
C      1  0.4705850000000  0.5791010000000  0.4692560000000 1.0
C      1  0.5507870000000  0.5647780000000  0.5460080000000 1.0
C      1  0.5407960000000  0.4525320000000  0.5928250000000 1.0
C      1  0.4121120000000  0.4651460000000  0.4958670000000 1.0
C      1  0.4741460000000  0.4938050000000  0.4669550000000 1.0
C      1  0.4708550000000  0.5777420000000  0.4991050000000 1.0
C      1  0.5244800000000  0.4133030000000  0.5298660000000 1.0
C      1  0.4399550000000  0.4312180000000  0.5213500000000 1.0
C      1  0.4444750000000  0.5166150000000  0.4361290000000 1.0
C      1  0.4393310000000  0.4750020000000  0.4866890000000 1.0
C      1  0.3920300000000  0.5446420000000  0.5052640000000 1.0
C      1  0.4970100000000  0.5832880000000  0.4559150000000 1.0
C      1  0.5277400000000  0.4572090000000  0.5312830000000 1.0
C      1  0.5251470000000  0.4367080000000  0.5757790000000 1.0
C      1  0.4528030000000  0.5270630000000  0.5290210000000 1.0
C      1  0.5212930000000  0.3998430000000  0.4839560000000 1.0
C      1  0.5615570000000  0.4887300000000  0.5110800000000 1.0
C      1  0.5735240000000  0.5404370000000  0.5176300000000 1.0
C      1  0.5613030000000  0.4239610000000  0.4972130000000 1.0
C      1  0.5233650000000  0.4873900000000  0.4685420000000 1.0
C      1  0.4409450000000  0.5042360000000  0.5006500000000 1.0
C      1  0.5847490000000  0.5256090000000  0.5543020000000 1.0
C      1  0.5862930000000  0.4812640000000  0.4720560000000 1.0
C      1  0.4649030000000  0.5219040000000  0.4599430000000 1.0
C      1  0.4381600000000  0.4938580000000  0.5424720000000 1.0
C      1  0.4829820000000  0.5536750000000  0.5128760000000 1.0
C      1  0.5254850000000  0.4953050000000  0.4142460000000 1.0
C      1  0.4567390000000  0.4747520000000  0.5778560000000 1.0
C      1  0.4039960000000  0.5406940000000  0.4800040000000 1.0
C      1  0.5712280000000  0.5502250000000  0.5578040000000 1.0
C      1  0.4974850000000  0.5323980000000  0.4954120000000 1.0
C      1  0.5298000000000  0.5427170000000  0.4672550000000 1.0
C      1  0.3989990000000  0.4923430000000  0.4990940000000 1.0
C      1  0.4406430000000  0.4552700000000  0.5637920000000 1.0
C      1  0.5687640000000  0.4241710000000  0.4703140000000 1.0
C      1  0.4568210000000  0.4857210000000  0.4169350000000 1.0
C      1  0.4839050000000  0.5018090000000  0.4952600000000 1.0
C      1  0.4648710000000  0.4582830000000  0.4917770000000 1.0
C      1  0.5538920000000  0.5799900000000  0.5216250000000 1.0
C      1  0.5009560000000  0.5040360000000  0.4282630000000 1.0
C      1  0.4929700000000  0.5014130000000  0.5387400000000 1.0
C      1  0.4498380000000  0.5283890000000  0.4846990000000 1.0
C      1  0.4367510000000  0.4470570000000  0.4362160000000 1.0
C      1  0.4339600000000  0.5684030000000  0.5078810000000 1.0
C      1  0.4767590000000  0.5041680000000  0.4092610000000 1.0
C      1  0.4794600000000  0.4051920000000  0.5060230000000 1.0
C      1  0.4323270000000  0.5522890000000  0.4810540000000 1.0
C      1  0.4527050000000  0.5526250000000  0.5783600000000 1.0
C      1  0.5259510000000  0.5702140000000  0.5590310000000 1.0
C      1  0.5266570000000  0.5882420000000  0.5157210000000 1.0
C      1  0.4863940000000  0.4513080000000  0.4701640000000 1.0
C      1  0.5386150000000  0.4617770000000  0.4711000000000 1.0
C      1  0.4823970000000  0.4281160000000  0.5510810000000 1.0
C      1  0.4835780000000  0.4408130000000  0.4222090000000 1.0
C      1  0.5402430000000  0.4268720000000  0.5522070000000 1.0
C      1  0.5553060000000  0.5258710000000  0.4707790000000 1.0
C      1  0.4825750000000  0.5568150000000  0.5781810000000 1.0
C      1  0.5153650000000  0.4421200000000  0.4821250000000 1.0
C      1  0.5037160000000  0.4833840000000  0.5972680000000 1.0
C      1  0.4481630000000  0.5597920000000  0.4322800000000 1.0
C      1  0.5200930000000  0.6055550000000  0.4951890000000 1.0
C      1  0.5190300000000  0.5022660000000  0.5227810000000 1.0
C      1  0.4969420000000  0.4429870000000  0.5712600000000 1.0
C      1  0.4548310000000  0.4365080000000  0.5459890000000 1.0
C      1  0.4414780000000  0.4984820000000  0.5862370000000 1.0
C      1  0.4732300000000  0.4160260000000  0.4350400000000 1.0
C      1  0.4057470000000  0.5111310000000  0.4747990000000 1.0
C      1  0.5371010000000  0.4104210000000  0.5040900000000 1.0
C      1  0.4593360000000  0.5856280000000  0.5443570000000 1.0
C      1  0.5443260000000  0.5433400000000  0.4192570000000 1.0
C      1  0.4055000000000  0.5353910000000  0.5280760000000 1.0
C      1  0.5787410000000  0.4756940000000  0.5522620000000 1.0
C      1  0.5769150000000  0.4366580000000  0.5180110000000 1.0
C      1  0.4978560000000  0.4834990000000  0.4513480000000 1.0
C      1  0.4108610000000  0.5059240000000  0.5251760000000 1.0
C      1  0.4528800000000  0.4164390000000  0.4996570000000 1.0
C      1  0.5708340000000  0.5683380000000  0.4727450000000 1.0
C      1  0.4602450000000  0.5271150000000  0.4021930000000 1.0
C      1  0.5404530000000  0.4835400000000  0.5315480000000 1.0
END
