TITL C-950526-5686-441 -2.365489383456e-06 125000 -394.060606098502 0 0 64 (C1) n - 1
REM
REM in /home/bkarasulu/work/CARBON/AIRSS/Generating-Clusters/EDIP-Nigel-Params/with-SteepDescent/Only-C1/SD-CG/HFTN-CG
REM
REM
REM
REM
REM
REM ./C.cell (11c1c37f851c82e70ff6c80c92926a4b)
REM
REM compiler GCC version 9.2.1 20190827 (Red Hat 9.2.1-1)
REM options -cpp -mtune=generic -march=x86-64 -g -O0 -fpre-include=/usr/include/finclude/math-vector-fortran.h
REM seed -877666955 -11388467 187812861 -429647496 -993136369 1559844453 -2079086303 -741740428 1320438283 607159712 -2018198404 -420356459 -953403793 988945366 653923337 967039475 58010459 -794008336 -596114010 -87662715 727594875 -1553043931 -2090852603 2003151054 -122690167 1474387730 1475957479 -1291814970 1842191117 -1621692103 35125704 -1181734305 336487398
REM
CELL 1.54180   50.00000   50.00000   50.00000   90.00000   90.00000   90.00000
LATT -1
SFAC C  
C      1  0.4759480000000  0.4387100000000  0.4777110000000 1.0
C      1  0.5289170000000  0.5041280000000  0.4348670000000 1.0
C      1  0.4979540000000  0.4732750000000  0.5525070000000 1.0
C      1  0.5286810000000  0.5371480000000  0.4900080000000 1.0
C      1  0.5691010000000  0.5565090000000  0.5068130000000 1.0
C      1  0.5533160000000  0.5098070000000  0.4510330000000 1.0
C      1  0.5430570000000  0.4632150000000  0.4546590000000 1.0
C      1  0.5000650000000  0.5027610000000  0.5591750000000 1.0
C      1  0.4231640000000  0.4432700000000  0.4943960000000 1.0
C      1  0.4776970000000  0.4547860000000  0.5428280000000 1.0
C      1  0.4647140000000  0.5293330000000  0.5639010000000 1.0
C      1  0.4306130000000  0.4227710000000  0.4782090000000 1.0
C      1  0.5571280000000  0.5163510000000  0.5268180000000 1.0
C      1  0.4805830000000  0.5486710000000  0.5490430000000 1.0
C      1  0.4530100000000  0.5275290000000  0.4727710000000 1.0
C      1  0.4890190000000  0.4641020000000  0.4780680000000 1.0
C      1  0.4959150000000  0.4813830000000  0.5001260000000 1.0
C      1  0.4813680000000  0.5174800000000  0.4779250000000 1.0
C      1  0.4673410000000  0.4915650000000  0.4304370000000 1.0
C      1  0.5055910000000  0.5478520000000  0.4495840000000 1.0
C      1  0.5004770000000  0.5419470000000  0.4774140000000 1.0
C      1  0.5128080000000  0.4350450000000  0.4877320000000 1.0
C      1  0.5765640000000  0.5339510000000  0.4874670000000 1.0
C      1  0.5628300000000  0.5452740000000  0.5342190000000 1.0
C      1  0.5416690000000  0.4870740000000  0.5631310000000 1.0
C      1  0.4897420000000  0.4322660000000  0.5314910000000 1.0
C      1  0.5646380000000  0.4837230000000  0.4615040000000 1.0
C      1  0.4407970000000  0.4799180000000  0.4690740000000 1.0
C      1  0.4282970000000  0.4708650000000  0.4938440000000 1.0
C      1  0.4583770000000  0.5590630000000  0.5054500000000 1.0
C      1  0.5418130000000  0.5598150000000  0.5465300000000 1.0
C      1  0.4609060000000  0.4645230000000  0.4269920000000 1.0
C      1  0.5275890000000  0.5708430000000  0.5248000000000 1.0
C      1  0.4814440000000  0.5065120000000  0.5085910000000 1.0
C      1  0.5384300000000  0.4487450000000  0.4803240000000 1.0
C      1  0.5002840000000  0.5201090000000  0.5312100000000 1.0
C      1  0.5278270000000  0.5158180000000  0.5137270000000 1.0
C      1  0.5359350000000  0.4492320000000  0.5285580000000 1.0
C      1  0.5702250000000  0.4827840000000  0.4915820000000 1.0
C      1  0.4439700000000  0.4585130000000  0.4487610000000 1.0
C      1  0.5236190000000  0.4892040000000  0.5011460000000 1.0
C      1  0.5050670000000  0.5220850000000  0.4377550000000 1.0
C      1  0.5763490000000  0.5093700000000  0.5047740000000 1.0
C      1  0.5202340000000  0.4772150000000  0.4424220000000 1.0
C      1  0.4521050000000  0.4635830000000  0.5355580000000 1.0
C      1  0.4982160000000  0.5702600000000  0.5213650000000 1.0
C      1  0.5446740000000  0.4680440000000  0.5025520000000 1.0
C      1  0.4890230000000  0.4981420000000  0.4509640000000 1.0
C      1  0.5619170000000  0.4973570000000  0.5477320000000 1.0
C      1  0.4484480000000  0.5183340000000  0.5448610000000 1.0
C      1  0.4615530000000  0.5648610000000  0.5338800000000 1.0
C      1  0.4790600000000  0.5103670000000  0.5777620000000 1.0
C      1  0.5249020000000  0.5066960000000  0.5738060000000 1.0
C      1  0.5142630000000  0.4313070000000  0.5174800000000 1.0
C      1  0.4370560000000  0.5072640000000  0.4585550000000 1.0
C      1  0.5404940000000  0.5631390000000  0.5002410000000 1.0
C      1  0.4430530000000  0.5330670000000  0.4993750000000 1.0
C      1  0.5258830000000  0.4644670000000  0.5525750000000 1.0
C      1  0.4445730000000  0.5082900000000  0.4312770000000 1.0
C      1  0.4518650000000  0.4330390000000  0.4622760000000 1.0
C      1  0.4868100000000  0.5634480000000  0.4942270000000 1.0
C      1  0.5522640000000  0.5327220000000  0.4699430000000 1.0
C      1  0.4394060000000  0.4817120000000  0.5182510000000 1.0
C      1  0.4513650000000  0.5093600000000  0.5179430000000 1.0
END
