TITL C-950524-1808-322 -1.24328143238516e-07 125000 -854.667960760805 0 0 136 (C1) n - 1
REM
REM in /home/bkarasulu/work/CARBON/AIRSS/Generating-Clusters/EDIP-Nigel-Params/with-SteepDescent/Only-C1/SD-CG/HFTN-CG
REM
REM
REM
REM
REM
REM ./C.cell (11c1c37f851c82e70ff6c80c92926a4b)
REM
REM compiler GCC version 9.2.1 20190827 (Red Hat 9.2.1-1)
REM options -cpp -mtune=generic -march=x86-64 -g -O0 -fpre-include=/usr/include/finclude/math-vector-fortran.h
REM seed 1229953254 -102081181 -157388287 1422807310 -356282397 516481325 -107867904 1413162118 1906241335 1531205012 793358891 -1177929879 -1439544031 1276683770 949454570 1740246263 1943806146 1916445353 -209036016 1913638716 -939697039 -1853385579 1114825561 -1102686721 1606658270 536168582 762653931 -620587522 1342890315 -833435531 -77268578 225002100 62221090
REM
CELL 1.54180   50.00000   50.00000   50.00000   90.00000   90.00000   90.00000
LATT -1
SFAC C  
C      1  0.5483780000000  0.5655030000000  0.4526790000000 1.0
C      1  0.4251820000000  0.5388090000000  0.4375950000000 1.0
C      1  0.4294410000000  0.5099480000000  0.4383700000000 1.0
C      1  0.5183920000000  0.4367920000000  0.4679330000000 1.0
C      1  0.5803140000000  0.5504400000000  0.5227610000000 1.0
C      1  0.5769390000000  0.4978490000000  0.4263040000000 1.0
C      1  0.5121470000000  0.5249210000000  0.5377610000000 1.0
C      1  0.4475630000000  0.5043660000000  0.5777190000000 1.0
C      1  0.5736790000000  0.4410270000000  0.4910210000000 1.0
C      1  0.5513460000000  0.4257840000000  0.5325180000000 1.0
C      1  0.5354590000000  0.5343120000000  0.4704840000000 1.0
C      1  0.5336220000000  0.5223300000000  0.4161670000000 1.0
C      1  0.4502510000000  0.5701840000000  0.4987020000000 1.0
C      1  0.5323460000000  0.4646470000000  0.5065930000000 1.0
C      1  0.5180370000000  0.5700890000000  0.5615910000000 1.0
C      1  0.4787290000000  0.5020710000000  0.5142960000000 1.0
C      1  0.5227080000000  0.5384220000000  0.5636420000000 1.0
C      1  0.4079380000000  0.5133840000000  0.4923440000000 1.0
C      1  0.5053000000000  0.4250310000000  0.4263390000000 1.0
C      1  0.5915510000000  0.5005950000000  0.5302540000000 1.0
C      1  0.4673100000000  0.5591490000000  0.4263550000000 1.0
C      1  0.5043430000000  0.5610210000000  0.5962950000000 1.0
C      1  0.5474900000000  0.5933360000000  0.5292550000000 1.0
C      1  0.5123020000000  0.4738870000000  0.5474900000000 1.0
C      1  0.6015230000000  0.4990410000000  0.4397180000000 1.0
C      1  0.5613370000000  0.4705370000000  0.5567470000000 1.0
C      1  0.5236440000000  0.4966590000000  0.4052700000000 1.0
C      1  0.5606300000000  0.4541230000000  0.5312920000000 1.0
C      1  0.5014390000000  0.6010940000000  0.4744090000000 1.0
C      1  0.5232510000000  0.4882150000000  0.4592550000000 1.0
C      1  0.4621810000000  0.4677810000000  0.4266450000000 1.0
C      1  0.5459210000000  0.5358130000000  0.4973800000000 1.0
C      1  0.4410310000000  0.5527440000000  0.4191750000000 1.0
C      1  0.5281520000000  0.4208960000000  0.4443710000000 1.0
C      1  0.5285200000000  0.5952490000000  0.5089670000000 1.0
C      1  0.4300030000000  0.4731830000000  0.5199720000000 1.0
C      1  0.4431100000000  0.4653240000000  0.5701060000000 1.0
C      1  0.4699700000000  0.5915890000000  0.5394570000000 1.0
C      1  0.4895890000000  0.4459870000000  0.4619450000000 1.0
C      1  0.5340090000000  0.4710190000000  0.4139410000000 1.0
C      1  0.4326420000000  0.4254020000000  0.5058010000000 1.0
C      1  0.4616550000000  0.5950750000000  0.5119760000000 1.0
C      1  0.4823230000000  0.5180350000000  0.5394100000000 1.0
C      1  0.5338550000000  0.4644660000000  0.5691240000000 1.0
C      1  0.4944190000000  0.4926390000000  0.4025390000000 1.0
C      1  0.5031360000000  0.5812760000000  0.5135860000000 1.0
C      1  0.3828480000000  0.5073500000000  0.5054620000000 1.0
C      1  0.4125860000000  0.4935620000000  0.4537260000000 1.0
C      1  0.4760970000000  0.5112750000000  0.4168860000000 1.0
C      1  0.5354120000000  0.4929010000000  0.5114820000000 1.0
C      1  0.5136450000000  0.5423610000000  0.4247030000000 1.0
C      1  0.5072060000000  0.4026200000000  0.5361550000000 1.0
C      1  0.4856170000000  0.5408230000000  0.5878080000000 1.0
C      1  0.4046090000000  0.4626120000000  0.5076520000000 1.0
C      1  0.5329520000000  0.4626830000000  0.4746390000000 1.0
C      1  0.4477920000000  0.4415430000000  0.5280000000000 1.0
C      1  0.5050240000000  0.4565580000000  0.5218020000000 1.0
C      1  0.4940990000000  0.5138490000000  0.5867400000000 1.0
C      1  0.4288990000000  0.5475340000000  0.5375270000000 1.0
C      1  0.4755330000000  0.4259190000000  0.4456530000000 1.0
C      1  0.5674750000000  0.4939830000000  0.4751650000000 1.0
C      1  0.4568200000000  0.5406800000000  0.5813930000000 1.0
C      1  0.4765670000000  0.5009690000000  0.5666300000000 1.0
C      1  0.4692970000000  0.5469310000000  0.5040460000000 1.0
C      1  0.4472580000000  0.4390240000000  0.5591830000000 1.0
C      1  0.4258740000000  0.5041600000000  0.5577050000000 1.0
C      1  0.5019020000000  0.4609940000000  0.6042280000000 1.0
C      1  0.5950890000000  0.5012000000000  0.4669760000000 1.0
C      1  0.4491470000000  0.4971360000000  0.4209740000000 1.0
C      1  0.4710980000000  0.5669630000000  0.4540820000000 1.0
C      1  0.4772210000000  0.4311870000000  0.5209500000000 1.0
C      1  0.5611650000000  0.5495020000000  0.5451170000000 1.0
C      1  0.4820430000000  0.4736850000000  0.5119910000000 1.0
C      1  0.4575850000000  0.4848740000000  0.4739610000000 1.0
C      1  0.5595540000000  0.5254180000000  0.5633140000000 1.0
C      1  0.4992690000000  0.4924980000000  0.4419300000000 1.0
C      1  0.5210170000000  0.5054850000000  0.5932490000000 1.0
C      1  0.4932650000000  0.4474220000000  0.5789200000000 1.0
C      1  0.4259440000000  0.4768760000000  0.5502720000000 1.0
C      1  0.5590930000000  0.5074470000000  0.5020530000000 1.0
C      1  0.4304080000000  0.4755610000000  0.4660940000000 1.0
C      1  0.5534910000000  0.4281750000000  0.4353680000000 1.0
C      1  0.4784520000000  0.4736370000000  0.4520650000000 1.0
C      1  0.4820340000000  0.6082470000000  0.4956130000000 1.0
C      1  0.4678340000000  0.5448510000000  0.5347610000000 1.0
C      1  0.5453030000000  0.5083230000000  0.4588730000000 1.0
C      1  0.5679680000000  0.5580890000000  0.4966750000000 1.0
C      1  0.5924030000000  0.5246820000000  0.5128770000000 1.0
C      1  0.4860070000000  0.4729100000000  0.5615320000000 1.0
C      1  0.3859240000000  0.4814000000000  0.4970480000000 1.0
C      1  0.5989470000000  0.4778440000000  0.5160420000000 1.0
C      1  0.4860720000000  0.5396480000000  0.4159320000000 1.0
C      1  0.5103630000000  0.4507700000000  0.4122500000000 1.0
C      1  0.5577840000000  0.5194300000000  0.4337910000000 1.0
C      1  0.5687420000000  0.4506170000000  0.4418090000000 1.0
C      1  0.4790530000000  0.4038140000000  0.4953730000000 1.0
C      1  0.5199430000000  0.5615410000000  0.4466080000000 1.0
C      1  0.6013400000000  0.5254580000000  0.4827440000000 1.0
C      1  0.5854290000000  0.4537600000000  0.5155730000000 1.0
C      1  0.4705600000000  0.4061850000000  0.4676400000000 1.0
C      1  0.4789310000000  0.4104060000000  0.5441110000000 1.0
C      1  0.5280620000000  0.6071280000000  0.4833630000000 1.0
C      1  0.5628620000000  0.4715300000000  0.4222890000000 1.0
C      1  0.4717620000000  0.4253170000000  0.5697670000000 1.0
C      1  0.5631180000000  0.4607180000000  0.4700970000000 1.0
C      1  0.4952960000000  0.5780410000000  0.5419970000000 1.0
C      1  0.5524770000000  0.4212060000000  0.5026700000000 1.0
C      1  0.4245670000000  0.5603620000000  0.5104680000000 1.0
C      1  0.4849850000000  0.4644270000000  0.4056280000000 1.0
C      1  0.4114340000000  0.5438620000000  0.4887850000000 1.0
C      1  0.4584140000000  0.5112220000000  0.4949630000000 1.0
C      1  0.5417610000000  0.5258680000000  0.5974780000000 1.0
C      1  0.4095480000000  0.4383680000000  0.4932230000000 1.0
C      1  0.4312620000000  0.4456480000000  0.4617930000000 1.0
C      1  0.5306840000000  0.5521260000000  0.6008170000000 1.0
C      1  0.4247110000000  0.5528900000000  0.4637440000000 1.0
C      1  0.4518520000000  0.4356590000000  0.4834060000000 1.0
C      1  0.5244890000000  0.4209500000000  0.4929310000000 1.0
C      1  0.5455030000000  0.5739390000000  0.5494110000000 1.0
C      1  0.5855240000000  0.5492180000000  0.4727730000000 1.0
C      1  0.4636010000000  0.4631880000000  0.4928640000000 1.0
C      1  0.4983660000000  0.5561270000000  0.4970800000000 1.0
C      1  0.4318760000000  0.5043440000000  0.5094870000000 1.0
C      1  0.5218920000000  0.4364850000000  0.5696760000000 1.0
C      1  0.4468140000000  0.5716930000000  0.4691850000000 1.0
C      1  0.4495420000000  0.5574360000000  0.5586470000000 1.0
C      1  0.4495130000000  0.4409920000000  0.4366300000000 1.0
C      1  0.4979730000000  0.5717350000000  0.4665690000000 1.0
C      1  0.5253260000000  0.4763460000000  0.5957520000000 1.0
C      1  0.5063260000000  0.4017930000000  0.5055670000000 1.0
C      1  0.5707030000000  0.4989440000000  0.5513610000000 1.0
C      1  0.4318810000000  0.5191370000000  0.5346860000000 1.0
C      1  0.5696100000000  0.5469100000000  0.4459440000000 1.0
C      1  0.5248680000000  0.4242700000000  0.5439280000000 1.0
C      1  0.5247940000000  0.4990230000000  0.5367790000000 1.0
C      1  0.5195070000000  0.5396800000000  0.5115350000000 1.0
END
