TITL C-951347-9520-286 -1.00080003682829e-06 125000 -829.03827731915 0 0 131 (C1) n - 1
REM
REM in /home/bkarasulu/work/CARBON/AIRSS/Generating-Clusters/EDIP-Nigel-Params/with-SteepDescent/Only-C1/SD-CG/HFTN-CG
REM
REM
REM
REM
REM
REM ./C.cell (11c1c37f851c82e70ff6c80c92926a4b)
REM
REM compiler GCC version 9.2.1 20190827 (Red Hat 9.2.1-1)
REM options -cpp -mtune=generic -march=x86-64 -g -O0 -fpre-include=/usr/include/finclude/math-vector-fortran.h
REM seed -1529440888 611993079 1929311697 -1661733464 1085268930 -503067217 2018281155 1923771861 1505520599 331177608 -1904103763 882154598 -160345211 -1884755069 981944439 2028070729 1079778831 1262536150 -849410616 -1597767175 811521606 1860512450 -1847315201 693552424 1080589435 439461742 1440673713 959942113 1005734702 -1350190617 -2052539158 1185984674 -1901515995
REM
CELL 1.54180   50.00000   50.00000   50.00000   90.00000   90.00000   90.00000
LATT -1
SFAC C  
C      1  0.4711790000000  0.5477190000000  0.5661880000000 1.0
C      1  0.5499500000000  0.5169600000000  0.5693960000000 1.0
C      1  0.5354220000000  0.4039130000000  0.4864190000000 1.0
C      1  0.5458280000000  0.5046250000000  0.5221620000000 1.0
C      1  0.5749890000000  0.5591390000000  0.5312060000000 1.0
C      1  0.4817510000000  0.5713360000000  0.4262300000000 1.0
C      1  0.4692120000000  0.5804960000000  0.5056760000000 1.0
C      1  0.5403880000000  0.4786790000000  0.4201010000000 1.0
C      1  0.5153400000000  0.5400080000000  0.5386140000000 1.0
C      1  0.4966010000000  0.4839610000000  0.4698570000000 1.0
C      1  0.4970500000000  0.5598400000000  0.5734760000000 1.0
C      1  0.4447300000000  0.5571840000000  0.4549060000000 1.0
C      1  0.5232630000000  0.4308910000000  0.5514800000000 1.0
C      1  0.5097590000000  0.4439010000000  0.4139630000000 1.0
C      1  0.5335250000000  0.5202410000000  0.4554790000000 1.0
C      1  0.5268530000000  0.5141980000000  0.5471330000000 1.0
C      1  0.5486160000000  0.4919490000000  0.5860580000000 1.0
C      1  0.5040070000000  0.5284430000000  0.4495170000000 1.0
C      1  0.4050320000000  0.5009790000000  0.5368200000000 1.0
C      1  0.5228080000000  0.5444970000000  0.4201910000000 1.0
C      1  0.4691600000000  0.4986150000000  0.5379130000000 1.0
C      1  0.4426750000000  0.4198340000000  0.4826000000000 1.0
C      1  0.4994620000000  0.4997670000000  0.4980260000000 1.0
C      1  0.4378900000000  0.5477200000000  0.4826940000000 1.0
C      1  0.4947400000000  0.5495370000000  0.4687710000000 1.0
C      1  0.4986860000000  0.4180900000000  0.4170460000000 1.0
C      1  0.5315900000000  0.5441120000000  0.4960910000000 1.0
C      1  0.5127560000000  0.4621650000000  0.5926830000000 1.0
C      1  0.5528470000000  0.5660210000000  0.5738740000000 1.0
C      1  0.4685370000000  0.4747240000000  0.4139730000000 1.0
C      1  0.4384860000000  0.5130280000000  0.4325280000000 1.0
C      1  0.5766770000000  0.5638340000000  0.5022600000000 1.0
C      1  0.4177370000000  0.4744180000000  0.5345780000000 1.0
C      1  0.5364270000000  0.4453510000000  0.4545610000000 1.0
C      1  0.4402840000000  0.5721550000000  0.5029900000000 1.0
C      1  0.5145670000000  0.5402280000000  0.5889450000000 1.0
C      1  0.4889540000000  0.4165690000000  0.4658390000000 1.0
C      1  0.5258060000000  0.5958340000000  0.5022190000000 1.0
C      1  0.4765250000000  0.5088070000000  0.5979540000000 1.0
C      1  0.5783580000000  0.4656200000000  0.4722560000000 1.0
C      1  0.5563940000000  0.5805150000000  0.4881180000000 1.0
C      1  0.4359070000000  0.5629510000000  0.5310670000000 1.0
C      1  0.5047340000000  0.5122410000000  0.5917160000000 1.0
C      1  0.5616230000000  0.4190320000000  0.4875140000000 1.0
C      1  0.4588360000000  0.5263610000000  0.5820070000000 1.0
C      1  0.5318680000000  0.5590580000000  0.5239140000000 1.0
C      1  0.5906250000000  0.5353880000000  0.5389980000000 1.0
C      1  0.5545500000000  0.4664710000000  0.5715770000000 1.0
C      1  0.4973700000000  0.4908430000000  0.5537670000000 1.0
C      1  0.5729810000000  0.4949680000000  0.5346350000000 1.0
C      1  0.5227700000000  0.4898240000000  0.5992090000000 1.0
C      1  0.5170790000000  0.4247770000000  0.4736400000000 1.0
C      1  0.4415470000000  0.4595220000000  0.4550700000000 1.0
C      1  0.4065850000000  0.4697990000000  0.4864300000000 1.0
C      1  0.4929080000000  0.4517220000000  0.5177200000000 1.0
C      1  0.4669200000000  0.4596470000000  0.4733720000000 1.0
C      1  0.6019440000000  0.4930080000000  0.5097580000000 1.0
C      1  0.3935860000000  0.5235540000000  0.4914300000000 1.0
C      1  0.4371760000000  0.5410360000000  0.4331510000000 1.0
C      1  0.5107390000000  0.5714540000000  0.4306910000000 1.0
C      1  0.4324040000000  0.4298390000000  0.4563370000000 1.0
C      1  0.4321620000000  0.4638120000000  0.5581440000000 1.0
C      1  0.5807150000000  0.4863930000000  0.4515240000000 1.0
C      1  0.5408160000000  0.4156200000000  0.5324190000000 1.0
C      1  0.5867770000000  0.4697470000000  0.5005620000000 1.0
C      1  0.5764870000000  0.4523850000000  0.5222730000000 1.0
C      1  0.5081420000000  0.5193600000000  0.4067650000000 1.0
C      1  0.4499220000000  0.4267570000000  0.5300310000000 1.0
C      1  0.5641680000000  0.4402130000000  0.4653900000000 1.0
C      1  0.4315670000000  0.4328980000000  0.5079010000000 1.0
C      1  0.5065740000000  0.5795220000000  0.5541410000000 1.0
C      1  0.5777190000000  0.5148250000000  0.5563400000000 1.0
C      1  0.5361590000000  0.4498710000000  0.4248890000000 1.0
C      1  0.5278900000000  0.4746380000000  0.4669440000000 1.0
C      1  0.5657910000000  0.5192000000000  0.4165380000000 1.0
C      1  0.5992300000000  0.5225060000000  0.5121480000000 1.0
C      1  0.4770770000000  0.4833250000000  0.5120240000000 1.0
C      1  0.4518810000000  0.4256100000000  0.4306310000000 1.0
C      1  0.4578950000000  0.4804040000000  0.4914350000000 1.0
C      1  0.4666830000000  0.4807210000000  0.5938900000000 1.0
C      1  0.4427310000000  0.5083300000000  0.5652010000000 1.0
C      1  0.4881040000000  0.4680030000000  0.5768690000000 1.0
C      1  0.5689210000000  0.4681910000000  0.5456350000000 1.0
C      1  0.5146010000000  0.5925360000000  0.5296940000000 1.0
C      1  0.5286970000000  0.3979170000000  0.5136560000000 1.0
C      1  0.4736530000000  0.5502960000000  0.4093990000000 1.0
C      1  0.4143450000000  0.5291330000000  0.4733890000000 1.0
C      1  0.4155910000000  0.5180550000000  0.5589940000000 1.0
C      1  0.4492590000000  0.4531010000000  0.4179310000000 1.0
C      1  0.4946630000000  0.4231300000000  0.5513000000000 1.0
C      1  0.5137190000000  0.5728150000000  0.4616630000000 1.0
C      1  0.4629250000000  0.5491090000000  0.5371670000000 1.0
C      1  0.4401170000000  0.4830280000000  0.5794390000000 1.0
C      1  0.5396340000000  0.5618620000000  0.4720430000000 1.0
C      1  0.5575060000000  0.5742130000000  0.5480590000000 1.0
C      1  0.4711050000000  0.4302070000000  0.4858310000000 1.0
C      1  0.5073040000000  0.5964070000000  0.4791620000000 1.0
C      1  0.4684940000000  0.5717640000000  0.4518190000000 1.0
C      1  0.4804950000000  0.4211180000000  0.4381580000000 1.0
C      1  0.5309120000000  0.4658670000000  0.4941560000000 1.0
C      1  0.4772640000000  0.4419700000000  0.5660400000000 1.0
C      1  0.5481920000000  0.4977570000000  0.4685790000000 1.0
C      1  0.5116740000000  0.4707120000000  0.5364210000000 1.0
C      1  0.5648310000000  0.4931600000000  0.4277190000000 1.0
C      1  0.4122840000000  0.5447390000000  0.5339740000000 1.0
C      1  0.5156370000000  0.4908610000000  0.4101680000000 1.0
C      1  0.5517920000000  0.5203580000000  0.4957870000000 1.0
C      1  0.4303040000000  0.5058310000000  0.4606770000000 1.0
C      1  0.5795190000000  0.5348720000000  0.4933480000000 1.0
C      1  0.5533660000000  0.5435230000000  0.4235100000000 1.0
C      1  0.5529040000000  0.5425170000000  0.4529350000000 1.0
C      1  0.4963430000000  0.4692310000000  0.4076570000000 1.0
C      1  0.4785360000000  0.4224290000000  0.5231630000000 1.0
C      1  0.5232780000000  0.4858420000000  0.5130830000000 1.0
C      1  0.5330550000000  0.4465500000000  0.5758550000000 1.0
C      1  0.4190360000000  0.4780100000000  0.4627640000000 1.0
C      1  0.4570750000000  0.5049720000000  0.4754370000000 1.0
C      1  0.4618030000000  0.5237170000000  0.5230300000000 1.0
C      1  0.4804000000000  0.5972060000000  0.4862490000000 1.0
C      1  0.4578500000000  0.5275800000000  0.4936770000000 1.0
C      1  0.4062850000000  0.5218650000000  0.5161660000000 1.0
C      1  0.4836450000000  0.5052010000000  0.4509990000000 1.0
C      1  0.5008300000000  0.5371660000000  0.4969370000000 1.0
C      1  0.5608610000000  0.4291500000000  0.5153640000000 1.0
C      1  0.4661240000000  0.5033470000000  0.4243400000000 1.0
C      1  0.4519350000000  0.4439130000000  0.5526110000000 1.0
C      1  0.4794310000000  0.5231520000000  0.4056880000000 1.0
C      1  0.5119110000000  0.4447110000000  0.4957810000000 1.0
C      1  0.5437640000000  0.5421170000000  0.5849510000000 1.0
C      1  0.4876160000000  0.5593900000000  0.5204510000000 1.0
C      1  0.4150070000000  0.4578650000000  0.5102930000000 1.0
END
