TITL C-950523-3027-49 -8.12716805594859e-08 125000 -783.847302171396 0 0 125 (C1) n - 1
REM
REM in /home/bkarasulu/work/CARBON/AIRSS/Generating-Clusters/EDIP-Nigel-Params/with-SteepDescent/Only-C1/SD-CG/HFTN-CG
REM
REM
REM
REM
REM
REM ./C.cell (11c1c37f851c82e70ff6c80c92926a4b)
REM
REM compiler GCC version 9.2.1 20190827 (Red Hat 9.2.1-1)
REM options -cpp -mtune=generic -march=x86-64 -g -O0 -fpre-include=/usr/include/finclude/math-vector-fortran.h
REM seed -1012764526 -171089581 -568642904 -264624473 -1672709035 744910040 462975484 -255334178 -2050802703 -218115218 -612129757 -1435012641 -488399853 -1441520869 636652475 797299721 791628633 -1501395001 2035707158 47599243 1041663659 -1612787923 694287475 1810710497 -1077100622 -79304551 1155929950 1308382813 -428408831 1130269270 247756750 -2101501332 221913007
REM
CELL 1.54180   50.00000   50.00000   50.00000   90.00000   90.00000   90.00000
LATT -1
SFAC C  
C      1  0.4954310000000  0.5164780000000  0.5761050000000 1.0
C      1  0.5847510000000  0.4805510000000  0.4841820000000 1.0
C      1  0.5158510000000  0.5106090000000  0.4119320000000 1.0
C      1  0.4820510000000  0.5446860000000  0.5677910000000 1.0
C      1  0.5113390000000  0.5475980000000  0.5338960000000 1.0
C      1  0.5384160000000  0.4213640000000  0.5375760000000 1.0
C      1  0.4785730000000  0.4046090000000  0.5132690000000 1.0
C      1  0.4830090000000  0.4501790000000  0.4161190000000 1.0
C      1  0.5122730000000  0.5941230000000  0.4509380000000 1.0
C      1  0.5367950000000  0.5786980000000  0.4484940000000 1.0
C      1  0.4700600000000  0.5444940000000  0.4841310000000 1.0
C      1  0.5584660000000  0.5236380000000  0.5619340000000 1.0
C      1  0.4414210000000  0.4534030000000  0.4577120000000 1.0
C      1  0.5866340000000  0.4675110000000  0.4594940000000 1.0
C      1  0.5241420000000  0.5378500000000  0.4924490000000 1.0
C      1  0.4643200000000  0.4829480000000  0.5825470000000 1.0
C      1  0.5230990000000  0.3983050000000  0.5321070000000 1.0
C      1  0.5464360000000  0.5106540000000  0.5359900000000 1.0
C      1  0.5320860000000  0.4672110000000  0.4709320000000 1.0
C      1  0.4569090000000  0.5453390000000  0.4564720000000 1.0
C      1  0.5775530000000  0.4799320000000  0.5320700000000 1.0
C      1  0.4440030000000  0.5687430000000  0.5481960000000 1.0
C      1  0.5119080000000  0.4760350000000  0.4510040000000 1.0
C      1  0.4373930000000  0.5064930000000  0.4151890000000 1.0
C      1  0.5365530000000  0.4692710000000  0.5189200000000 1.0
C      1  0.5164140000000  0.4214110000000  0.4413140000000 1.0
C      1  0.4653480000000  0.5084800000000  0.4046620000000 1.0
C      1  0.4519210000000  0.5488120000000  0.5704020000000 1.0
C      1  0.4657970000000  0.4720280000000  0.4552780000000 1.0
C      1  0.5791940000000  0.4633900000000  0.5070900000000 1.0
C      1  0.4471770000000  0.4341360000000  0.5386190000000 1.0
C      1  0.5385930000000  0.4699070000000  0.5949290000000 1.0
C      1  0.4184430000000  0.5285600000000  0.5434560000000 1.0
C      1  0.5785080000000  0.5699340000000  0.4717160000000 1.0
C      1  0.5079920000000  0.4007810000000  0.5083960000000 1.0
C      1  0.4924240000000  0.4690410000000  0.5750320000000 1.0
C      1  0.5731570000000  0.5195630000000  0.4589720000000 1.0
C      1  0.4887690000000  0.5222410000000  0.4140510000000 1.0
C      1  0.5296650000000  0.4361060000000  0.5613560000000 1.0
C      1  0.5513860000000  0.4438930000000  0.4692700000000 1.0
C      1  0.4989980000000  0.4852120000000  0.5014510000000 1.0
C      1  0.5522010000000  0.4955360000000  0.6003150000000 1.0
C      1  0.4953780000000  0.5989970000000  0.4745240000000 1.0
C      1  0.4126730000000  0.4834970000000  0.4817010000000 1.0
C      1  0.4991210000000  0.4412580000000  0.5612920000000 1.0
C      1  0.5694500000000  0.5066910000000  0.4857530000000 1.0
C      1  0.4838040000000  0.4597010000000  0.5061750000000 1.0
C      1  0.4352250000000  0.4570990000000  0.5256390000000 1.0
C      1  0.5127800000000  0.4531300000000  0.4102980000000 1.0
C      1  0.5211190000000  0.5241360000000  0.5211300000000 1.0
C      1  0.5229920000000  0.4791180000000  0.4224790000000 1.0
C      1  0.5306560000000  0.5165460000000  0.6024290000000 1.0
C      1  0.5368920000000  0.5555240000000  0.4314490000000 1.0
C      1  0.5281850000000  0.5685490000000  0.5451700000000 1.0
C      1  0.4360390000000  0.5232040000000  0.5662730000000 1.0
C      1  0.4991740000000  0.5503440000000  0.4796650000000 1.0
C      1  0.4691160000000  0.4195170000000  0.4893500000000 1.0
C      1  0.5035520000000  0.5056130000000  0.4603940000000 1.0
C      1  0.5792580000000  0.5235280000000  0.5096800000000 1.0
C      1  0.5048150000000  0.4995750000000  0.6099790000000 1.0
C      1  0.4153450000000  0.5043320000000  0.5273250000000 1.0
C      1  0.4211930000000  0.4653150000000  0.4381730000000 1.0
C      1  0.5282700000000  0.5609390000000  0.5753140000000 1.0
C      1  0.5322270000000  0.4205680000000  0.4657670000000 1.0
C      1  0.4977040000000  0.5038890000000  0.5250060000000 1.0
C      1  0.5308490000000  0.4855820000000  0.4933740000000 1.0
C      1  0.4886700000000  0.5277110000000  0.4427380000000 1.0
C      1  0.4903860000000  0.5924050000000  0.5261550000000 1.0
C      1  0.4905650000000  0.4398700000000  0.4844930000000 1.0
C      1  0.4154130000000  0.5076400000000  0.4980350000000 1.0
C      1  0.4614850000000  0.4056810000000  0.4658430000000 1.0
C      1  0.4193850000000  0.5600720000000  0.5018190000000 1.0
C      1  0.5168190000000  0.4250360000000  0.4922000000000 1.0
C      1  0.4462470000000  0.4950720000000  0.5625090000000 1.0
C      1  0.4667860000000  0.4751710000000  0.4243640000000 1.0
C      1  0.4294890000000  0.5102570000000  0.4437220000000 1.0
C      1  0.5376290000000  0.4393510000000  0.5134200000000 1.0
C      1  0.5713030000000  0.4998280000000  0.5770830000000 1.0
C      1  0.4829040000000  0.5458770000000  0.5375310000000 1.0
C      1  0.5687570000000  0.4600570000000  0.4398380000000 1.0
C      1  0.5894570000000  0.5048560000000  0.5278060000000 1.0
C      1  0.5734300000000  0.4736010000000  0.5608020000000 1.0
C      1  0.4985960000000  0.5683300000000  0.5781150000000 1.0
C      1  0.5527170000000  0.4814730000000  0.4283690000000 1.0
C      1  0.4766170000000  0.5056300000000  0.5977030000000 1.0
C      1  0.4819060000000  0.4969550000000  0.4801050000000 1.0
C      1  0.4668620000000  0.5183350000000  0.4954040000000 1.0
C      1  0.4117600000000  0.4891670000000  0.4527590000000 1.0
C      1  0.4979700000000  0.5579470000000  0.4501780000000 1.0
C      1  0.4680880000000  0.5725310000000  0.4468480000000 1.0
C      1  0.4299730000000  0.4588270000000  0.4869730000000 1.0
C      1  0.5518060000000  0.5777120000000  0.4740030000000 1.0
C      1  0.4221090000000  0.5555730000000  0.5323150000000 1.0
C      1  0.4497170000000  0.4249110000000  0.4470040000000 1.0
C      1  0.5367130000000  0.5277060000000  0.4252120000000 1.0
C      1  0.4161670000000  0.5346000000000  0.4849800000000 1.0
C      1  0.4278410000000  0.5359190000000  0.4571930000000 1.0
C      1  0.5326160000000  0.4829500000000  0.5459600000000 1.0
C      1  0.4366820000000  0.5838800000000  0.4891200000000 1.0
C      1  0.4284270000000  0.4817820000000  0.5424270000000 1.0
C      1  0.5672480000000  0.5432580000000  0.5296840000000 1.0
C      1  0.5449510000000  0.4624130000000  0.5668700000000 1.0
C      1  0.5098440000000  0.4720920000000  0.5999140000000 1.0
C      1  0.4717850000000  0.4243330000000  0.4271150000000 1.0
C      1  0.5354040000000  0.5329120000000  0.5782470000000 1.0
C      1  0.4908140000000  0.4081160000000  0.4413450000000 1.0
C      1  0.4579000000000  0.5659540000000  0.5010960000000 1.0
C      1  0.4907440000000  0.4469530000000  0.5323810000000 1.0
C      1  0.5795100000000  0.5464700000000  0.4590410000000 1.0
C      1  0.4367560000000  0.4757000000000  0.4146410000000 1.0
C      1  0.5327080000000  0.5142330000000  0.4752990000000 1.0
C      1  0.5508820000000  0.5678680000000  0.5241760000000 1.0
C      1  0.5629000000000  0.4401720000000  0.4978790000000 1.0
C      1  0.4899240000000  0.4539230000000  0.4546680000000 1.0
C      1  0.5067220000000  0.5886050000000  0.5004620000000 1.0
C      1  0.4668190000000  0.5925930000000  0.4680510000000 1.0
C      1  0.4682820000000  0.5709390000000  0.5287970000000 1.0
C      1  0.4543280000000  0.4668720000000  0.5045470000000 1.0
C      1  0.5025860000000  0.4916120000000  0.5542510000000 1.0
C      1  0.4735760000000  0.5199110000000  0.5240310000000 1.0
C      1  0.4736470000000  0.4228470000000  0.5382250000000 1.0
C      1  0.5353990000000  0.5688050000000  0.4978240000000 1.0
C      1  0.5554720000000  0.5096500000000  0.4378510000000 1.0
C      1  0.5077450000000  0.5904600000000  0.5495550000000 1.0
C      1  0.5274800000000  0.4301920000000  0.4169270000000 1.0
END
