TITL C-951334-9093-143 6.38755741986671e-07 125000 -860.980953149317 0 0 138 (C1) n - 1
REM
REM in /home/bkarasulu/work/CARBON/AIRSS/Generating-Clusters/EDIP-Nigel-Params/with-SteepDescent/Only-C1/SD-CG/HFTN-CG
REM
REM
REM
REM
REM
REM ./C.cell (11c1c37f851c82e70ff6c80c92926a4b)
REM
REM compiler GCC version 9.2.1 20190827 (Red Hat 9.2.1-1)
REM options -cpp -mtune=generic -march=x86-64 -g -O0 -fpre-include=/usr/include/finclude/math-vector-fortran.h
REM seed 1460036971 593896944 2099964250 1616874544 -746640686 821099043 388548937 1688162446 906393143 -616372815 -1168194157 532874818 -1708701800 1060167929 389001393 -594517459 -686484735 -361052742 -1447401140 201042746 -972448165 1924963859 -107952427 925852130 1989105471 -1032297293 1489419084 882444419 2056824083 1189726143 -1454358434 769793453 906092868
REM
CELL 1.54180   50.00000   50.00000   50.00000   90.00000   90.00000   90.00000
LATT -1
SFAC C  
C      1  0.4864440000000  0.4161740000000  0.4726980000000 1.0
C      1  0.5317420000000  0.4526630000000  0.5149620000000 1.0
C      1  0.4086000000000  0.5185190000000  0.4537710000000 1.0
C      1  0.5789160000000  0.4560830000000  0.4650510000000 1.0
C      1  0.5028720000000  0.4637260000000  0.4047010000000 1.0
C      1  0.5271940000000  0.5888490000000  0.5329060000000 1.0
C      1  0.4783320000000  0.5191210000000  0.5934780000000 1.0
C      1  0.4729470000000  0.5647570000000  0.4603490000000 1.0
C      1  0.5571860000000  0.5374100000000  0.4715820000000 1.0
C      1  0.4665940000000  0.5244440000000  0.5210030000000 1.0
C      1  0.4854420000000  0.4682340000000  0.4452380000000 1.0
C      1  0.4839390000000  0.5427350000000  0.5382160000000 1.0
C      1  0.5091810000000  0.5938890000000  0.4607450000000 1.0
C      1  0.5196670000000  0.4890870000000  0.4116290000000 1.0
C      1  0.5559280000000  0.4531370000000  0.5692930000000 1.0
C      1  0.4709450000000  0.4507260000000  0.5158720000000 1.0
C      1  0.4903680000000  0.5419560000000  0.4766950000000 1.0
C      1  0.4986460000000  0.5908630000000  0.5328660000000 1.0
C      1  0.4667900000000  0.4628170000000  0.4678640000000 1.0
C      1  0.4962300000000  0.5521260000000  0.4168830000000 1.0
C      1  0.5711240000000  0.5231900000000  0.5783050000000 1.0
C      1  0.4109830000000  0.4666160000000  0.4881950000000 1.0
C      1  0.5655350000000  0.4680350000000  0.4244150000000 1.0
C      1  0.4441850000000  0.5833510000000  0.4968450000000 1.0
C      1  0.4318660000000  0.4918270000000  0.5525020000000 1.0
C      1  0.4820140000000  0.5717630000000  0.5484980000000 1.0
C      1  0.4524680000000  0.4635900000000  0.4050280000000 1.0
C      1  0.4526670000000  0.4900010000000  0.4695470000000 1.0
C      1  0.3991720000000  0.4937910000000  0.4446040000000 1.0
C      1  0.5564180000000  0.4787310000000  0.4724740000000 1.0
C      1  0.4957300000000  0.5253190000000  0.4024580000000 1.0
C      1  0.4255310000000  0.5384200000000  0.5503470000000 1.0
C      1  0.5402740000000  0.5911170000000  0.5062330000000 1.0
C      1  0.4522610000000  0.5128220000000  0.4217320000000 1.0
C      1  0.5151600000000  0.5480680000000  0.5746970000000 1.0
C      1  0.4547010000000  0.4434860000000  0.5716790000000 1.0
C      1  0.5866750000000  0.4996680000000  0.4596040000000 1.0
C      1  0.5273970000000  0.4692140000000  0.4656340000000 1.0
C      1  0.4805910000000  0.4229670000000  0.4261880000000 1.0
C      1  0.4421210000000  0.4393120000000  0.4669920000000 1.0
C      1  0.4079960000000  0.4667680000000  0.4372850000000 1.0
C      1  0.4376280000000  0.4283620000000  0.4965580000000 1.0
C      1  0.5390710000000  0.4150350000000  0.5219440000000 1.0
C      1  0.4135170000000  0.4512390000000  0.4625090000000 1.0
C      1  0.5459310000000  0.4893250000000  0.4254840000000 1.0
C      1  0.4786720000000  0.4964430000000  0.5195660000000 1.0
C      1  0.4548740000000  0.5814150000000  0.5462030000000 1.0
C      1  0.5189990000000  0.5129570000000  0.3943080000000 1.0
C      1  0.4493360000000  0.5380540000000  0.4338970000000 1.0
C      1  0.4362340000000  0.5799490000000  0.5249890000000 1.0
C      1  0.5559640000000  0.5492600000000  0.5205390000000 1.0
C      1  0.5054270000000  0.4456250000000  0.5845090000000 1.0
C      1  0.4184500000000  0.5567620000000  0.5278940000000 1.0
C      1  0.5040570000000  0.4758750000000  0.5946090000000 1.0
C      1  0.4563490000000  0.4810140000000  0.5640800000000 1.0
C      1  0.5333910000000  0.5203510000000  0.4766640000000 1.0
C      1  0.5467950000000  0.5639200000000  0.4632850000000 1.0
C      1  0.4404100000000  0.4950810000000  0.4422780000000 1.0
C      1  0.5286970000000  0.4417840000000  0.5642490000000 1.0
C      1  0.5536360000000  0.4410280000000  0.4318730000000 1.0
C      1  0.4779200000000  0.4903870000000  0.6012620000000 1.0
C      1  0.4990910000000  0.4461120000000  0.4301780000000 1.0
C      1  0.4771400000000  0.4081670000000  0.5200490000000 1.0
C      1  0.5515220000000  0.4841200000000  0.5752440000000 1.0
C      1  0.5955150000000  0.4500600000000  0.4894290000000 1.0
C      1  0.5736260000000  0.4249990000000  0.4467980000000 1.0
C      1  0.4691150000000  0.5982120000000  0.4919550000000 1.0
C      1  0.4173070000000  0.5402780000000  0.5023100000000 1.0
C      1  0.5919930000000  0.4742640000000  0.5053050000000 1.0
C      1  0.4376320000000  0.4678290000000  0.4290170000000 1.0
C      1  0.5835530000000  0.5085190000000  0.5318010000000 1.0
C      1  0.4099210000000  0.4747050000000  0.5486080000000 1.0
C      1  0.4361310000000  0.5156390000000  0.5349490000000 1.0
C      1  0.5512040000000  0.5719500000000  0.5829530000000 1.0
C      1  0.5091000000000  0.5029630000000  0.5547360000000 1.0
C      1  0.5722940000000  0.5239620000000  0.4494510000000 1.0
C      1  0.5142050000000  0.5816200000000  0.4344240000000 1.0
C      1  0.4891820000000  0.4564340000000  0.5413960000000 1.0
C      1  0.5175790000000  0.4534000000000  0.5398730000000 1.0
C      1  0.5981620000000  0.4983050000000  0.4881920000000 1.0
C      1  0.4649740000000  0.5344450000000  0.4920150000000 1.0
C      1  0.5228570000000  0.4135230000000  0.4982410000000 1.0
C      1  0.4766380000000  0.5050220000000  0.4094460000000 1.0
C      1  0.5656680000000  0.5872120000000  0.5648360000000 1.0
C      1  0.4947680000000  0.4079680000000  0.4982820000000 1.0
C      1  0.4387130000000  0.4334290000000  0.5480160000000 1.0
C      1  0.5894270000000  0.4741270000000  0.4427200000000 1.0
C      1  0.5795240000000  0.4259250000000  0.4976170000000 1.0
C      1  0.5125750000000  0.4660620000000  0.4931880000000 1.0
C      1  0.4860440000000  0.4506850000000  0.4900710000000 1.0
C      1  0.5268780000000  0.5775610000000  0.4816090000000 1.0
C      1  0.5638750000000  0.4152260000000  0.4729910000000 1.0
C      1  0.5114180000000  0.5201570000000  0.4573930000000 1.0
C      1  0.5413420000000  0.5975400000000  0.5562240000000 1.0
C      1  0.5096960000000  0.5560120000000  0.4963380000000 1.0
C      1  0.5283060000000  0.4417230000000  0.4496320000000 1.0
C      1  0.4766340000000  0.4774680000000  0.3984640000000 1.0
C      1  0.4740030000000  0.5643070000000  0.5948520000000 1.0
C      1  0.5656930000000  0.4262840000000  0.5242340000000 1.0
C      1  0.5908250000000  0.5188490000000  0.5069050000000 1.0
C      1  0.4738370000000  0.4070080000000  0.4490370000000 1.0
C      1  0.4570040000000  0.4771390000000  0.5115800000000 1.0
C      1  0.4583510000000  0.5410150000000  0.5938310000000 1.0
C      1  0.4392300000000  0.5489670000000  0.4835340000000 1.0
C      1  0.4545920000000  0.4752630000000  0.5935730000000 1.0
C      1  0.4160590000000  0.4451590000000  0.5075390000000 1.0
C      1  0.5565730000000  0.4692350000000  0.5208980000000 1.0
C      1  0.4207900000000  0.5115610000000  0.5097160000000 1.0
C      1  0.4369910000000  0.5437150000000  0.5756910000000 1.0
C      1  0.5640640000000  0.5762190000000  0.5115270000000 1.0
C      1  0.5261950000000  0.5330490000000  0.4323940000000 1.0
C      1  0.4707440000000  0.5577230000000  0.4318920000000 1.0
C      1  0.5343880000000  0.5616140000000  0.4371040000000 1.0
C      1  0.5039520000000  0.5306260000000  0.5948400000000 1.0
C      1  0.4828050000000  0.4393570000000  0.5650350000000 1.0
C      1  0.5104440000000  0.5327320000000  0.5469960000000 1.0
C      1  0.5227020000000  0.4939560000000  0.5795200000000 1.0
C      1  0.5694320000000  0.4989750000000  0.5950150000000 1.0
C      1  0.5046620000000  0.4933020000000  0.5030080000000 1.0
C      1  0.4206350000000  0.4523550000000  0.5355680000000 1.0
C      1  0.5087010000000  0.4886270000000  0.4486510000000 1.0
C      1  0.4502370000000  0.4184880000000  0.5228800000000 1.0
C      1  0.4337360000000  0.4874810000000  0.4934900000000 1.0
C      1  0.5519500000000  0.5437760000000  0.5847640000000 1.0
C      1  0.4939210000000  0.5702780000000  0.5760240000000 1.0
C      1  0.5652440000000  0.5086390000000  0.5526770000000 1.0
C      1  0.5271820000000  0.5381540000000  0.5182730000000 1.0
C      1  0.5526010000000  0.5173780000000  0.4285510000000 1.0
C      1  0.5569160000000  0.4918590000000  0.5013370000000 1.0
C      1  0.4913240000000  0.5880090000000  0.5063980000000 1.0
C      1  0.5743680000000  0.5417120000000  0.4970410000000 1.0
C      1  0.5730630000000  0.4453410000000  0.5463430000000 1.0
C      1  0.4841010000000  0.4863370000000  0.5477400000000 1.0
C      1  0.4479400000000  0.4184880000000  0.4466280000000 1.0
C      1  0.5347140000000  0.4195380000000  0.4721190000000 1.0
C      1  0.4295220000000  0.5385440000000  0.4557100000000 1.0
C      1  0.4791140000000  0.5938330000000  0.4641480000000 1.0
C      1  0.5296000000000  0.5102440000000  0.5034190000000 1.0
END
