TITL C-951338-5626-334 1.20179043066893e-06 125000 -539.342531254723 0 0 87 (C1) n - 1
REM
REM in /home/bkarasulu/work/CARBON/AIRSS/Generating-Clusters/EDIP-Nigel-Params/with-SteepDescent/Only-C1/SD-CG/HFTN-CG
REM
REM
REM
REM
REM
REM ./C.cell (11c1c37f851c82e70ff6c80c92926a4b)
REM
REM compiler GCC version 9.2.1 20190827 (Red Hat 9.2.1-1)
REM options -cpp -mtune=generic -march=x86-64 -g -O0 -fpre-include=/usr/include/finclude/math-vector-fortran.h
REM seed 1935225163 -1686908010 -1705660024 105902943 -259316322 722743235 -1357341729 1288214966 -659325235 719594075 1211003582 -1831007677 426747530 -715678834 -539812623 -1279075531 -1184960642 -539969925 -1220579348 -1061564062 -488934842 -418575693 -1353441171 -599051916 -1404966228 1096404262 15721808 1239851044 1728351301 751211670 -1188327742 -1258091283 -1071555524
REM
CELL 1.54180   50.00000   50.00000   50.00000   90.00000   90.00000   90.00000
LATT -1
SFAC C  
C      1  0.5501510000000  0.4444100000000  0.5190900000000 1.0
C      1  0.4884830000000  0.4822290000000  0.4825530000000 1.0
C      1  0.4750140000000  0.5280850000000  0.5739320000000 1.0
C      1  0.5548870000000  0.5743710000000  0.5011800000000 1.0
C      1  0.5070510000000  0.5490360000000  0.4477430000000 1.0
C      1  0.4858600000000  0.4903160000000  0.4221600000000 1.0
C      1  0.5485610000000  0.5319910000000  0.5364830000000 1.0
C      1  0.4283100000000  0.4609950000000  0.4651860000000 1.0
C      1  0.5604030000000  0.5401030000000  0.4673210000000 1.0
C      1  0.4824140000000  0.5257120000000  0.4767060000000 1.0
C      1  0.4355000000000  0.5383240000000  0.5221830000000 1.0
C      1  0.4947740000000  0.4701050000000  0.5089710000000 1.0
C      1  0.5194100000000  0.5610340000000  0.5589970000000 1.0
C      1  0.4618490000000  0.4079750000000  0.5057880000000 1.0
C      1  0.4664010000000  0.4417520000000  0.4525510000000 1.0
C      1  0.4411410000000  0.5436230000000  0.4550680000000 1.0
C      1  0.4276240000000  0.5459160000000  0.4790920000000 1.0
C      1  0.4358690000000  0.4158000000000  0.4968520000000 1.0
C      1  0.5429720000000  0.5767380000000  0.5476400000000 1.0
C      1  0.5300620000000  0.4898400000000  0.4248770000000 1.0
C      1  0.5372920000000  0.4576660000000  0.5420880000000 1.0
C      1  0.5654110000000  0.5569240000000  0.5429930000000 1.0
C      1  0.5347910000000  0.5865460000000  0.5205530000000 1.0
C      1  0.4531530000000  0.4432170000000  0.5314510000000 1.0
C      1  0.4113370000000  0.4891730000000  0.5061780000000 1.0
C      1  0.5798020000000  0.5237080000000  0.4815020000000 1.0
C      1  0.5833080000000  0.5307440000000  0.5088030000000 1.0
C      1  0.5239570000000  0.5192060000000  0.5810560000000 1.0
C      1  0.4726670000000  0.4669850000000  0.5307430000000 1.0
C      1  0.4981130000000  0.5261710000000  0.5905290000000 1.0
C      1  0.5087810000000  0.4719820000000  0.4300280000000 1.0
C      1  0.5653310000000  0.4636210000000  0.5027640000000 1.0
C      1  0.5263300000000  0.5330950000000  0.5563690000000 1.0
C      1  0.5086170000000  0.5193060000000  0.5138060000000 1.0
C      1  0.5048190000000  0.5807890000000  0.5176000000000 1.0
C      1  0.5319570000000  0.4326200000000  0.4996460000000 1.0
C      1  0.4761960000000  0.5477590000000  0.4976140000000 1.0
C      1  0.5089980000000  0.4174540000000  0.5081630000000 1.0
C      1  0.4943900000000  0.5712770000000  0.4912900000000 1.0
C      1  0.5869940000000  0.4987670000000  0.4705730000000 1.0
C      1  0.4663490000000  0.5312700000000  0.4494320000000 1.0
C      1  0.5358620000000  0.4406940000000  0.4723560000000 1.0
C      1  0.4093940000000  0.4891890000000  0.5341850000000 1.0
C      1  0.5265540000000  0.5364660000000  0.4303090000000 1.0
C      1  0.4681830000000  0.4171780000000  0.5339460000000 1.0
C      1  0.4819860000000  0.5512660000000  0.4354090000000 1.0
C      1  0.5154100000000  0.5639960000000  0.4715070000000 1.0
C      1  0.5484320000000  0.4880870000000  0.5115980000000 1.0
C      1  0.4601420000000  0.4954330000000  0.5315200000000 1.0
C      1  0.5395520000000  0.5061230000000  0.4862520000000 1.0
C      1  0.4254770000000  0.4649010000000  0.4946210000000 1.0
C      1  0.5773680000000  0.5592110000000  0.5162380000000 1.0
C      1  0.4877980000000  0.5360300000000  0.5257600000000 1.0
C      1  0.5646720000000  0.5058730000000  0.5320870000000 1.0
C      1  0.5493590000000  0.4819160000000  0.5553430000000 1.0
C      1  0.5405910000000  0.5542990000000  0.4851050000000 1.0
C      1  0.4692740000000  0.5030630000000  0.4943450000000 1.0
C      1  0.4613570000000  0.5046570000000  0.4339150000000 1.0
C      1  0.4451860000000  0.4849930000000  0.4557290000000 1.0
C      1  0.5139170000000  0.4900480000000  0.5227550000000 1.0
C      1  0.5141310000000  0.4446750000000  0.4267090000000 1.0
C      1  0.4225750000000  0.5171620000000  0.4954370000000 1.0
C      1  0.4446250000000  0.5023070000000  0.4803580000000 1.0
C      1  0.4453190000000  0.5492500000000  0.5459860000000 1.0
C      1  0.5039510000000  0.4914030000000  0.5525210000000 1.0
C      1  0.4883170000000  0.4244030000000  0.4625090000000 1.0
C      1  0.5462510000000  0.4980080000000  0.4484160000000 1.0
C      1  0.5160630000000  0.5134800000000  0.4155690000000 1.0
C      1  0.5270660000000  0.4915430000000  0.5724660000000 1.0
C      1  0.4682850000000  0.5542310000000  0.5612630000000 1.0
C      1  0.4799710000000  0.5132930000000  0.5475540000000 1.0
C      1  0.4993680000000  0.4203980000000  0.5360600000000 1.0
C      1  0.5694870000000  0.4813240000000  0.4569070000000 1.0
C      1  0.4319690000000  0.4405200000000  0.5105860000000 1.0
C      1  0.5343990000000  0.5319930000000  0.5061060000000 1.0
C      1  0.5111980000000  0.4446860000000  0.5517100000000 1.0
C      1  0.4860200000000  0.4160490000000  0.4907500000000 1.0
C      1  0.4899510000000  0.4650760000000  0.5558180000000 1.0
C      1  0.5605030000000  0.4579990000000  0.4737690000000 1.0
C      1  0.4391470000000  0.4359990000000  0.4573520000000 1.0
C      1  0.4462540000000  0.5538670000000  0.5005300000000 1.0
C      1  0.4945770000000  0.5635300000000  0.5423150000000 1.0
C      1  0.5516170000000  0.5267220000000  0.4429210000000 1.0
C      1  0.4734910000000  0.4709770000000  0.4558050000000 1.0
C      1  0.4341630000000  0.4951310000000  0.5431720000000 1.0
C      1  0.5146100000000  0.4344380000000  0.4529000000000 1.0
C      1  0.5108470000000  0.5014790000000  0.4739760000000 1.0
END
