TITL C-950525-1983-36 7.70329688285211e-07 125000 -971.399903979802 0 0 154 (C1) n - 1
REM
REM in /home/bkarasulu/work/CARBON/AIRSS/Generating-Clusters/EDIP-Nigel-Params/with-SteepDescent/Only-C1/SD-CG/HFTN-CG
REM
REM
REM
REM
REM
REM ./C.cell (11c1c37f851c82e70ff6c80c92926a4b)
REM
REM compiler GCC version 9.2.1 20190827 (Red Hat 9.2.1-1)
REM options -cpp -mtune=generic -march=x86-64 -g -O0 -fpre-include=/usr/include/finclude/math-vector-fortran.h
REM seed 309020378 1576734972 2064382374 1380334642 1114375166 -1115893833 1506199242 1075362675 1811293125 -2091159620 -1949351602 165013351 1186652300 206491207 701706775 1663372816 -176138003 -1808408052 1377989314 995904262 1257679014 -2129126602 1553894067 -1881861941 2115789243 1960103136 -208275754 -96248668 1988156434 907747274 -367626705 1094081329 -1068303511
REM
CELL 1.54180   50.00000   50.00000   50.00000   90.00000   90.00000   90.00000
LATT -1
SFAC C  
C      1  0.5172870000000  0.5821040000000  0.5078500000000 1.0
C      1  0.4194340000000  0.5222520000000  0.4889240000000 1.0
C      1  0.5106600000000  0.4305640000000  0.4282720000000 1.0
C      1  0.4634270000000  0.4186450000000  0.4308930000000 1.0
C      1  0.4643910000000  0.5666120000000  0.5803500000000 1.0
C      1  0.5744540000000  0.4693260000000  0.5480260000000 1.0
C      1  0.4841750000000  0.4947940000000  0.5955890000000 1.0
C      1  0.5192610000000  0.5934620000000  0.4551550000000 1.0
C      1  0.4914390000000  0.5165210000000  0.4928900000000 1.0
C      1  0.4400910000000  0.4694430000000  0.5961040000000 1.0
C      1  0.5538520000000  0.5169840000000  0.5893220000000 1.0
C      1  0.5558880000000  0.4323440000000  0.4888320000000 1.0
C      1  0.4612080000000  0.4796500000000  0.4687230000000 1.0
C      1  0.4978570000000  0.4516410000000  0.5928810000000 1.0
C      1  0.5200520000000  0.5530110000000  0.5039860000000 1.0
C      1  0.5096380000000  0.4936040000000  0.3890280000000 1.0
C      1  0.6059510000000  0.5103130000000  0.5428080000000 1.0
C      1  0.5091820000000  0.5363210000000  0.5938020000000 1.0
C      1  0.4889820000000  0.5873850000000  0.4923910000000 1.0
C      1  0.5271170000000  0.4460310000000  0.5984400000000 1.0
C      1  0.5111970000000  0.4709120000000  0.4791050000000 1.0
C      1  0.5220340000000  0.5788740000000  0.4310240000000 1.0
C      1  0.5791700000000  0.5536980000000  0.5225430000000 1.0
C      1  0.4841380000000  0.6141440000000  0.4795540000000 1.0
C      1  0.4239080000000  0.5716370000000  0.5265940000000 1.0
C      1  0.4775090000000  0.4801860000000  0.5260610000000 1.0
C      1  0.6002470000000  0.4823800000000  0.5369570000000 1.0
C      1  0.4894610000000  0.4036480000000  0.4642860000000 1.0
C      1  0.5065130000000  0.5091230000000  0.5801150000000 1.0
C      1  0.4880810000000  0.5271960000000  0.4639610000000 1.0
C      1  0.5102140000000  0.5869140000000  0.5375020000000 1.0
C      1  0.5636850000000  0.5612960000000  0.4969690000000 1.0
C      1  0.4974630000000  0.4657220000000  0.5648360000000 1.0
C      1  0.5347840000000  0.4315990000000  0.4443010000000 1.0
C      1  0.5143680000000  0.4973920000000  0.4964910000000 1.0
C      1  0.4597540000000  0.4061660000000  0.4661520000000 1.0
C      1  0.4609280000000  0.5418650000000  0.5358990000000 1.0
C      1  0.4674780000000  0.5886350000000  0.5633750000000 1.0
C      1  0.4697410000000  0.5882480000000  0.5156380000000 1.0
C      1  0.5659820000000  0.4679270000000  0.4609570000000 1.0
C      1  0.5542970000000  0.4855770000000  0.5320800000000 1.0
C      1  0.4126250000000  0.5034050000000  0.4657250000000 1.0
C      1  0.5471670000000  0.4581280000000  0.4402430000000 1.0
C      1  0.4966930000000  0.4747540000000  0.6130270000000 1.0
C      1  0.4374730000000  0.4936290000000  0.4179800000000 1.0
C      1  0.4720480000000  0.5736840000000  0.4413170000000 1.0
C      1  0.4788430000000  0.5619320000000  0.4704500000000 1.0
C      1  0.4114520000000  0.4599010000000  0.4927580000000 1.0
C      1  0.4266510000000  0.4412050000000  0.4743380000000 1.0
C      1  0.5006870000000  0.5124950000000  0.5502180000000 1.0
C      1  0.4356050000000  0.4669630000000  0.4577290000000 1.0
C      1  0.4948550000000  0.5469030000000  0.4072490000000 1.0
C      1  0.5784910000000  0.4455480000000  0.4733410000000 1.0
C      1  0.4395010000000  0.5190950000000  0.5840190000000 1.0
C      1  0.4198580000000  0.5549730000000  0.5518100000000 1.0
C      1  0.5289370000000  0.5141670000000  0.3998230000000 1.0
C      1  0.4984010000000  0.6128960000000  0.4544440000000 1.0
C      1  0.4439560000000  0.5461980000000  0.5704370000000 1.0
C      1  0.4014630000000  0.4778480000000  0.4720490000000 1.0
C      1  0.4922170000000  0.5385140000000  0.5388730000000 1.0
C      1  0.5106920000000  0.4061160000000  0.5126380000000 1.0
C      1  0.4378700000000  0.4078250000000  0.5084520000000 1.0
C      1  0.5278460000000  0.4736440000000  0.5409350000000 1.0
C      1  0.5336110000000  0.4103160000000  0.5319280000000 1.0
C      1  0.5200000000000  0.4798200000000  0.4499460000000 1.0
C      1  0.5221790000000  0.4469440000000  0.5258410000000 1.0
C      1  0.4013690000000  0.5374330000000  0.5094200000000 1.0
C      1  0.4912620000000  0.4105960000000  0.4356360000000 1.0
C      1  0.5240710000000  0.4673300000000  0.3897820000000 1.0
C      1  0.4716180000000  0.5021620000000  0.4512220000000 1.0
C      1  0.5599140000000  0.5085180000000  0.4351360000000 1.0
C      1  0.5793520000000  0.4922740000000  0.4527340000000 1.0
C      1  0.4562030000000  0.4581500000000  0.5195450000000 1.0
C      1  0.5484300000000  0.5606020000000  0.4302440000000 1.0
C      1  0.5953290000000  0.5079270000000  0.4973830000000 1.0
C      1  0.4518100000000  0.5648190000000  0.5164650000000 1.0
C      1  0.5800790000000  0.5641060000000  0.4715760000000 1.0
C      1  0.4695070000000  0.5332780000000  0.4134520000000 1.0
C      1  0.4638800000000  0.6027180000000  0.4429740000000 1.0
C      1  0.5369150000000  0.4920950000000  0.5872960000000 1.0
C      1  0.5634500000000  0.4542970000000  0.4159600000000 1.0
C      1  0.4379250000000  0.4641330000000  0.4273760000000 1.0
C      1  0.5632440000000  0.5794730000000  0.4526680000000 1.0
C      1  0.5570360000000  0.4707010000000  0.5740830000000 1.0
C      1  0.4606710000000  0.4462580000000  0.4206530000000 1.0
C      1  0.4184860000000  0.4509520000000  0.5541100000000 1.0
C      1  0.5691200000000  0.5370800000000  0.4339970000000 1.0
C      1  0.4690340000000  0.4422660000000  0.4976090000000 1.0
C      1  0.5859070000000  0.5389610000000  0.4579360000000 1.0
C      1  0.5148100000000  0.5268970000000  0.4480980000000 1.0
C      1  0.4689160000000  0.4822580000000  0.5561420000000 1.0
C      1  0.4788730000000  0.4285310000000  0.5852220000000 1.0
C      1  0.4390700000000  0.5045990000000  0.5070650000000 1.0
C      1  0.5462450000000  0.5882660000000  0.4975730000000 1.0
C      1  0.4186170000000  0.4764430000000  0.5405000000000 1.0
C      1  0.4538520000000  0.5579810000000  0.4869120000000 1.0
C      1  0.4590310000000  0.4479190000000  0.5714550000000 1.0
C      1  0.5375910000000  0.5415340000000  0.5872190000000 1.0
C      1  0.5516420000000  0.4725220000000  0.3988130000000 1.0
C      1  0.5077660000000  0.4920270000000  0.5293060000000 1.0
C      1  0.5448520000000  0.5965770000000  0.4686680000000 1.0
C      1  0.5872620000000  0.5232690000000  0.5233450000000 1.0
C      1  0.5384620000000  0.5527580000000  0.5598050000000 1.0
C      1  0.4029260000000  0.5658160000000  0.5082260000000 1.0
C      1  0.4182500000000  0.4591560000000  0.5813760000000 1.0
C      1  0.5959260000000  0.4509480000000  0.4964160000000 1.0
C      1  0.5907700000000  0.4794620000000  0.5069390000000 1.0
C      1  0.4923140000000  0.5593990000000  0.5857750000000 1.0
C      1  0.4382290000000  0.5182040000000  0.5340390000000 1.0
C      1  0.5346990000000  0.5063970000000  0.4546080000000 1.0
C      1  0.5678920000000  0.5179380000000  0.5651520000000 1.0
C      1  0.5624970000000  0.5578700000000  0.5452300000000 1.0
C      1  0.4109430000000  0.5305630000000  0.5366880000000 1.0
C      1  0.5203680000000  0.5365670000000  0.4195840000000 1.0
C      1  0.4789180000000  0.4567530000000  0.4003860000000 1.0
C      1  0.4462230000000  0.4401540000000  0.5440440000000 1.0
C      1  0.4341410000000  0.5093430000000  0.4440250000000 1.0
C      1  0.5730600000000  0.4405630000000  0.5392360000000 1.0
C      1  0.5364390000000  0.4190170000000  0.4707180000000 1.0
C      1  0.4494270000000  0.4108040000000  0.5342910000000 1.0
C      1  0.4952780000000  0.5722690000000  0.4213870000000 1.0
C      1  0.4971600000000  0.4421200000000  0.5451580000000 1.0
C      1  0.4804900000000  0.3952890000000  0.5498700000000 1.0
C      1  0.4540220000000  0.4957190000000  0.5953460000000 1.0
C      1  0.4816990000000  0.4606140000000  0.4778150000000 1.0
C      1  0.4536500000000  0.5529110000000  0.4284900000000 1.0
C      1  0.5838890000000  0.5136730000000  0.4722890000000 1.0
C      1  0.4327880000000  0.5443950000000  0.4739330000000 1.0
C      1  0.5428640000000  0.5393250000000  0.4932960000000 1.0
C      1  0.5119690000000  0.4096870000000  0.4831910000000 1.0
C      1  0.5415850000000  0.4464210000000  0.5729450000000 1.0
C      1  0.5063740000000  0.4449140000000  0.4018990000000 1.0
C      1  0.4686590000000  0.5017850000000  0.5060040000000 1.0
C      1  0.5843660000000  0.4312150000000  0.5148080000000 1.0
C      1  0.4348440000000  0.5388040000000  0.4453050000000 1.0
C      1  0.4928310000000  0.4178790000000  0.5618840000000 1.0
C      1  0.4931440000000  0.4875650000000  0.4349850000000 1.0
C      1  0.4971980000000  0.5388550000000  0.5102340000000 1.0
C      1  0.4300020000000  0.4744870000000  0.5127550000000 1.0
C      1  0.4853440000000  0.4862170000000  0.4056860000000 1.0
C      1  0.5534680000000  0.5004690000000  0.4069480000000 1.0
C      1  0.4479910000000  0.4238370000000  0.4867460000000 1.0
C      1  0.4391400000000  0.4955660000000  0.5541530000000 1.0
C      1  0.5367440000000  0.4555990000000  0.4978690000000 1.0
C      1  0.5285300000000  0.4765600000000  0.6126940000000 1.0
C      1  0.4821870000000  0.5963320000000  0.5405210000000 1.0
C      1  0.5618830000000  0.5138350000000  0.5377840000000 1.0
C      1  0.5565110000000  0.4809860000000  0.5024060000000 1.0
C      1  0.4844920000000  0.3983050000000  0.5224000000000 1.0
C      1  0.4617630000000  0.5053390000000  0.4038300000000 1.0
C      1  0.4573070000000  0.6145110000000  0.4685590000000 1.0
C      1  0.5417950000000  0.5093530000000  0.4857960000000 1.0
C      1  0.5102470000000  0.5613230000000  0.5530520000000 1.0
C      1  0.5507460000000  0.4261290000000  0.5516090000000 1.0
END
