TITL C-950524-1808-387 -3.73833245142915e-06 125000 -821.892242666091 0 0 131 (C1) n - 1
REM
REM in /home/bkarasulu/work/CARBON/AIRSS/Generating-Clusters/EDIP-Nigel-Params/with-SteepDescent/Only-C1/SD-CG/HFTN-CG
REM
REM
REM
REM
REM
REM ./C.cell (11c1c37f851c82e70ff6c80c92926a4b)
REM
REM compiler GCC version 9.2.1 20190827 (Red Hat 9.2.1-1)
REM options -cpp -mtune=generic -march=x86-64 -g -O0 -fpre-include=/usr/include/finclude/math-vector-fortran.h
REM seed -483227548 1714244191 -1557460203 -2055967540 -1289438329 1602436609 -1141691747 -1082045540 1085968835 -269545764 -1332981406 2140758839 -1717330589 -821126207 596089153 -407550349 1060009462 1209914396 -644637498 -1107969090 1570828726 -387172684 -36588342 -851020958 1418055803 -1598612039 -544090913 -1745405899 -504654262 -1953797315 -705110087 -567092899 2037289670
REM
CELL 1.54180   50.00000   50.00000   50.00000   90.00000   90.00000   90.00000
LATT -1
SFAC C  
C      1  0.5992130000000  0.5068610000000  0.4941700000000 1.0
C      1  0.5191310000000  0.4128610000000  0.5454170000000 1.0
C      1  0.4576510000000  0.4435670000000  0.5696900000000 1.0
C      1  0.4608950000000  0.5235460000000  0.4684040000000 1.0
C      1  0.4526330000000  0.5479060000000  0.5691620000000 1.0
C      1  0.5132850000000  0.5610120000000  0.5544310000000 1.0
C      1  0.4854230000000  0.4496930000000  0.4219230000000 1.0
C      1  0.4331480000000  0.4917210000000  0.5791300000000 1.0
C      1  0.5096970000000  0.5156170000000  0.5927670000000 1.0
C      1  0.5308000000000  0.5121590000000  0.4445000000000 1.0
C      1  0.4744550000000  0.5991880000000  0.5146940000000 1.0
C      1  0.4051920000000  0.5098560000000  0.5099580000000 1.0
C      1  0.5590790000000  0.5204210000000  0.4841310000000 1.0
C      1  0.4234430000000  0.5464510000000  0.4720240000000 1.0
C      1  0.5392990000000  0.5024980000000  0.5546620000000 1.0
C      1  0.4647320000000  0.4807460000000  0.5484850000000 1.0
C      1  0.4882910000000  0.4000720000000  0.5117670000000 1.0
C      1  0.4325950000000  0.5460060000000  0.4434560000000 1.0
C      1  0.5176940000000  0.5343890000000  0.4911780000000 1.0
C      1  0.5812970000000  0.5564090000000  0.4916060000000 1.0
C      1  0.5330920000000  0.5209940000000  0.3969800000000 1.0
C      1  0.4773390000000  0.4784490000000  0.5986200000000 1.0
C      1  0.5052330000000  0.4882570000000  0.6019430000000 1.0
C      1  0.4815940000000  0.5651260000000  0.4368800000000 1.0
C      1  0.5017500000000  0.4681880000000  0.4397890000000 1.0
C      1  0.5561000000000  0.5732070000000  0.5328720000000 1.0
C      1  0.5664880000000  0.5469700000000  0.4655680000000 1.0
C      1  0.5628870000000  0.5757180000000  0.5048160000000 1.0
C      1  0.4395930000000  0.5195310000000  0.4365140000000 1.0
C      1  0.5740170000000  0.4849250000000  0.4558130000000 1.0
C      1  0.5801550000000  0.4642440000000  0.4782790000000 1.0
C      1  0.4217160000000  0.4976760000000  0.4372290000000 1.0
C      1  0.5214060000000  0.4191610000000  0.4215610000000 1.0
C      1  0.4345910000000  0.4564920000000  0.4724250000000 1.0
C      1  0.5419950000000  0.4325090000000  0.4350580000000 1.0
C      1  0.5486700000000  0.5961730000000  0.4907010000000 1.0
C      1  0.5131070000000  0.4931870000000  0.4252270000000 1.0
C      1  0.5534160000000  0.4417120000000  0.5593330000000 1.0
C      1  0.4896090000000  0.4068360000000  0.5408730000000 1.0
C      1  0.4253970000000  0.4753530000000  0.4197540000000 1.0
C      1  0.4083340000000  0.4657790000000  0.4698410000000 1.0
C      1  0.5489140000000  0.4990900000000  0.4645880000000 1.0
C      1  0.4531390000000  0.5311620000000  0.5122530000000 1.0
C      1  0.5418850000000  0.5634380000000  0.4571670000000 1.0
C      1  0.5347060000000  0.4118190000000  0.5200480000000 1.0
C      1  0.5039920000000  0.5533500000000  0.5072590000000 1.0
C      1  0.5259900000000  0.4756180000000  0.5585210000000 1.0
C      1  0.4710960000000  0.5351190000000  0.6134400000000 1.0
C      1  0.5057150000000  0.5564560000000  0.4201850000000 1.0
C      1  0.4334580000000  0.4639610000000  0.5656080000000 1.0
C      1  0.5102660000000  0.5329870000000  0.4619600000000 1.0
C      1  0.4459270000000  0.4731950000000  0.4013920000000 1.0
C      1  0.5088830000000  0.4437620000000  0.5841280000000 1.0
C      1  0.4639570000000  0.4125300000000  0.5013570000000 1.0
C      1  0.4426370000000  0.4322880000000  0.4609270000000 1.0
C      1  0.4893220000000  0.5119070000000  0.4197720000000 1.0
C      1  0.4107200000000  0.4928590000000  0.4633430000000 1.0
C      1  0.4274830000000  0.5446400000000  0.5259850000000 1.0
C      1  0.4741950000000  0.5252510000000  0.5328320000000 1.0
C      1  0.5929000000000  0.5078970000000  0.4501590000000 1.0
C      1  0.5483750000000  0.4713290000000  0.3999050000000 1.0
C      1  0.5471460000000  0.5294870000000  0.4249530000000 1.0
C      1  0.5058790000000  0.4910760000000  0.5226310000000 1.0
C      1  0.5756080000000  0.5261530000000  0.5352630000000 1.0
C      1  0.4791320000000  0.4503070000000  0.5890440000000 1.0
C      1  0.4423520000000  0.4559340000000  0.5194000000000 1.0
C      1  0.4675830000000  0.5274460000000  0.5854810000000 1.0
C      1  0.5682750000000  0.4471380000000  0.5356720000000 1.0
C      1  0.5402900000000  0.4295210000000  0.4642150000000 1.0
C      1  0.4669780000000  0.4243630000000  0.4737400000000 1.0
C      1  0.5719810000000  0.4711100000000  0.4306330000000 1.0
C      1  0.4797070000000  0.4532950000000  0.4958560000000 1.0
C      1  0.4508790000000  0.4280310000000  0.5235410000000 1.0
C      1  0.4942410000000  0.4222210000000  0.4283610000000 1.0
C      1  0.5251870000000  0.4536340000000  0.5296890000000 1.0
C      1  0.4008400000000  0.5368610000000  0.5159760000000 1.0
C      1  0.5332870000000  0.5548880000000  0.4313600000000 1.0
C      1  0.4989080000000  0.6013490000000  0.5013720000000 1.0
C      1  0.5040550000000  0.5323560000000  0.4027500000000 1.0
C      1  0.4624710000000  0.4966020000000  0.5789590000000 1.0
C      1  0.4842570000000  0.4834590000000  0.4592520000000 1.0
C      1  0.4194660000000  0.5101010000000  0.5591290000000 1.0
C      1  0.5163240000000  0.4837780000000  0.4952130000000 1.0
C      1  0.5132810000000  0.4101410000000  0.5004570000000 1.0
C      1  0.4355720000000  0.5715510000000  0.5159700000000 1.0
C      1  0.4636030000000  0.4227200000000  0.5492300000000 1.0
C      1  0.5015160000000  0.5392190000000  0.5335070000000 1.0
C      1  0.4910550000000  0.5639750000000  0.4643650000000 1.0
C      1  0.5556140000000  0.4462120000000  0.4865890000000 1.0
C      1  0.4511880000000  0.4688850000000  0.4940280000000 1.0
C      1  0.4413040000000  0.5663470000000  0.4864870000000 1.0
C      1  0.5474010000000  0.4591340000000  0.4258850000000 1.0
C      1  0.4919950000000  0.5744440000000  0.5689360000000 1.0
C      1  0.5594740000000  0.4289530000000  0.5134510000000 1.0
C      1  0.4858460000000  0.5132330000000  0.4548110000000 1.0
C      1  0.5168800000000  0.4136610000000  0.4723090000000 1.0
C      1  0.5220360000000  0.5146620000000  0.5320810000000 1.0
C      1  0.5400800000000  0.5257300000000  0.5090080000000 1.0
C      1  0.5732630000000  0.4756770000000  0.5264780000000 1.0
C      1  0.4589790000000  0.5820220000000  0.5303790000000 1.0
C      1  0.4678170000000  0.5515060000000  0.4825510000000 1.0
C      1  0.4200530000000  0.5127920000000  0.4838590000000 1.0
C      1  0.5345300000000  0.5198250000000  0.5785450000000 1.0
C      1  0.5190020000000  0.5799650000000  0.5096570000000 1.0
C      1  0.6123240000000  0.5115690000000  0.4698570000000 1.0
C      1  0.5275410000000  0.4909220000000  0.3979600000000 1.0
C      1  0.4190480000000  0.4969060000000  0.5327730000000 1.0
C      1  0.4981120000000  0.5364450000000  0.6080890000000 1.0
C      1  0.4489200000000  0.5054490000000  0.4921540000000 1.0
C      1  0.5029330000000  0.5922920000000  0.4718160000000 1.0
C      1  0.5536140000000  0.5452750000000  0.5409680000000 1.0
C      1  0.5893700000000  0.4798920000000  0.5016400000000 1.0
C      1  0.4672790000000  0.5698780000000  0.5564670000000 1.0
C      1  0.4287770000000  0.5384120000000  0.5554450000000 1.0
C      1  0.4997320000000  0.4669740000000  0.4785770000000 1.0
C      1  0.4932390000000  0.4417410000000  0.5241000000000 1.0
C      1  0.4909170000000  0.4627680000000  0.5485880000000 1.0
C      1  0.5233680000000  0.4688460000000  0.5884250000000 1.0
C      1  0.4245180000000  0.4686860000000  0.5374510000000 1.0
C      1  0.5280210000000  0.5822940000000  0.5381840000000 1.0
C      1  0.4534810000000  0.5627900000000  0.4343780000000 1.0
C      1  0.5681670000000  0.4991260000000  0.5444510000000 1.0
C      1  0.5328770000000  0.5889830000000  0.4680640000000 1.0
C      1  0.5287430000000  0.4295590000000  0.5664870000000 1.0
C      1  0.4572930000000  0.4535040000000  0.4172180000000 1.0
C      1  0.5884160000000  0.5306200000000  0.5084790000000 1.0
C      1  0.5775730000000  0.5321740000000  0.4405720000000 1.0
C      1  0.5366870000000  0.4655080000000  0.5036880000000 1.0
C      1  0.5377030000000  0.5461850000000  0.5673110000000 1.0
C      1  0.4913780000000  0.4160520000000  0.4573740000000 1.0
C      1  0.4766300000000  0.4972690000000  0.5259490000000 1.0
END
