TITL C-950527-2551-367 -4.31541294198509e-07 125000 -205.123709893905 0 0 35 (C1) n - 1
REM
REM in /home/bkarasulu/work/CARBON/AIRSS/Generating-Clusters/EDIP-Nigel-Params/with-SteepDescent/Only-C1/SD-CG/HFTN-CG
REM
REM
REM
REM
REM
REM ./C.cell (11c1c37f851c82e70ff6c80c92926a4b)
REM
REM compiler GCC version 9.2.1 20190827 (Red Hat 9.2.1-1)
REM options -cpp -mtune=generic -march=x86-64 -g -O0 -fpre-include=/usr/include/finclude/math-vector-fortran.h
REM seed 2027342519 1046686392 961631680 684445889 -836703080 -1604627559 505494462 -852116502 -1780627622 -1262657005 604311465 -719978212 1145033628 -590173499 -1096603660 -340011103 -325476793 588176349 1690033327 -450208926 -1285822999 1389280307 -1184467469 1812376436 1622921568 -1304401069 -1701079050 668655073 1463413668 252251605 -2065384432 413135675 172834752
REM
CELL 1.54180   50.00000   50.00000   50.00000   90.00000   90.00000   90.00000
LATT -1
SFAC C  
C      1  0.4378360000000  0.5242540000000  0.5310860000000 1.0
C      1  0.4877530000000  0.4816700000000  0.4388460000000 1.0
C      1  0.5420220000000  0.5387460000000  0.5113730000000 1.0
C      1  0.5204740000000  0.4599920000000  0.4700420000000 1.0
C      1  0.5167550000000  0.5493510000000  0.4984660000000 1.0
C      1  0.5404290000000  0.4732190000000  0.5247390000000 1.0
C      1  0.4923120000000  0.5077630000000  0.4816720000000 1.0
C      1  0.5531640000000  0.4901070000000  0.4686840000000 1.0
C      1  0.5139110000000  0.5125340000000  0.5103020000000 1.0
C      1  0.5310380000000  0.5010770000000  0.4542760000000 1.0
C      1  0.5483350000000  0.4633470000000  0.4766250000000 1.0
C      1  0.4511460000000  0.5291800000000  0.5067600000000 1.0
C      1  0.5053000000000  0.5233720000000  0.5582480000000 1.0
C      1  0.5065390000000  0.4963560000000  0.5619480000000 1.0
C      1  0.4712520000000  0.4584120000000  0.4913180000000 1.0
C      1  0.5131960000000  0.4699940000000  0.5198190000000 1.0
C      1  0.4526510000000  0.4817660000000  0.4844110000000 1.0
C      1  0.4518800000000  0.4669560000000  0.5303490000000 1.0
C      1  0.5012640000000  0.4661250000000  0.4928020000000 1.0
C      1  0.4963650000000  0.4834090000000  0.5389300000000 1.0
C      1  0.4689350000000  0.4898130000000  0.5282240000000 1.0
C      1  0.4616100000000  0.4462570000000  0.5150780000000 1.0
C      1  0.5257270000000  0.5288080000000  0.4525300000000 1.0
C      1  0.4664620000000  0.5037410000000  0.5003600000000 1.0
C      1  0.4535160000000  0.4882970000000  0.4565950000000 1.0
C      1  0.4928760000000  0.5525400000000  0.5181580000000 1.0
C      1  0.4974990000000  0.5269530000000  0.5313450000000 1.0
C      1  0.5153560000000  0.4773190000000  0.4457340000000 1.0
C      1  0.5682030000000  0.5077160000000  0.4840730000000 1.0
C      1  0.4777340000000  0.5030650000000  0.4543560000000 1.0
C      1  0.5577480000000  0.5147710000000  0.5089670000000 1.0
C      1  0.5563790000000  0.4946650000000  0.5282920000000 1.0
C      1  0.4672600000000  0.5523380000000  0.5066190000000 1.0
C      1  0.5078940000000  0.5332510000000  0.4742360000000 1.0
C      1  0.4491800000000  0.5028380000000  0.5447360000000 1.0
END
