TITL C-951336-9012-737 -5.68000536852698e-06 125000 -1026.59828815165 0 0 164 (C1) n - 1
REM
REM in /home/bkarasulu/work/CARBON/AIRSS/Generating-Clusters/EDIP-Nigel-Params/with-SteepDescent/Only-C1/SD-CG/HFTN-CG
REM
REM
REM
REM
REM
REM ./C.cell (11c1c37f851c82e70ff6c80c92926a4b)
REM
REM compiler GCC version 9.2.1 20190827 (Red Hat 9.2.1-1)
REM options -cpp -mtune=generic -march=x86-64 -g -O0 -fpre-include=/usr/include/finclude/math-vector-fortran.h
REM seed 560588102 -710296282 1977406012 -8565287 -663612217 1285235174 -1531318462 1611718448 -109753993 -2072864044 -1494023573 1782748263 1954632303 -1386192378 1030855248 269750177 -891399637 278704828 -1050615081 908675860 1114092718 -640911703 234824110 1476255379 1697396358 176893492 1082100210 1919963528 -733075475 1799813106 375823912 -1387072081 -384558820
REM
CELL 1.54180   50.00000   50.00000   50.00000   90.00000   90.00000   90.00000
LATT -1
SFAC C  
C      1  0.5006300000000  0.4120200000000  0.5193300000000 1.0
C      1  0.4002610000000  0.4824080000000  0.5443620000000 1.0
C      1  0.5357530000000  0.4487330000000  0.5341090000000 1.0
C      1  0.4184450000000  0.4992260000000  0.4306210000000 1.0
C      1  0.4884240000000  0.4716250000000  0.3988870000000 1.0
C      1  0.5801430000000  0.4715360000000  0.5465380000000 1.0
C      1  0.4652450000000  0.4605650000000  0.4129060000000 1.0
C      1  0.5198660000000  0.5588820000000  0.4975310000000 1.0
C      1  0.5552050000000  0.5740780000000  0.4474250000000 1.0
C      1  0.5266810000000  0.4672000000000  0.6067550000000 1.0
C      1  0.4736700000000  0.4145380000000  0.5605920000000 1.0
C      1  0.4495740000000  0.5489250000000  0.4699870000000 1.0
C      1  0.3862050000000  0.4723620000000  0.5202530000000 1.0
C      1  0.4947400000000  0.5627680000000  0.4168450000000 1.0
C      1  0.5238950000000  0.4001090000000  0.5745950000000 1.0
C      1  0.5159290000000  0.4263450000000  0.5802210000000 1.0
C      1  0.4146820000000  0.4377090000000  0.5495410000000 1.0
C      1  0.4768340000000  0.4612000000000  0.5753710000000 1.0
C      1  0.5662060000000  0.4859720000000  0.5860290000000 1.0
C      1  0.4757530000000  0.4047360000000  0.5349890000000 1.0
C      1  0.4330080000000  0.4276250000000  0.4597270000000 1.0
C      1  0.4077290000000  0.4610610000000  0.5639710000000 1.0
C      1  0.5333520000000  0.5915840000000  0.4552870000000 1.0
C      1  0.5073520000000  0.5171170000000  0.4539720000000 1.0
C      1  0.3979680000000  0.5467480000000  0.4943500000000 1.0
C      1  0.5317460000000  0.4339720000000  0.4419270000000 1.0
C      1  0.5826780000000  0.5529110000000  0.5079280000000 1.0
C      1  0.4732160000000  0.4793710000000  0.5478050000000 1.0
C      1  0.4673880000000  0.5229050000000  0.4258420000000 1.0
C      1  0.4356630000000  0.5226960000000  0.4282930000000 1.0
C      1  0.4768890000000  0.5229000000000  0.4896660000000 1.0
C      1  0.5253220000000  0.3938930000000  0.5263430000000 1.0
C      1  0.4971040000000  0.5588330000000  0.5191330000000 1.0
C      1  0.5680850000000  0.4272960000000  0.4764710000000 1.0
C      1  0.5938850000000  0.5090650000000  0.4451970000000 1.0
C      1  0.4895860000000  0.5028600000000  0.4746400000000 1.0
C      1  0.4566180000000  0.5073670000000  0.5995100000000 1.0
C      1  0.6018080000000  0.4918370000000  0.5447330000000 1.0
C      1  0.5031670000000  0.5248060000000  0.6126870000000 1.0
C      1  0.4629650000000  0.4555210000000  0.4743640000000 1.0
C      1  0.5093550000000  0.6087850000000  0.5179990000000 1.0
C      1  0.3978040000000  0.4586070000000  0.4772580000000 1.0
C      1  0.5923210000000  0.5499730000000  0.4788670000000 1.0
C      1  0.4985990000000  0.4921940000000  0.5844950000000 1.0
C      1  0.5095820000000  0.5131830000000  0.5375600000000 1.0
C      1  0.4470040000000  0.5420170000000  0.5173450000000 1.0
C      1  0.5556150000000  0.4616970000000  0.5066540000000 1.0
C      1  0.3934160000000  0.4876580000000  0.4854940000000 1.0
C      1  0.4292800000000  0.4114590000000  0.5093790000000 1.0
C      1  0.4747980000000  0.5965080000000  0.4495690000000 1.0
C      1  0.6140770000000  0.4887760000000  0.5180760000000 1.0
C      1  0.4642890000000  0.5968720000000  0.5155080000000 1.0
C      1  0.4909510000000  0.4428930000000  0.4817460000000 1.0
C      1  0.5633500000000  0.5588050000000  0.5415350000000 1.0
C      1  0.4898900000000  0.5884890000000  0.5275680000000 1.0
C      1  0.4249620000000  0.4725060000000  0.5833210000000 1.0
C      1  0.4738830000000  0.5447630000000  0.5061120000000 1.0
C      1  0.4242340000000  0.5308890000000  0.4929490000000 1.0
C      1  0.4744850000000  0.4356040000000  0.4269390000000 1.0
C      1  0.5387500000000  0.5775530000000  0.5444040000000 1.0
C      1  0.4912040000000  0.5888310000000  0.5577050000000 1.0
C      1  0.4404170000000  0.5900310000000  0.5330150000000 1.0
C      1  0.4021750000000  0.5631930000000  0.5182730000000 1.0
C      1  0.4312620000000  0.5694050000000  0.5128520000000 1.0
C      1  0.5020840000000  0.5415670000000  0.5453530000000 1.0
C      1  0.5169230000000  0.5541070000000  0.5784840000000 1.0
C      1  0.5151250000000  0.5511340000000  0.4372890000000 1.0
C      1  0.4935570000000  0.5004780000000  0.4076660000000 1.0
C      1  0.5114040000000  0.4514130000000  0.4025140000000 1.0
C      1  0.5587210000000  0.5128480000000  0.4609070000000 1.0
C      1  0.5054920000000  0.5603180000000  0.4684030000000 1.0
C      1  0.5356790000000  0.5988280000000  0.5252050000000 1.0
C      1  0.4251700000000  0.4934280000000  0.5338790000000 1.0
C      1  0.4155770000000  0.4332070000000  0.5219260000000 1.0
C      1  0.5791340000000  0.5674540000000  0.4608670000000 1.0
C      1  0.5608480000000  0.5335390000000  0.5056880000000 1.0
C      1  0.5438930000000  0.3941820000000  0.5031240000000 1.0
C      1  0.4255300000000  0.4716390000000  0.4366020000000 1.0
C      1  0.6005660000000  0.5221010000000  0.4712400000000 1.0
C      1  0.5539720000000  0.4882400000000  0.5441650000000 1.0
C      1  0.4214730000000  0.4542650000000  0.4602320000000 1.0
C      1  0.4717160000000  0.4660690000000  0.5208880000000 1.0
C      1  0.5182270000000  0.5780530000000  0.5645310000000 1.0
C      1  0.5960460000000  0.4708950000000  0.4780320000000 1.0
C      1  0.4704020000000  0.5705530000000  0.5692850000000 1.0
C      1  0.5624680000000  0.5272600000000  0.4319150000000 1.0
C      1  0.4258580000000  0.4809100000000  0.5067830000000 1.0
C      1  0.5031770000000  0.4289420000000  0.4206570000000 1.0
C      1  0.5363850000000  0.4460790000000  0.5890990000000 1.0
C      1  0.5404660000000  0.4917340000000  0.5989420000000 1.0
C      1  0.5357150000000  0.5198920000000  0.3917110000000 1.0
C      1  0.5761790000000  0.4261400000000  0.5285700000000 1.0
C      1  0.5382630000000  0.4876380000000  0.4260820000000 1.0
C      1  0.5500790000000  0.4907570000000  0.5150370000000 1.0
C      1  0.4754530000000  0.5425920000000  0.5602170000000 1.0
C      1  0.4970160000000  0.5902440000000  0.4692490000000 1.0
C      1  0.4494200000000  0.5990560000000  0.4652110000000 1.0
C      1  0.5397660000000  0.5384370000000  0.5834130000000 1.0
C      1  0.4830680000000  0.5154520000000  0.5942560000000 1.0
C      1  0.5093410000000  0.5136380000000  0.3861080000000 1.0
C      1  0.4032910000000  0.5512990000000  0.5437100000000 1.0
C      1  0.6075780000000  0.4610020000000  0.5068820000000 1.0
C      1  0.4100410000000  0.5657650000000  0.4492330000000 1.0
C      1  0.5702910000000  0.5073880000000  0.5034740000000 1.0
C      1  0.5233130000000  0.5063430000000  0.5115230000000 1.0
C      1  0.5819270000000  0.4543210000000  0.5219010000000 1.0
C      1  0.5396410000000  0.4020460000000  0.5516410000000 1.0
C      1  0.4536290000000  0.4822920000000  0.4307870000000 1.0
C      1  0.4392010000000  0.4964560000000  0.5804620000000 1.0
C      1  0.5293490000000  0.5185200000000  0.6018620000000 1.0
C      1  0.5682230000000  0.4578000000000  0.4780620000000 1.0
C      1  0.4201490000000  0.5021320000000  0.4860880000000 1.0
C      1  0.5635130000000  0.4539510000000  0.5770210000000 1.0
C      1  0.5451470000000  0.5529340000000  0.4312220000000 1.0
C      1  0.4518310000000  0.4009580000000  0.5215040000000 1.0
C      1  0.4277580000000  0.4115060000000  0.4817470000000 1.0
C      1  0.4962280000000  0.4707160000000  0.4428440000000 1.0
C      1  0.4738560000000  0.5447540000000  0.4514130000000 1.0
C      1  0.4419860000000  0.5764750000000  0.5606790000000 1.0
C      1  0.5542540000000  0.4287640000000  0.5491620000000 1.0
C      1  0.5785810000000  0.4597710000000  0.4338960000000 1.0
C      1  0.5043660000000  0.4888120000000  0.5536780000000 1.0
C      1  0.4597560000000  0.4255220000000  0.4499520000000 1.0
C      1  0.5310020000000  0.3963620000000  0.4766530000000 1.0
C      1  0.5099620000000  0.4950650000000  0.4323520000000 1.0
C      1  0.5098760000000  0.6133240000000  0.4882880000000 1.0
C      1  0.5032600000000  0.3939980000000  0.4732460000000 1.0
C      1  0.4879350000000  0.4334000000000  0.5747010000000 1.0
C      1  0.5371270000000  0.6052950000000  0.4794930000000 1.0
C      1  0.4495990000000  0.5328620000000  0.5476180000000 1.0
C      1  0.5326490000000  0.5319420000000  0.4966530000000 1.0
C      1  0.5504740000000  0.4840610000000  0.4552840000000 1.0
C      1  0.4521570000000  0.4675500000000  0.5005270000000 1.0
C      1  0.3964100000000  0.4488510000000  0.5062380000000 1.0
C      1  0.3924510000000  0.5613540000000  0.4707290000000 1.0
C      1  0.4922400000000  0.5338670000000  0.3781350000000 1.0
C      1  0.5384490000000  0.4631820000000  0.4087680000000 1.0
C      1  0.4268980000000  0.5498500000000  0.5592600000000 1.0
C      1  0.4923620000000  0.4133860000000  0.4901200000000 1.0
C      1  0.4963660000000  0.4596910000000  0.5069760000000 1.0
C      1  0.4266140000000  0.5883810000000  0.4524900000000 1.0
C      1  0.5436810000000  0.5849150000000  0.5006830000000 1.0
C      1  0.5940860000000  0.4786700000000  0.4484190000000 1.0
C      1  0.4793100000000  0.5416650000000  0.4022080000000 1.0
C      1  0.5460310000000  0.4153720000000  0.4605920000000 1.0
C      1  0.4720520000000  0.5714150000000  0.4340940000000 1.0
C      1  0.5281920000000  0.4738970000000  0.4737800000000 1.0
C      1  0.5968490000000  0.5015820000000  0.4933360000000 1.0
C      1  0.5549120000000  0.4463140000000  0.4251680000000 1.0
C      1  0.5614850000000  0.5358370000000  0.5635820000000 1.0
C      1  0.4474140000000  0.5010980000000  0.5523480000000 1.0
C      1  0.5718670000000  0.5791930000000  0.5095390000000 1.0
C      1  0.4979540000000  0.4699340000000  0.6056470000000 1.0
C      1  0.4588220000000  0.5820850000000  0.4879180000000 1.0
C      1  0.5771540000000  0.5097160000000  0.5679750000000 1.0
C      1  0.5664460000000  0.4135570000000  0.5032510000000 1.0
C      1  0.5306890000000  0.4717010000000  0.5530980000000 1.0
C      1  0.4710840000000  0.4794500000000  0.4567980000000 1.0
C      1  0.5096840000000  0.4401800000000  0.5243270000000 1.0
C      1  0.5126870000000  0.4533890000000  0.4601990000000 1.0
C      1  0.4270180000000  0.5414960000000  0.4508040000000 1.0
C      1  0.5090010000000  0.4869930000000  0.4929370000000 1.0
C      1  0.5514280000000  0.5093600000000  0.4117030000000 1.0
C      1  0.5328520000000  0.5251450000000  0.4684370000000 1.0
END
