TITL C-950529-3362-664 -9.03258907778468e-07 125000 -837.25061103213 0 0 133 (C1) n - 1
REM
REM in /home/bkarasulu/work/CARBON/AIRSS/Generating-Clusters/EDIP-Nigel-Params/with-SteepDescent/Only-C1/SD-CG/HFTN-CG
REM
REM
REM
REM
REM
REM ./C.cell (11c1c37f851c82e70ff6c80c92926a4b)
REM
REM compiler GCC version 9.2.1 20190827 (Red Hat 9.2.1-1)
REM options -cpp -mtune=generic -march=x86-64 -g -O0 -fpre-include=/usr/include/finclude/math-vector-fortran.h
REM seed 421113143 1565436283 1341803479 1637630771 -540038724 573546828 -1094534300 1435967773 -925857366 -1146219390 570460142 -1948528673 -232168630 262503860 1921957989 -2024106745 -523327619 615169802 281458457 -1798242606 1668625906 -798733293 1365776045 -2059313392 -1866210925 1922686603 682279375 -1307221834 1389392393 -427037239 -215945363 209693503 1330872440
REM
CELL 1.54180   50.00000   50.00000   50.00000   90.00000   90.00000   90.00000
LATT -1
SFAC C  
C      1  0.5938230000000  0.4719070000000  0.5344840000000 1.0
C      1  0.4905960000000  0.5887910000000  0.4566440000000 1.0
C      1  0.4596800000000  0.4207910000000  0.4757320000000 1.0
C      1  0.5022270000000  0.5070770000000  0.4200500000000 1.0
C      1  0.4308760000000  0.5785450000000  0.5349690000000 1.0
C      1  0.4106650000000  0.5699920000000  0.4915890000000 1.0
C      1  0.5685380000000  0.4210940000000  0.4573390000000 1.0
C      1  0.4790950000000  0.5247800000000  0.4246420000000 1.0
C      1  0.5295210000000  0.4762410000000  0.5078200000000 1.0
C      1  0.4373890000000  0.5127100000000  0.4257930000000 1.0
C      1  0.4980020000000  0.4850340000000  0.4705760000000 1.0
C      1  0.4645150000000  0.5659990000000  0.5852020000000 1.0
C      1  0.4549340000000  0.4674310000000  0.4171900000000 1.0
C      1  0.5167170000000  0.5276060000000  0.4626150000000 1.0
C      1  0.4480880000000  0.4456080000000  0.4868860000000 1.0
C      1  0.5212730000000  0.5294090000000  0.4125120000000 1.0
C      1  0.4093430000000  0.5816160000000  0.5171520000000 1.0
C      1  0.5109560000000  0.4946920000000  0.4950420000000 1.0
C      1  0.5055410000000  0.4842190000000  0.5658540000000 1.0
C      1  0.4080190000000  0.4676320000000  0.5156870000000 1.0
C      1  0.5119330000000  0.5534530000000  0.4270930000000 1.0
C      1  0.4848370000000  0.4559170000000  0.5297620000000 1.0
C      1  0.5039390000000  0.4384500000000  0.4884730000000 1.0
C      1  0.5973480000000  0.5263950000000  0.5527480000000 1.0
C      1  0.5502350000000  0.5419760000000  0.5626410000000 1.0
C      1  0.4583210000000  0.4233440000000  0.4470330000000 1.0
C      1  0.5305520000000  0.5732140000000  0.4369470000000 1.0
C      1  0.4786070000000  0.4329080000000  0.5477040000000 1.0
C      1  0.4582420000000  0.4745020000000  0.5702620000000 1.0
C      1  0.5440130000000  0.5159170000000  0.5776760000000 1.0
C      1  0.5535460000000  0.5645760000000  0.4498960000000 1.0
C      1  0.4319700000000  0.4280690000000  0.5283980000000 1.0
C      1  0.4667810000000  0.4505520000000  0.4403660000000 1.0
C      1  0.3979440000000  0.5275390000000  0.5169060000000 1.0
C      1  0.5112460000000  0.4507570000000  0.5155000000000 1.0
C      1  0.5773140000000  0.5462850000000  0.5499530000000 1.0
C      1  0.4252240000000  0.4433550000000  0.5060050000000 1.0
C      1  0.5147740000000  0.5562320000000  0.5909030000000 1.0
C      1  0.5253610000000  0.5203930000000  0.4898070000000 1.0
C      1  0.4790370000000  0.4062010000000  0.5351870000000 1.0
C      1  0.4531770000000  0.5475270000000  0.5674770000000 1.0
C      1  0.4889590000000  0.5226160000000  0.5209220000000 1.0
C      1  0.5477490000000  0.5215660000000  0.4164990000000 1.0
C      1  0.5557020000000  0.5122700000000  0.4883840000000 1.0
C      1  0.5247010000000  0.4039540000000  0.5188100000000 1.0
C      1  0.5572210000000  0.5685030000000  0.4996560000000 1.0
C      1  0.4607060000000  0.5134750000000  0.4057590000000 1.0
C      1  0.4156780000000  0.5287690000000  0.5412340000000 1.0
C      1  0.5023180000000  0.4561950000000  0.4660880000000 1.0
C      1  0.5248070000000  0.4301790000000  0.5629310000000 1.0
C      1  0.4853970000000  0.5904370000000  0.5308800000000 1.0
C      1  0.5398240000000  0.4856040000000  0.4476830000000 1.0
C      1  0.4952200000000  0.3989040000000  0.5125560000000 1.0
C      1  0.4562400000000  0.5892680000000  0.5231610000000 1.0
C      1  0.4087010000000  0.5247320000000  0.4663290000000 1.0
C      1  0.4258000000000  0.4759390000000  0.4547620000000 1.0
C      1  0.5954080000000  0.5409720000000  0.5077420000000 1.0
C      1  0.5743140000000  0.5552110000000  0.5212310000000 1.0
C      1  0.4345880000000  0.5786820000000  0.4760980000000 1.0
C      1  0.4987040000000  0.3952510000000  0.4661270000000 1.0
C      1  0.4423840000000  0.4994820000000  0.5747220000000 1.0
C      1  0.5385600000000  0.5666590000000  0.5764400000000 1.0
C      1  0.4182300000000  0.4974320000000  0.4749160000000 1.0
C      1  0.5706550000000  0.4349880000000  0.4330240000000 1.0
C      1  0.5292770000000  0.4307360000000  0.5326380000000 1.0
C      1  0.4800630000000  0.5391230000000  0.4972870000000 1.0
C      1  0.4310800000000  0.4833320000000  0.4274060000000 1.0
C      1  0.5455430000000  0.4039930000000  0.4960960000000 1.0
C      1  0.4975640000000  0.4350550000000  0.5720630000000 1.0
C      1  0.4520600000000  0.4654200000000  0.4636220000000 1.0
C      1  0.4280390000000  0.4815630000000  0.5334700000000 1.0
C      1  0.3980830000000  0.4844120000000  0.4923050000000 1.0
C      1  0.4455110000000  0.5052020000000  0.4896350000000 1.0
C      1  0.4476000000000  0.4967220000000  0.5179630000000 1.0
C      1  0.5676130000000  0.5601920000000  0.4735050000000 1.0
C      1  0.5022650000000  0.5953280000000  0.5062930000000 1.0
C      1  0.5387560000000  0.4891850000000  0.5606580000000 1.0
C      1  0.5500520000000  0.5181730000000  0.5200120000000 1.0
C      1  0.5836910000000  0.4626850000000  0.4777080000000 1.0
C      1  0.5134500000000  0.5011440000000  0.4489540000000 1.0
C      1  0.5177460000000  0.5258110000000  0.5904650000000 1.0
C      1  0.5944380000000  0.5099940000000  0.4680860000000 1.0
C      1  0.5504620000000  0.4821650000000  0.4789670000000 1.0
C      1  0.4807980000000  0.5620810000000  0.4471200000000 1.0
C      1  0.5675340000000  0.4222710000000  0.5050060000000 1.0
C      1  0.4880950000000  0.4128310000000  0.4860830000000 1.0
C      1  0.4277290000000  0.5356750000000  0.4466050000000 1.0
C      1  0.4667870000000  0.5170140000000  0.4515730000000 1.0
C      1  0.5419940000000  0.4921340000000  0.5307060000000 1.0
C      1  0.5853540000000  0.5361180000000  0.4802700000000 1.0
C      1  0.5069170000000  0.5286000000000  0.5432560000000 1.0
C      1  0.5259030000000  0.5672510000000  0.5310750000000 1.0
C      1  0.5484550000000  0.4428240000000  0.4180090000000 1.0
C      1  0.4517820000000  0.5350610000000  0.4891840000000 1.0
C      1  0.4911040000000  0.5682410000000  0.5770760000000 1.0
C      1  0.5592100000000  0.5013410000000  0.4315450000000 1.0
C      1  0.6026290000000  0.5190650000000  0.5257590000000 1.0
C      1  0.5277210000000  0.5852980000000  0.5548340000000 1.0
C      1  0.4705450000000  0.4658410000000  0.5941310000000 1.0
C      1  0.4984350000000  0.5893360000000  0.5580570000000 1.0
C      1  0.4548530000000  0.5932230000000  0.4936790000000 1.0
C      1  0.5930530000000  0.4880510000000  0.4874760000000 1.0
C      1  0.4471670000000  0.5533140000000  0.4638020000000 1.0
C      1  0.5809480000000  0.4338400000000  0.4807430000000 1.0
C      1  0.3874750000000  0.5007030000000  0.5129990000000 1.0
C      1  0.4729350000000  0.4866290000000  0.4042270000000 1.0
C      1  0.5305830000000  0.4611800000000  0.4320290000000 1.0
C      1  0.5432920000000  0.4440200000000  0.5786240000000 1.0
C      1  0.5039140000000  0.4475690000000  0.4374760000000 1.0
C      1  0.4985510000000  0.5152020000000  0.5696370000000 1.0
C      1  0.4193320000000  0.5012460000000  0.5550740000000 1.0
C      1  0.5339420000000  0.5390740000000  0.5376580000000 1.0
C      1  0.5171520000000  0.5942830000000  0.4492610000000 1.0
C      1  0.4676200000000  0.4912320000000  0.4708230000000 1.0
C      1  0.5572940000000  0.4656940000000  0.5679890000000 1.0
C      1  0.4972730000000  0.4617560000000  0.5863050000000 1.0
C      1  0.4631170000000  0.5196600000000  0.5663330000000 1.0
C      1  0.5574030000000  0.4392970000000  0.5264500000000 1.0
C      1  0.4798640000000  0.4796620000000  0.5478350000000 1.0
C      1  0.4310000000000  0.5529410000000  0.5500160000000 1.0
C      1  0.5431810000000  0.4104260000000  0.4672220000000 1.0
C      1  0.4494680000000  0.4266930000000  0.5497770000000 1.0
C      1  0.5840890000000  0.5049830000000  0.4428580000000 1.0
C      1  0.4827650000000  0.5952300000000  0.4841040000000 1.0
C      1  0.5977280000000  0.4922220000000  0.5158530000000 1.0
C      1  0.5128000000000  0.4186520000000  0.4283920000000 1.0
C      1  0.5290800000000  0.5793570000000  0.5039330000000 1.0
C      1  0.5736340000000  0.4553790000000  0.5449940000000 1.0
C      1  0.4079510000000  0.5406280000000  0.4917710000000 1.0
C      1  0.4892530000000  0.5383330000000  0.4660890000000 1.0
C      1  0.4687930000000  0.5065950000000  0.5353520000000 1.0
C      1  0.5209380000000  0.4009040000000  0.4507310000000 1.0
C      1  0.5331980000000  0.4209850000000  0.4085950000000 1.0
END
