TITL C-950535-5962-463 -1.58198843345375e-06 125000 -1188.27469054015 0 0 191 (C1) n - 1
REM
REM in /home/bkarasulu/work/CARBON/AIRSS/Generating-Clusters/EDIP-Nigel-Params/with-SteepDescent/Only-C1/SD-CG/HFTN-CG
REM
REM
REM
REM
REM
REM ./C.cell (11c1c37f851c82e70ff6c80c92926a4b)
REM
REM compiler GCC version 9.2.1 20190827 (Red Hat 9.2.1-1)
REM options -cpp -mtune=generic -march=x86-64 -g -O0 -fpre-include=/usr/include/finclude/math-vector-fortran.h
REM seed 538419387 309785298 -1892817496 -616283085 1203257520 -1603577767 -1813417829 -1854568984 259512040 -1337406311 1491384554 -322677899 914027776 1575807899 -663909577 -1838911358 699330507 1598291949 -1394616270 -1863094170 1684730207 636226149 539579868 -1626816656 895295373 -2076266597 -1117498758 -1771700693 819218960 -297388456 -1755491932 -1293182998 -235079334
REM
CELL 1.54180   50.00000   50.00000   50.00000   90.00000   90.00000   90.00000
LATT -1
SFAC C  
C      1  0.5615160000000  0.4418590000000  0.5787910000000 1.0
C      1  0.5186110000000  0.5413110000000  0.4073430000000 1.0
C      1  0.4193460000000  0.5723740000000  0.4612380000000 1.0
C      1  0.4987240000000  0.6058640000000  0.5483520000000 1.0
C      1  0.5189040000000  0.5529560000000  0.4535590000000 1.0
C      1  0.3958740000000  0.4772650000000  0.4985210000000 1.0
C      1  0.4710450000000  0.5269190000000  0.4683820000000 1.0
C      1  0.4108680000000  0.5421530000000  0.4615170000000 1.0
C      1  0.4157910000000  0.5170850000000  0.4170220000000 1.0
C      1  0.4324840000000  0.4485950000000  0.5806680000000 1.0
C      1  0.5506410000000  0.5944240000000  0.4607640000000 1.0
C      1  0.4996140000000  0.5174950000000  0.4053290000000 1.0
C      1  0.6100030000000  0.5507310000000  0.4793020000000 1.0
C      1  0.5611820000000  0.4685940000000  0.5935650000000 1.0
C      1  0.5755470000000  0.5032280000000  0.5805500000000 1.0
C      1  0.4591860000000  0.4801170000000  0.4793760000000 1.0
C      1  0.5789310000000  0.4860950000000  0.4225800000000 1.0
C      1  0.4564010000000  0.5325650000000  0.5888040000000 1.0
C      1  0.5640620000000  0.4962650000000  0.4683830000000 1.0
C      1  0.4589850000000  0.5169380000000  0.4413440000000 1.0
C      1  0.4829730000000  0.4371080000000  0.4990340000000 1.0
C      1  0.5686780000000  0.5518490000000  0.5903530000000 1.0
C      1  0.4910830000000  0.4811170000000  0.4342540000000 1.0
C      1  0.4742760000000  0.4804740000000  0.3989710000000 1.0
C      1  0.5371260000000  0.4747090000000  0.6087230000000 1.0
C      1  0.4981840000000  0.5691300000000  0.5749190000000 1.0
C      1  0.4487360000000  0.5930000000000  0.4954520000000 1.0
C      1  0.4177350000000  0.4998070000000  0.5789210000000 1.0
C      1  0.4109170000000  0.4366770000000  0.4330300000000 1.0
C      1  0.5435160000000  0.4522970000000  0.5337650000000 1.0
C      1  0.5029470000000  0.5676890000000  0.4114420000000 1.0
C      1  0.5614950000000  0.4439610000000  0.4346350000000 1.0
C      1  0.5948290000000  0.4366330000000  0.4816920000000 1.0
C      1  0.4709750000000  0.5657600000000  0.5581540000000 1.0
C      1  0.5672710000000  0.5079380000000  0.4086120000000 1.0
C      1  0.4140040000000  0.5202310000000  0.5548380000000 1.0
C      1  0.5237090000000  0.4819310000000  0.4275040000000 1.0
C      1  0.4309090000000  0.5027280000000  0.5306740000000 1.0
C      1  0.4070920000000  0.4494940000000  0.5034780000000 1.0
C      1  0.5189690000000  0.4932390000000  0.3996350000000 1.0
C      1  0.4406590000000  0.5063240000000  0.5970630000000 1.0
C      1  0.5087770000000  0.5284260000000  0.3627220000000 1.0
C      1  0.4999990000000  0.4708880000000  0.3854570000000 1.0
C      1  0.5033780000000  0.4874530000000  0.5123790000000 1.0
C      1  0.4386050000000  0.5194860000000  0.5064400000000 1.0
C      1  0.5350120000000  0.5037310000000  0.6152120000000 1.0
C      1  0.5124060000000  0.5292530000000  0.5961360000000 1.0
C      1  0.5996610000000  0.5511890000000  0.5071840000000 1.0
C      1  0.4722960000000  0.4098570000000  0.4865750000000 1.0
C      1  0.5845420000000  0.4678780000000  0.5506340000000 1.0
C      1  0.4709670000000  0.5409380000000  0.5404080000000 1.0
C      1  0.4361210000000  0.4231220000000  0.5660160000000 1.0
C      1  0.4845860000000  0.5094250000000  0.4297850000000 1.0
C      1  0.4462310000000  0.4796200000000  0.5453700000000 1.0
C      1  0.4996000000000  0.5748500000000  0.4409800000000 1.0
C      1  0.5659560000000  0.4896150000000  0.5562410000000 1.0
C      1  0.4881020000000  0.4028330000000  0.4619640000000 1.0
C      1  0.4297990000000  0.4020070000000  0.5210190000000 1.0
C      1  0.5444620000000  0.5067150000000  0.3891490000000 1.0
C      1  0.3951750000000  0.4889090000000  0.5260330000000 1.0
C      1  0.5941770000000  0.5015680000000  0.4611060000000 1.0
C      1  0.4720360000000  0.5438100000000  0.6102700000000 1.0
C      1  0.5631660000000  0.4118820000000  0.5372190000000 1.0
C      1  0.5691050000000  0.5545380000000  0.4551840000000 1.0
C      1  0.4334450000000  0.5878780000000  0.5213070000000 1.0
C      1  0.5122410000000  0.5961750000000  0.4818380000000 1.0
C      1  0.5793060000000  0.4648190000000  0.4412850000000 1.0
C      1  0.4472010000000  0.5997690000000  0.5434000000000 1.0
C      1  0.5116880000000  0.6166410000000  0.5024620000000 1.0
C      1  0.4468280000000  0.5785220000000  0.4690410000000 1.0
C      1  0.5293990000000  0.5002450000000  0.5216470000000 1.0
C      1  0.4222330000000  0.4724370000000  0.5644580000000 1.0
C      1  0.5029370000000  0.5320280000000  0.4695790000000 1.0
C      1  0.4670590000000  0.4996900000000  0.3773870000000 1.0
C      1  0.4659300000000  0.4937800000000  0.5629560000000 1.0
C      1  0.5381150000000  0.5049760000000  0.4465960000000 1.0
C      1  0.5498090000000  0.5726980000000  0.5775220000000 1.0
C      1  0.4415750000000  0.4894910000000  0.4398200000000 1.0
C      1  0.5630590000000  0.5379380000000  0.5373720000000 1.0
C      1  0.5046270000000  0.5076580000000  0.6172210000000 1.0
C      1  0.6010750000000  0.4576260000000  0.4604880000000 1.0
C      1  0.4681190000000  0.5741500000000  0.4477480000000 1.0
C      1  0.5255600000000  0.4610210000000  0.4806760000000 1.0
C      1  0.5659040000000  0.5860980000000  0.5553530000000 1.0
C      1  0.5380590000000  0.4239700000000  0.5798330000000 1.0
C      1  0.3996860000000  0.5241500000000  0.4411540000000 1.0
C      1  0.5562800000000  0.4239500000000  0.4550380000000 1.0
C      1  0.5771790000000  0.5718910000000  0.4995240000000 1.0
C      1  0.4979060000000  0.4431880000000  0.3960570000000 1.0
C      1  0.5263220000000  0.5588120000000  0.5647050000000 1.0
C      1  0.5918260000000  0.5483780000000  0.5706720000000 1.0
C      1  0.4574140000000  0.3973960000000  0.5299030000000 1.0
C      1  0.5157730000000  0.3962460000000  0.4706410000000 1.0
C      1  0.3901810000000  0.5020810000000  0.4557540000000 1.0
C      1  0.5540500000000  0.4665310000000  0.4861900000000 1.0
C      1  0.3904920000000  0.5190790000000  0.5325510000000 1.0
C      1  0.4464020000000  0.5378170000000  0.4238870000000 1.0
C      1  0.4629030000000  0.5090240000000  0.4911660000000 1.0
C      1  0.5099580000000  0.6012260000000  0.4525370000000 1.0
C      1  0.5451190000000  0.5660650000000  0.4671800000000 1.0
C      1  0.6064330000000  0.5257040000000  0.4676430000000 1.0
C      1  0.5191060000000  0.5073600000000  0.4693360000000 1.0
C      1  0.5382310000000  0.4069490000000  0.5554270000000 1.0
C      1  0.4171120000000  0.4452870000000  0.4585460000000 1.0
C      1  0.5502340000000  0.5593310000000  0.4955730000000 1.0
C      1  0.4857660000000  0.5217270000000  0.3791600000000 1.0
C      1  0.5098210000000  0.4040120000000  0.5472900000000 1.0
C      1  0.5943890000000  0.4755190000000  0.5030200000000 1.0
C      1  0.5923490000000  0.5691720000000  0.4651520000000 1.0
C      1  0.4845990000000  0.5092410000000  0.5121770000000 1.0
C      1  0.5686700000000  0.4420850000000  0.5492810000000 1.0
C      1  0.4615950000000  0.4611130000000  0.5007030000000 1.0
C      1  0.4260220000000  0.4318220000000  0.4118360000000 1.0
C      1  0.4068930000000  0.4908290000000  0.4754330000000 1.0
C      1  0.4756680000000  0.6029670000000  0.5044270000000 1.0
C      1  0.6054510000000  0.5091630000000  0.5376520000000 1.0
C      1  0.5628720000000  0.5474250000000  0.4282390000000 1.0
C      1  0.5545820000000  0.5244500000000  0.5888040000000 1.0
C      1  0.4973110000000  0.4669440000000  0.5390290000000 1.0
C      1  0.6047410000000  0.4785570000000  0.5316320000000 1.0
C      1  0.5424920000000  0.5321700000000  0.5602880000000 1.0
C      1  0.5892020000000  0.5242140000000  0.5168980000000 1.0
C      1  0.4714790000000  0.4523020000000  0.5499500000000 1.0
C      1  0.4249170000000  0.5584960000000  0.5282920000000 1.0
C      1  0.4841370000000  0.4745150000000  0.4634250000000 1.0
C      1  0.4643270000000  0.4836250000000  0.5913680000000 1.0
C      1  0.4770320000000  0.5678760000000  0.4012740000000 1.0
C      1  0.5128510000000  0.4418900000000  0.4979900000000 1.0
C      1  0.5981190000000  0.5185840000000  0.5665690000000 1.0
C      1  0.5070890000000  0.4828210000000  0.4806990000000 1.0
C      1  0.4983280000000  0.5565490000000  0.5058560000000 1.0
C      1  0.5264420000000  0.3935840000000  0.4988940000000 1.0
C      1  0.3935220000000  0.5492160000000  0.4871890000000 1.0
C      1  0.4456610000000  0.5569540000000  0.5743290000000 1.0
C      1  0.5211800000000  0.6100230000000  0.5295080000000 1.0
C      1  0.4007950000000  0.4413200000000  0.5318390000000 1.0
C      1  0.5316660000000  0.4084180000000  0.4502800000000 1.0
C      1  0.5521180000000  0.4768950000000  0.5163000000000 1.0
C      1  0.4733910000000  0.5214960000000  0.5648600000000 1.0
C      1  0.4433490000000  0.4739580000000  0.3941740000000 1.0
C      1  0.5724610000000  0.5949770000000  0.5178080000000 1.0
C      1  0.4478980000000  0.5427650000000  0.5210590000000 1.0
C      1  0.5354540000000  0.6089640000000  0.4429140000000 1.0
C      1  0.4580940000000  0.5643940000000  0.4219900000000 1.0
C      1  0.4964380000000  0.5543520000000  0.6018050000000 1.0
C      1  0.4221780000000  0.4227280000000  0.5398970000000 1.0
C      1  0.5474780000000  0.5961480000000  0.5328860000000 1.0
C      1  0.4645420000000  0.4285270000000  0.5294860000000 1.0
C      1  0.5464700000000  0.5327010000000  0.5095460000000 1.0
C      1  0.4225320000000  0.5502130000000  0.5571610000000 1.0
C      1  0.5044820000000  0.3931430000000  0.5198480000000 1.0
C      1  0.6024710000000  0.4481670000000  0.5071760000000 1.0
C      1  0.4484450000000  0.4446830000000  0.4023870000000 1.0
C      1  0.4851020000000  0.4143190000000  0.4331920000000 1.0
C      1  0.5354490000000  0.5359780000000  0.4323620000000 1.0
C      1  0.3996300000000  0.5782140000000  0.4830650000000 1.0
C      1  0.5123020000000  0.4636450000000  0.5977390000000 1.0
C      1  0.5224540000000  0.4331320000000  0.4082200000000 1.0
C      1  0.4635370000000  0.4135520000000  0.5703180000000 1.0
C      1  0.5815350000000  0.5619080000000  0.5459450000000 1.0
C      1  0.4288550000000  0.4746150000000  0.4637270000000 1.0
C      1  0.5654440000000  0.5089210000000  0.4986140000000 1.0
C      1  0.4012930000000  0.4308990000000  0.4802080000000 1.0
C      1  0.5015480000000  0.5982530000000  0.5757510000000 1.0
C      1  0.4172530000000  0.4058290000000  0.4858630000000 1.0
C      1  0.5230150000000  0.4610870000000  0.5528460000000 1.0
C      1  0.4747180000000  0.4351940000000  0.4124450000000 1.0
C      1  0.5107000000000  0.4349000000000  0.5861800000000 1.0
C      1  0.5322330000000  0.5329070000000  0.3792180000000 1.0
C      1  0.4607500000000  0.4551460000000  0.5834630000000 1.0
C      1  0.4914490000000  0.4830440000000  0.6061240000000 1.0
C      1  0.4389910000000  0.4413890000000  0.5036760000000 1.0
C      1  0.4945200000000  0.5353200000000  0.5234580000000 1.0
C      1  0.5142020000000  0.4121560000000  0.4270230000000 1.0
C      1  0.5537220000000  0.4124280000000  0.5058490000000 1.0
C      1  0.4046490000000  0.5386650000000  0.5128390000000 1.0
C      1  0.4768580000000  0.3903910000000  0.5093190000000 1.0
C      1  0.6073700000000  0.4810880000000  0.4769900000000 1.0
C      1  0.3983400000000  0.4667430000000  0.5469270000000 1.0
C      1  0.4921400000000  0.4178470000000  0.5677400000000 1.0
C      1  0.4736200000000  0.6023760000000  0.5338440000000 1.0
C      1  0.4437220000000  0.4192730000000  0.4826470000000 1.0
C      1  0.5798920000000  0.5327560000000  0.4117100000000 1.0
C      1  0.5651400000000  0.4338260000000  0.4823870000000 1.0
C      1  0.5296360000000  0.4292590000000  0.5181180000000 1.0
C      1  0.5018460000000  0.5181720000000  0.5710180000000 1.0
C      1  0.5377160000000  0.4542370000000  0.4214520000000 1.0
C      1  0.4256940000000  0.4887590000000  0.4153150000000 1.0
C      1  0.5369040000000  0.4835630000000  0.5667170000000 1.0
C      1  0.5245150000000  0.5083990000000  0.5531330000000 1.0
C      1  0.4907480000000  0.5791230000000  0.4912810000000 1.0
END
