TITL C-950531-5884-751 2.98035786254241e-07 125000 -290.959248397518 0 0 47 (C1) n - 1
REM
REM in /home/bkarasulu/work/CARBON/AIRSS/Generating-Clusters/EDIP-Nigel-Params/with-SteepDescent/Only-C1/SD-CG/HFTN-CG
REM
REM
REM
REM
REM
REM ./C.cell (11c1c37f851c82e70ff6c80c92926a4b)
REM
REM compiler GCC version 9.2.1 20190827 (Red Hat 9.2.1-1)
REM options -cpp -mtune=generic -march=x86-64 -g -O0 -fpre-include=/usr/include/finclude/math-vector-fortran.h
REM seed 1177151792 -2068938165 1703725689 706974366 -233071322 -1183783216 571624669 711804222 -1562330380 912653498 -267883487 -1560959432 1850482746 1991491725 791235891 -317272180 235616524 -42344732 -1734850720 -32180045 753154786 -1171188925 1226296321 -811837871 29204915 -1562648169 1975910507 603461674 1302948873 -2121114935 -807226022 -2037471159 -767884325
REM
CELL 1.54180   50.00000   50.00000   50.00000   90.00000   90.00000   90.00000
LATT -1
SFAC C  
C      1  0.5385850000000  0.5178290000000  0.5215060000000 1.0
C      1  0.5225940000000  0.4444340000000  0.4932820000000 1.0
C      1  0.5162920000000  0.4480230000000  0.5218310000000 1.0
C      1  0.4830760000000  0.4760840000000  0.5435860000000 1.0
C      1  0.4610110000000  0.5206450000000  0.5487010000000 1.0
C      1  0.4641640000000  0.4835200000000  0.4568490000000 1.0
C      1  0.5002280000000  0.4287040000000  0.4801750000000 1.0
C      1  0.4688870000000  0.4319690000000  0.5194450000000 1.0
C      1  0.4682380000000  0.5301840000000  0.4887800000000 1.0
C      1  0.4701810000000  0.4565680000000  0.4525700000000 1.0
C      1  0.4887060000000  0.5014460000000  0.4589910000000 1.0
C      1  0.4885080000000  0.5126860000000  0.5071240000000 1.0
C      1  0.5004550000000  0.4925370000000  0.4856100000000 1.0
C      1  0.5163670000000  0.4753900000000  0.4272990000000 1.0
C      1  0.5486610000000  0.4917030000000  0.4691190000000 1.0
C      1  0.5586210000000  0.5289930000000  0.5037140000000 1.0
C      1  0.4694960000000  0.4991020000000  0.5295050000000 1.0
C      1  0.5251960000000  0.5348470000000  0.4691840000000 1.0
C      1  0.4407170000000  0.5179390000000  0.4865550000000 1.0
C      1  0.5712020000000  0.4830580000000  0.5120440000000 1.0
C      1  0.4285080000000  0.5181590000000  0.5148540000000 1.0
C      1  0.4446110000000  0.4895680000000  0.4776510000000 1.0
C      1  0.5293100000000  0.4706730000000  0.5341880000000 1.0
C      1  0.5174890000000  0.4589740000000  0.4502090000000 1.0
C      1  0.5119700000000  0.5319310000000  0.5218940000000 1.0
C      1  0.5239560000000  0.4725820000000  0.4771580000000 1.0
C      1  0.5008870000000  0.5498770000000  0.4633980000000 1.0
C      1  0.4873380000000  0.4523160000000  0.5262710000000 1.0
C      1  0.5220960000000  0.5095240000000  0.5621660000000 1.0
C      1  0.4545040000000  0.5608180000000  0.5226610000000 1.0
C      1  0.5570500000000  0.4803670000000  0.5366480000000 1.0
C      1  0.4419810000000  0.5375560000000  0.5339120000000 1.0
C      1  0.4791690000000  0.5300020000000  0.4614210000000 1.0
C      1  0.5182430000000  0.5584420000000  0.5064900000000 1.0
C      1  0.5350570000000  0.5129810000000  0.4520760000000 1.0
C      1  0.5070240000000  0.5336100000000  0.5519650000000 1.0
C      1  0.4941350000000  0.4417100000000  0.4542310000000 1.0
C      1  0.5108550000000  0.4829710000000  0.5523770000000 1.0
C      1  0.4950600000000  0.5671400000000  0.4884320000000 1.0
C      1  0.5416220000000  0.5486880000000  0.4885430000000 1.0
C      1  0.5673130000000  0.5023000000000  0.4909750000000 1.0
C      1  0.4809520000000  0.5351760000000  0.5613330000000 1.0
C      1  0.4435260000000  0.4906890000000  0.5156740000000 1.0
C      1  0.5112310000000  0.5009370000000  0.4378700000000 1.0
C      1  0.5492350000000  0.5080870000000  0.5475290000000 1.0
C      1  0.4781660000000  0.4212210000000  0.4962440000000 1.0
C      1  0.4675250000000  0.5580370000000  0.4979620000000 1.0
END
