TITL C-950536-5891-168 -3.18895724767437e-06 125000 -865.446271087084 0 0 138 (C1) n - 1
REM
REM in /home/bkarasulu/work/CARBON/AIRSS/Generating-Clusters/EDIP-Nigel-Params/with-SteepDescent/Only-C1/SD-CG/HFTN-CG
REM
REM
REM
REM
REM
REM ./C.cell (11c1c37f851c82e70ff6c80c92926a4b)
REM
REM compiler GCC version 9.2.1 20190827 (Red Hat 9.2.1-1)
REM options -cpp -mtune=generic -march=x86-64 -g -O0 -fpre-include=/usr/include/finclude/math-vector-fortran.h
REM seed 1821127170 1979351546 -390482590 1070594634 778723511 1613965471 -1796391850 -1689830270 1875271272 -1492675405 -1142304857 -806072296 1370070381 -1114193117 899347552 -1026117920 1986758769 1949602254 741888893 1108633897 -1615336532 -436195255 1624758563 840067586 -494901722 1433195709 -1340613396 1732882497 518477509 1033887806 -1168846007 1315766042 -831838820
REM
CELL 1.54180   50.00000   50.00000   50.00000   90.00000   90.00000   90.00000
LATT -1
SFAC C  
C      1  0.4506530000000  0.5476310000000  0.4419530000000 1.0
C      1  0.4942220000000  0.4375740000000  0.5065660000000 1.0
C      1  0.4633700000000  0.5761260000000  0.5378100000000 1.0
C      1  0.5435980000000  0.5452860000000  0.4206170000000 1.0
C      1  0.4343850000000  0.5438590000000  0.5285290000000 1.0
C      1  0.4549000000000  0.4890050000000  0.4739800000000 1.0
C      1  0.5118230000000  0.5341750000000  0.4981670000000 1.0
C      1  0.4730590000000  0.4239260000000  0.4575330000000 1.0
C      1  0.5126550000000  0.5804760000000  0.5237230000000 1.0
C      1  0.5561980000000  0.4972770000000  0.4121420000000 1.0
C      1  0.4314320000000  0.4452420000000  0.5376150000000 1.0
C      1  0.4729100000000  0.5106330000000  0.4322800000000 1.0
C      1  0.5605550000000  0.4351800000000  0.4568160000000 1.0
C      1  0.4679950000000  0.4531090000000  0.4968350000000 1.0
C      1  0.5680550000000  0.5259610000000  0.5042250000000 1.0
C      1  0.6097520000000  0.5105830000000  0.4780850000000 1.0
C      1  0.4157010000000  0.5222020000000  0.5297820000000 1.0
C      1  0.4829460000000  0.4660170000000  0.4662350000000 1.0
C      1  0.4166310000000  0.5178850000000  0.5811840000000 1.0
C      1  0.4408660000000  0.5915600000000  0.4628810000000 1.0
C      1  0.4928540000000  0.5742720000000  0.5450200000000 1.0
C      1  0.5649350000000  0.5718710000000  0.4554450000000 1.0
C      1  0.5010020000000  0.5088150000000  0.4860140000000 1.0
C      1  0.4811570000000  0.4996680000000  0.5079570000000 1.0
C      1  0.4897380000000  0.4617290000000  0.5494300000000 1.0
C      1  0.4571920000000  0.5766180000000  0.5071340000000 1.0
C      1  0.4435970000000  0.5587780000000  0.5515620000000 1.0
C      1  0.4588850000000  0.4638220000000  0.4293510000000 1.0
C      1  0.5388130000000  0.4097500000000  0.4958180000000 1.0
C      1  0.4818650000000  0.5319520000000  0.5999820000000 1.0
C      1  0.5543220000000  0.4811110000000  0.4362650000000 1.0
C      1  0.5921540000000  0.4616180000000  0.5482160000000 1.0
C      1  0.5034460000000  0.5529200000000  0.5633510000000 1.0
C      1  0.4740480000000  0.4570010000000  0.5949320000000 1.0
C      1  0.5917460000000  0.4647960000000  0.4660750000000 1.0
C      1  0.3918300000000  0.4902070000000  0.4686640000000 1.0
C      1  0.5507610000000  0.5131260000000  0.5255490000000 1.0
C      1  0.5827100000000  0.5523980000000  0.5406100000000 1.0
C      1  0.5903220000000  0.5274600000000  0.5521880000000 1.0
C      1  0.5835670000000  0.4831060000000  0.5100000000000 1.0
C      1  0.4934660000000  0.5498770000000  0.4098460000000 1.0
C      1  0.4484410000000  0.4231610000000  0.5378250000000 1.0
C      1  0.5745520000000  0.5343170000000  0.4596310000000 1.0
C      1  0.5279750000000  0.4889260000000  0.4498110000000 1.0
C      1  0.4672570000000  0.5522280000000  0.4197460000000 1.0
C      1  0.4701840000000  0.5922770000000  0.4634860000000 1.0
C      1  0.4185480000000  0.5275960000000  0.4796860000000 1.0
C      1  0.5056040000000  0.5371940000000  0.5276980000000 1.0
C      1  0.4907570000000  0.4891190000000  0.5630200000000 1.0
C      1  0.5144970000000  0.4347450000000  0.5742870000000 1.0
C      1  0.5926990000000  0.5113430000000  0.4559030000000 1.0
C      1  0.5462060000000  0.5468240000000  0.5714440000000 1.0
C      1  0.3923710000000  0.4912260000000  0.4980050000000 1.0
C      1  0.5195670000000  0.4243020000000  0.4659610000000 1.0
C      1  0.5272840000000  0.4264130000000  0.5447430000000 1.0
C      1  0.5548640000000  0.5213090000000  0.5833450000000 1.0
C      1  0.4468920000000  0.4631920000000  0.5922940000000 1.0
C      1  0.4404850000000  0.4948700000000  0.5534980000000 1.0
C      1  0.4367360000000  0.5382730000000  0.5830080000000 1.0
C      1  0.5225430000000  0.5891820000000  0.4730760000000 1.0
C      1  0.4774300000000  0.5908170000000  0.4910390000000 1.0
C      1  0.5305370000000  0.5436010000000  0.4766190000000 1.0
C      1  0.5771060000000  0.5078430000000  0.5680810000000 1.0
C      1  0.5277120000000  0.4046650000000  0.5224980000000 1.0
C      1  0.4287070000000  0.5672670000000  0.4485780000000 1.0
C      1  0.5930730000000  0.4606470000000  0.4939730000000 1.0
C      1  0.4028660000000  0.5179930000000  0.5040470000000 1.0
C      1  0.4664100000000  0.4756390000000  0.5145290000000 1.0
C      1  0.5776510000000  0.4393040000000  0.5046890000000 1.0
C      1  0.5296750000000  0.4682430000000  0.4910970000000 1.0
C      1  0.4889550000000  0.5221310000000  0.4580950000000 1.0
C      1  0.4841550000000  0.4616190000000  0.4129890000000 1.0
C      1  0.5702750000000  0.4795820000000  0.5567140000000 1.0
C      1  0.5130400000000  0.5396110000000  0.4523500000000 1.0
C      1  0.5257100000000  0.5101630000000  0.5867600000000 1.0
C      1  0.4522590000000  0.4412250000000  0.4469030000000 1.0
C      1  0.5106640000000  0.5870630000000  0.4455240000000 1.0
C      1  0.5553270000000  0.4313940000000  0.5473020000000 1.0
C      1  0.4060140000000  0.5133600000000  0.5549610000000 1.0
C      1  0.5403730000000  0.5723560000000  0.5270300000000 1.0
C      1  0.5113050000000  0.4497020000000  0.5307590000000 1.0
C      1  0.5523410000000  0.5234660000000  0.4778600000000 1.0
C      1  0.5297620000000  0.4582230000000  0.5870040000000 1.0
C      1  0.5091190000000  0.4481550000000  0.4814120000000 1.0
C      1  0.5559220000000  0.5604100000000  0.5486750000000 1.0
C      1  0.5319550000000  0.4437570000000  0.4178240000000 1.0
C      1  0.5154740000000  0.5582270000000  0.4297060000000 1.0
C      1  0.4428000000000  0.4738530000000  0.5320620000000 1.0
C      1  0.4257610000000  0.5003730000000  0.4375020000000 1.0
C      1  0.4147050000000  0.5578340000000  0.4745540000000 1.0
C      1  0.5066960000000  0.5356870000000  0.5878890000000 1.0
C      1  0.4305890000000  0.5810190000000  0.4905940000000 1.0
C      1  0.5288670000000  0.4949570000000  0.4780900000000 1.0
C      1  0.4489590000000  0.5221820000000  0.4845560000000 1.0
C      1  0.4578510000000  0.4037910000000  0.5201210000000 1.0
C      1  0.4640230000000  0.5299680000000  0.5780750000000 1.0
C      1  0.5320180000000  0.4690900000000  0.5194900000000 1.0
C      1  0.4854220000000  0.4419450000000  0.5714800000000 1.0
C      1  0.5680090000000  0.5515720000000  0.4350660000000 1.0
C      1  0.4264990000000  0.4748070000000  0.4744000000000 1.0
C      1  0.5449550000000  0.5706820000000  0.4772260000000 1.0
C      1  0.5047140000000  0.5877990000000  0.4965870000000 1.0
C      1  0.4860640000000  0.4072870000000  0.5079830000000 1.0
C      1  0.5778700000000  0.4408050000000  0.5343670000000 1.0
C      1  0.4995140000000  0.4815910000000  0.4429600000000 1.0
C      1  0.5538640000000  0.4509890000000  0.4333410000000 1.0
C      1  0.4987620000000  0.5239860000000  0.3954430000000 1.0
C      1  0.4877040000000  0.4830330000000  0.5929540000000 1.0
C      1  0.4866590000000  0.6016690000000  0.4428090000000 1.0
C      1  0.5296740000000  0.5249420000000  0.5439810000000 1.0
C      1  0.4778030000000  0.5216750000000  0.5271510000000 1.0
C      1  0.5785420000000  0.5538970000000  0.5109110000000 1.0
C      1  0.5577540000000  0.5740280000000  0.5042040000000 1.0
C      1  0.4447360000000  0.4061550000000  0.4934760000000 1.0
C      1  0.4679950000000  0.5095890000000  0.5554870000000 1.0
C      1  0.5047050000000  0.4424650000000  0.4234710000000 1.0
C      1  0.4669860000000  0.4020640000000  0.4752270000000 1.0
C      1  0.4167570000000  0.4449710000000  0.5120980000000 1.0
C      1  0.4392860000000  0.4358010000000  0.4929510000000 1.0
C      1  0.4164480000000  0.4744400000000  0.5034830000000 1.0
C      1  0.5788130000000  0.4860240000000  0.4530200000000 1.0
C      1  0.4571080000000  0.5376870000000  0.5107700000000 1.0
C      1  0.5596910000000  0.4268010000000  0.4848100000000 1.0
C      1  0.4081370000000  0.5104970000000  0.4566380000000 1.0
C      1  0.5047500000000  0.3893550000000  0.5208660000000 1.0
C      1  0.4647580000000  0.5380590000000  0.4656950000000 1.0
C      1  0.5921720000000  0.5087750000000  0.5003570000000 1.0
C      1  0.5576030000000  0.4844930000000  0.5285520000000 1.0
C      1  0.5461470000000  0.5219030000000  0.4024700000000 1.0
C      1  0.5244770000000  0.5209230000000  0.3852230000000 1.0
C      1  0.4991470000000  0.4238180000000  0.4452510000000 1.0
C      1  0.5165150000000  0.4823500000000  0.6001190000000 1.0
C      1  0.4524460000000  0.4908370000000  0.4418050000000 1.0
C      1  0.4884230000000  0.5001710000000  0.4095220000000 1.0
C      1  0.5542230000000  0.4649400000000  0.5754010000000 1.0
C      1  0.5184560000000  0.5015380000000  0.5595520000000 1.0
C      1  0.4305900000000  0.4459870000000  0.4660360000000 1.0
C      1  0.4321570000000  0.4833370000000  0.5800750000000 1.0
END
