TITL C-950535-5962-187 -4.42095659568373e-05 125000 -145.685745804382 0 0 26 (C1) n - 1
REM
REM in /home/bkarasulu/work/CARBON/AIRSS/Generating-Clusters/EDIP-Nigel-Params/with-SteepDescent/Only-C1/SD-CG/HFTN-CG
REM
REM
REM
REM
REM
REM ./C.cell (11c1c37f851c82e70ff6c80c92926a4b)
REM
REM compiler GCC version 9.2.1 20190827 (Red Hat 9.2.1-1)
REM options -cpp -mtune=generic -march=x86-64 -g -O0 -fpre-include=/usr/include/finclude/math-vector-fortran.h
REM seed -943229313 -1781087681 -87233297 1062347063 -561826843 -1809684110 -851233935 -1058329540 950314360 -1207288233 -1627983844 -1927050203 -411816841 -1147075384 2086984346 2062073374 1908364383 -1766000428 993009957 1143564705 -1170777729 -833192265 725443688 -115710257 -1623835789 1783586581 2071069541 896857182 675344418 -1247581035 1937080571 -609749553 -1234120251
REM
CELL 1.54180   50.00000   50.00000   50.00000   90.00000   90.00000   90.00000
LATT -1
SFAC C  
C      1  0.4749230000000  0.4778340000000  0.5256460000000 1.0
C      1  0.5299250000000  0.4532240000000  0.4835000000000 1.0
C      1  0.5239200000000  0.5527640000000  0.5231100000000 1.0
C      1  0.4815240000000  0.5247860000000  0.4618030000000 1.0
C      1  0.4524250000000  0.5043030000000  0.4915560000000 1.0
C      1  0.4673260000000  0.5459760000000  0.4760700000000 1.0
C      1  0.4872290000000  0.5204950000000  0.5403610000000 1.0
C      1  0.4494550000000  0.5331850000000  0.4947360000000 1.0
C      1  0.5342050000000  0.4501900000000  0.5326990000000 1.0
C      1  0.5153750000000  0.4148770000000  0.5074980000000 1.0
C      1  0.4597520000000  0.5677750000000  0.4629950000000 1.0
C      1  0.5242340000000  0.4397740000000  0.5081560000000 1.0
C      1  0.4605440000000  0.5240750000000  0.5301880000000 1.0
C      1  0.5111860000000  0.4715930000000  0.4472470000000 1.0
C      1  0.5392470000000  0.4799340000000  0.4834250000000 1.0
C      1  0.4766580000000  0.5003750000000  0.4762710000000 1.0
C      1  0.5242530000000  0.4914720000000  0.4622790000000 1.0
C      1  0.4964110000000  0.4940250000000  0.5336250000000 1.0
C      1  0.4542980000000  0.4969150000000  0.5200740000000 1.0
C      1  0.5235260000000  0.5322390000000  0.4908790000000 1.0
C      1  0.5434740000000  0.4760750000000  0.5364190000000 1.0
C      1  0.5049720000000  0.5416090000000  0.5395290000000 1.0
C      1  0.5110110000000  0.5175980000000  0.4684520000000 1.0
C      1  0.5198250000000  0.5590540000000  0.4964600000000 1.0
C      1  0.5157040000000  0.4477230000000  0.4599560000000 1.0
C      1  0.5185990000000  0.4821320000000  0.5470660000000 1.0
END
