TITL C-951340-9809-458 -2.19706533513522e-06 125000 -1171.02111426929 0 0 187 (C1) n - 1
REM
REM in /home/bkarasulu/work/CARBON/AIRSS/Generating-Clusters/EDIP-Nigel-Params/with-SteepDescent/Only-C1/SD-CG/HFTN-CG
REM
REM
REM
REM
REM
REM ./C.cell (11c1c37f851c82e70ff6c80c92926a4b)
REM
REM compiler GCC version 9.2.1 20190827 (Red Hat 9.2.1-1)
REM options -cpp -mtune=generic -march=x86-64 -g -O0 -fpre-include=/usr/include/finclude/math-vector-fortran.h
REM seed 476784588 921055376 31967674 807564191 -1579277863 -228445525 -1125401305 -431401801 51177181 1911655436 2059133484 421475791 -2036716596 -452811603 831462396 -137817717 667479243 934928895 -1866781435 -718184365 872040470 1672558319 1728998138 98721545 215207995 982406396 2019612688 1871861149 760357858 -834853239 -1740344436 1508723554 479375631
REM
CELL 1.54180   50.00000   50.00000   50.00000   90.00000   90.00000   90.00000
LATT -1
SFAC C  
C      1  0.5198360000000  0.4059630000000  0.5602020000000 1.0
C      1  0.5345910000000  0.6091560000000  0.4485580000000 1.0
C      1  0.5451820000000  0.6081560000000  0.5265300000000 1.0
C      1  0.5529580000000  0.4914920000000  0.5929790000000 1.0
C      1  0.5557040000000  0.5610060000000  0.5162790000000 1.0
C      1  0.5892170000000  0.4508290000000  0.4590700000000 1.0
C      1  0.5281770000000  0.6321520000000  0.5170090000000 1.0
C      1  0.4179990000000  0.4621350000000  0.5605470000000 1.0
C      1  0.5094180000000  0.4310030000000  0.4012570000000 1.0
C      1  0.5184920000000  0.3907390000000  0.4812990000000 1.0
C      1  0.5235960000000  0.5570080000000  0.4643330000000 1.0
C      1  0.4515740000000  0.4875150000000  0.5404070000000 1.0
C      1  0.5148750000000  0.5323380000000  0.5135940000000 1.0
C      1  0.4459800000000  0.5403560000000  0.4653410000000 1.0
C      1  0.4572150000000  0.5326510000000  0.6055150000000 1.0
C      1  0.4928480000000  0.4640760000000  0.6116940000000 1.0
C      1  0.4011720000000  0.4970530000000  0.5309660000000 1.0
C      1  0.5117450000000  0.5457190000000  0.3993890000000 1.0
C      1  0.5840530000000  0.4374460000000  0.5053820000000 1.0
C      1  0.4667790000000  0.5391240000000  0.4907430000000 1.0
C      1  0.4707750000000  0.4559950000000  0.4077610000000 1.0
C      1  0.5109050000000  0.5574440000000  0.5791840000000 1.0
C      1  0.4565980000000  0.4451480000000  0.4853560000000 1.0
C      1  0.4549100000000  0.4909180000000  0.5747140000000 1.0
C      1  0.5058580000000  0.4020010000000  0.5309840000000 1.0
C      1  0.5661440000000  0.5712280000000  0.4430540000000 1.0
C      1  0.4923480000000  0.5813280000000  0.4396390000000 1.0
C      1  0.4118050000000  0.4770770000000  0.5839610000000 1.0
C      1  0.5440240000000  0.5183910000000  0.5788060000000 1.0
C      1  0.5822960000000  0.5499670000000  0.4561410000000 1.0
C      1  0.3953760000000  0.5463410000000  0.4904690000000 1.0
C      1  0.4039920000000  0.5442620000000  0.4427120000000 1.0
C      1  0.5007680000000  0.5566070000000  0.5124120000000 1.0
C      1  0.4732580000000  0.4502620000000  0.5972010000000 1.0
C      1  0.5442150000000  0.4845810000000  0.4689080000000 1.0
C      1  0.5917200000000  0.4746700000000  0.4421300000000 1.0
C      1  0.4384840000000  0.5113460000000  0.6034200000000 1.0
C      1  0.5507810000000  0.4104620000000  0.5680300000000 1.0
C      1  0.4825060000000  0.5641670000000  0.5736620000000 1.0
C      1  0.4551670000000  0.4779600000000  0.4010680000000 1.0
C      1  0.4730080000000  0.5825880000000  0.4866200000000 1.0
C      1  0.5481800000000  0.5136340000000  0.4580500000000 1.0
C      1  0.5255480000000  0.3931670000000  0.5100870000000 1.0
C      1  0.5509030000000  0.4058370000000  0.5168250000000 1.0
C      1  0.5965370000000  0.5145350000000  0.5064000000000 1.0
C      1  0.4482180000000  0.4056720000000  0.4567190000000 1.0
C      1  0.5381100000000  0.5642590000000  0.4351210000000 1.0
C      1  0.4287760000000  0.4073550000000  0.4787650000000 1.0
C      1  0.5958810000000  0.5001280000000  0.4575600000000 1.0
C      1  0.3944110000000  0.5174660000000  0.4922850000000 1.0
C      1  0.4577330000000  0.4217540000000  0.5576740000000 1.0
C      1  0.5771960000000  0.4257370000000  0.4491940000000 1.0
C      1  0.4592280000000  0.5498520000000  0.5829320000000 1.0
C      1  0.5479930000000  0.4808230000000  0.5129740000000 1.0
C      1  0.5812620000000  0.4391130000000  0.5343690000000 1.0
C      1  0.4696410000000  0.4212390000000  0.4962760000000 1.0
C      1  0.5767560000000  0.5211260000000  0.4473640000000 1.0
C      1  0.5819530000000  0.4616210000000  0.5520720000000 1.0
C      1  0.4687390000000  0.5852800000000  0.4573570000000 1.0
C      1  0.5254880000000  0.5978050000000  0.5488160000000 1.0
C      1  0.5090150000000  0.6191750000000  0.5355640000000 1.0
C      1  0.4557510000000  0.5055600000000  0.4019120000000 1.0
C      1  0.5008520000000  0.5051740000000  0.3850380000000 1.0
C      1  0.4408330000000  0.4928870000000  0.4898310000000 1.0
C      1  0.4746720000000  0.5183210000000  0.3846450000000 1.0
C      1  0.5590880000000  0.4262250000000  0.4256100000000 1.0
C      1  0.4546070000000  0.4592710000000  0.5274960000000 1.0
C      1  0.4154220000000  0.5050330000000  0.5877690000000 1.0
C      1  0.5234370000000  0.5843390000000  0.4838470000000 1.0
C      1  0.4923770000000  0.4283550000000  0.5164880000000 1.0
C      1  0.5586700000000  0.5663450000000  0.5665290000000 1.0
C      1  0.4988090000000  0.5128950000000  0.6015230000000 1.0
C      1  0.5303380000000  0.5724710000000  0.5631250000000 1.0
C      1  0.5117130000000  0.4778960000000  0.3885680000000 1.0
C      1  0.3966810000000  0.5620530000000  0.4643940000000 1.0
C      1  0.4446810000000  0.4319920000000  0.4408780000000 1.0
C      1  0.5400860000000  0.4697680000000  0.3896640000000 1.0
C      1  0.4089980000000  0.4927070000000  0.4880280000000 1.0
C      1  0.4350910000000  0.5065290000000  0.5210410000000 1.0
C      1  0.5112470000000  0.4453110000000  0.5009030000000 1.0
C      1  0.5326760000000  0.4515690000000  0.5964440000000 1.0
C      1  0.4912480000000  0.5503320000000  0.4626250000000 1.0
C      1  0.5507310000000  0.4555440000000  0.4217350000000 1.0
C      1  0.5360600000000  0.4075200000000  0.4335030000000 1.0
C      1  0.5564150000000  0.4233910000000  0.5408850000000 1.0
C      1  0.5989880000000  0.4516360000000  0.4860480000000 1.0
C      1  0.4790240000000  0.4957810000000  0.5302990000000 1.0
C      1  0.4191020000000  0.5246600000000  0.4594330000000 1.0
C      1  0.5737840000000  0.4747050000000  0.4179370000000 1.0
C      1  0.4344800000000  0.5492060000000  0.4194150000000 1.0
C      1  0.4454800000000  0.5584070000000  0.5361060000000 1.0
C      1  0.3866490000000  0.5130210000000  0.5489340000000 1.0
C      1  0.5387040000000  0.3987320000000  0.4615520000000 1.0
C      1  0.5752980000000  0.5192460000000  0.4186630000000 1.0
C      1  0.5671000000000  0.5379080000000  0.5750040000000 1.0
C      1  0.4038700000000  0.4504100000000  0.5161270000000 1.0
C      1  0.4774640000000  0.4071380000000  0.4672870000000 1.0
C      1  0.4233000000000  0.5842730000000  0.4970030000000 1.0
C      1  0.4793800000000  0.5382160000000  0.4350280000000 1.0
C      1  0.4846600000000  0.5021840000000  0.5748720000000 1.0
C      1  0.5117520000000  0.5244700000000  0.5411420000000 1.0
C      1  0.5016730000000  0.5249340000000  0.4185860000000 1.0
C      1  0.5057350000000  0.5126030000000  0.4926690000000 1.0
C      1  0.5337900000000  0.4669980000000  0.5697220000000 1.0
C      1  0.6001130000000  0.5574800000000  0.4779320000000 1.0
C      1  0.4716920000000  0.4992170000000  0.4595580000000 1.0
C      1  0.5811720000000  0.4812250000000  0.5919450000000 1.0
C      1  0.4115690000000  0.5023420000000  0.4178960000000 1.0
C      1  0.4564920000000  0.5324820000000  0.5222900000000 1.0
C      1  0.5832720000000  0.5106650000000  0.5333180000000 1.0
C      1  0.5629020000000  0.5978160000000  0.4559250000000 1.0
C      1  0.5184270000000  0.6117490000000  0.4724210000000 1.0
C      1  0.5640310000000  0.4093700000000  0.4693900000000 1.0
C      1  0.4059400000000  0.5224700000000  0.5665860000000 1.0
C      1  0.4453050000000  0.4086540000000  0.5126280000000 1.0
C      1  0.4429990000000  0.5688060000000  0.4519180000000 1.0
C      1  0.5129510000000  0.4813610000000  0.4372970000000 1.0
C      1  0.4990750000000  0.5803770000000  0.4993320000000 1.0
C      1  0.4337470000000  0.4775400000000  0.4554060000000 1.0
C      1  0.5337520000000  0.4451830000000  0.5464570000000 1.0
C      1  0.5947150000000  0.4878560000000  0.5500270000000 1.0
C      1  0.4354550000000  0.5613780000000  0.5732620000000 1.0
C      1  0.4562610000000  0.5190140000000  0.4434450000000 1.0
C      1  0.4318260000000  0.5200850000000  0.4090610000000 1.0
C      1  0.4522080000000  0.4658050000000  0.5885480000000 1.0
C      1  0.4303600000000  0.4354730000000  0.5556860000000 1.0
C      1  0.5959670000000  0.5834120000000  0.4871620000000 1.0
C      1  0.4745680000000  0.5474410000000  0.3892250000000 1.0
C      1  0.4717870000000  0.4468890000000  0.4369080000000 1.0
C      1  0.5355820000000  0.4767300000000  0.6128250000000 1.0
C      1  0.5444600000000  0.5343450000000  0.5073570000000 1.0
C      1  0.5745610000000  0.5628780000000  0.5393690000000 1.0
C      1  0.4928640000000  0.3830540000000  0.4725390000000 1.0
C      1  0.4875300000000  0.4735010000000  0.4531190000000 1.0
C      1  0.4280750000000  0.4372670000000  0.4816050000000 1.0
C      1  0.4100380000000  0.5617530000000  0.5104980000000 1.0
C      1  0.5064730000000  0.4810080000000  0.5642050000000 1.0
C      1  0.5570690000000  0.4342770000000  0.5896610000000 1.0
C      1  0.4794430000000  0.4292800000000  0.5779780000000 1.0
C      1  0.4804110000000  0.4469680000000  0.5380360000000 1.0
C      1  0.5677440000000  0.4160470000000  0.4965010000000 1.0
C      1  0.4956680000000  0.4538480000000  0.3934150000000 1.0
C      1  0.5992810000000  0.4966670000000  0.5764990000000 1.0
C      1  0.5383660000000  0.5477840000000  0.4095060000000 1.0
C      1  0.5530360000000  0.5072240000000  0.5273210000000 1.0
C      1  0.5204730000000  0.5885230000000  0.4317310000000 1.0
C      1  0.6075040000000  0.5380860000000  0.4964990000000 1.0
C      1  0.5333100000000  0.5073120000000  0.5520840000000 1.0
C      1  0.4792860000000  0.5135510000000  0.4838290000000 1.0
C      1  0.4249300000000  0.4497750000000  0.4546090000000 1.0
C      1  0.5900860000000  0.4949760000000  0.4861530000000 1.0
C      1  0.5798470000000  0.4537910000000  0.5802210000000 1.0
C      1  0.4836480000000  0.5195410000000  0.5470820000000 1.0
C      1  0.5856410000000  0.5355050000000  0.5500280000000 1.0
C      1  0.4596770000000  0.3987520000000  0.5377600000000 1.0
C      1  0.5488430000000  0.5873990000000  0.5028800000000 1.0
C      1  0.5093530000000  0.4158370000000  0.4246190000000 1.0
C      1  0.4513140000000  0.5892080000000  0.5052320000000 1.0
C      1  0.4906880000000  0.4246660000000  0.4453590000000 1.0
C      1  0.5248140000000  0.5105380000000  0.4340430000000 1.0
C      1  0.4977790000000  0.4729790000000  0.5372330000000 1.0
C      1  0.4962910000000  0.4655930000000  0.4835450000000 1.0
C      1  0.4761350000000  0.5776800000000  0.5485050000000 1.0
C      1  0.4192920000000  0.5812190000000  0.4672350000000 1.0
C      1  0.4612900000000  0.4696800000000  0.4992710000000 1.0
C      1  0.4576310000000  0.5940810000000  0.5334080000000 1.0
C      1  0.4834210000000  0.3844830000000  0.5342630000000 1.0
C      1  0.4269860000000  0.4323760000000  0.5256660000000 1.0
C      1  0.5083020000000  0.4872080000000  0.6161090000000 1.0
C      1  0.5064040000000  0.4292440000000  0.5689040000000 1.0
C      1  0.5404360000000  0.5351050000000  0.4769340000000 1.0
C      1  0.5185260000000  0.4870480000000  0.4875240000000 1.0
C      1  0.4644170000000  0.5566580000000  0.4156200000000 1.0
C      1  0.5202660000000  0.5319970000000  0.5922380000000 1.0
C      1  0.5473060000000  0.5201900000000  0.4139150000000 1.0
C      1  0.3985410000000  0.4669350000000  0.4939550000000 1.0
C      1  0.5676820000000  0.4746130000000  0.4888580000000 1.0
C      1  0.5353560000000  0.4655970000000  0.4459270000000 1.0
C      1  0.5239800000000  0.6328280000000  0.4896890000000 1.0
C      1  0.5714830000000  0.5970780000000  0.4847870000000 1.0
C      1  0.4807320000000  0.5269740000000  0.6187290000000 1.0
C      1  0.5242250000000  0.4611930000000  0.5228140000000 1.0
C      1  0.4006770000000  0.4687210000000  0.5384790000000 1.0
C      1  0.5642380000000  0.4853900000000  0.3923750000000 1.0
C      1  0.4117810000000  0.5502390000000  0.5627110000000 1.0
C      1  0.4042550000000  0.5617570000000  0.5380950000000 1.0
C      1  0.4173330000000  0.4986970000000  0.4449830000000 1.0
END
