TITL C-951345-2650-122 -4.91798423968665 125000 -105.009027074108 0 0 20 (C1) n - 1
REM
REM in /home/bkarasulu/work/CARBON/AIRSS/Generating-Clusters/EDIP-Nigel-Params/with-SteepDescent/Only-C1/SD-CG/HFTN-CG
REM
REM
REM
REM
REM
REM ./C.cell (11c1c37f851c82e70ff6c80c92926a4b)
REM
REM compiler GCC version 9.2.1 20190827 (Red Hat 9.2.1-1)
REM options -cpp -mtune=generic -march=x86-64 -g -O0 -fpre-include=/usr/include/finclude/math-vector-fortran.h
REM seed -1201861425 1363064536 1354269428 -1177822748 659687332 1970367557 1397603712 -340615328 2086788844 -179084799 1997624510 1882794535 1483687512 1529725103 -1659246588 1335408745 1965832040 -1523969648 -346779639 -1105593012 -467063222 -1588948779 -420922113 -1110035585 397742784 408889287 -951403335 1998708028 -585755242 -545292275 953313662 535345514 1976340753
REM
CELL 1.54180   50.00000   50.00000   50.00000   90.00000   90.00000   90.00000
LATT -1
SFAC C  
C      1  0.5427000000000  0.4896630000000  0.5223970000000 1.0
C      1  0.4969460000000  0.4771430000000  0.5227010000000 1.0
C      1  0.4374410000000  0.5372740000000  0.5039900000000 1.0
C      1  0.5651100000000  0.5181290000000  0.4904850000000 1.0
C      1  0.5215200000000  0.4775730000000  0.5348470000000 1.0
C      1  0.4545480000000  0.4979580000000  0.5157880000000 1.0
C      1  0.4426190000000  0.5551840000000  0.4822260000000 1.0
C      1  0.5248760000000  0.4659450000000  0.5593920000000 1.0
C      1  0.4597470000000  0.5265240000000  0.5200010000000 1.0
C      1  0.4330520000000  0.5085680000000  0.4988730000000 1.0
C      1  0.5614590000000  0.4828790000000  0.4577330000000 1.0
C      1  0.4409260000000  0.5833720000000  0.4849570000000 1.0
C      1  0.4739910000000  0.4785670000000  0.5076990000000 1.0
C      1  0.5759450000000  0.4971060000000  0.4759590000000 1.0
C      1  0.4647800000000  0.4560180000000  0.4974030000000 1.0
C      1  0.5503890000000  0.4677030000000  0.4391780000000 1.0
C      1  0.5383050000000  0.4536160000000  0.4215880000000 1.0
C      1  0.5279720000000  0.4550470000000  0.5823530000000 1.0
C      1  0.4222350000000  0.5708000000000  0.4701640000000 1.0
C      1  0.5654390000000  0.5009310000000  0.5122670000000 1.0
END
