TITL C-951348-1603-116 -1.52352483191786e-06 125000 -968.639971461801 0 0 155 (C1) n - 1
REM
REM in /home/bkarasulu/work/CARBON/AIRSS/Generating-Clusters/EDIP-Nigel-Params/with-SteepDescent/Only-C1/SD-CG/HFTN-CG
REM
REM
REM
REM
REM
REM ./C.cell (11c1c37f851c82e70ff6c80c92926a4b)
REM
REM compiler GCC version 9.2.1 20190827 (Red Hat 9.2.1-1)
REM options -cpp -mtune=generic -march=x86-64 -g -O0 -fpre-include=/usr/include/finclude/math-vector-fortran.h
REM seed 1089903750 -656296062 -773625439 -371864054 1182061732 330718328 -1807152717 -972588 189282710 -813230558 -709558440 -1397602996 -1678904842 -787906484 1570780520 -680633141 -1534695002 1589427615 1790694152 -1640651949 591920214 90368308 -887051097 585710446 1058653815 -485332787 2080262053 -851091805 -887804387 -2130570102 -224289207 1760755976 351121713
REM
CELL 1.54180   50.00000   50.00000   50.00000   90.00000   90.00000   90.00000
LATT -1
SFAC C  
C      1  0.5262060000000  0.4103880000000  0.4422250000000 1.0
C      1  0.4090770000000  0.5398200000000  0.4581750000000 1.0
C      1  0.5755690000000  0.5530790000000  0.4966800000000 1.0
C      1  0.5006310000000  0.5220130000000  0.5235420000000 1.0
C      1  0.4225840000000  0.5017820000000  0.5424850000000 1.0
C      1  0.4069330000000  0.5033350000000  0.4835070000000 1.0
C      1  0.4956780000000  0.4744340000000  0.5024740000000 1.0
C      1  0.4762150000000  0.3914930000000  0.4556970000000 1.0
C      1  0.4763710000000  0.5387810000000  0.4639730000000 1.0
C      1  0.4496250000000  0.4386400000000  0.5314840000000 1.0
C      1  0.5684000000000  0.4528010000000  0.5424430000000 1.0
C      1  0.4042460000000  0.5188860000000  0.4394040000000 1.0
C      1  0.5439500000000  0.5148130000000  0.4813520000000 1.0
C      1  0.4830570000000  0.4777280000000  0.5889440000000 1.0
C      1  0.4167060000000  0.5440550000000  0.5535950000000 1.0
C      1  0.4579940000000  0.4572030000000  0.4234240000000 1.0
C      1  0.5923500000000  0.4670400000000  0.4746990000000 1.0
C      1  0.4123320000000  0.4103840000000  0.5163560000000 1.0
C      1  0.5402990000000  0.4386890000000  0.4808570000000 1.0
C      1  0.5375500000000  0.4734340000000  0.5709570000000 1.0
C      1  0.5860450000000  0.5683300000000  0.5205980000000 1.0
C      1  0.4483360000000  0.5764360000000  0.5336380000000 1.0
C      1  0.5395420000000  0.5360880000000  0.4029880000000 1.0
C      1  0.5204400000000  0.5555370000000  0.4443010000000 1.0
C      1  0.4747940000000  0.4379190000000  0.4867480000000 1.0
C      1  0.5886280000000  0.4439380000000  0.4599670000000 1.0
C      1  0.4393300000000  0.4169110000000  0.5133950000000 1.0
C      1  0.4411910000000  0.5026300000000  0.4205900000000 1.0
C      1  0.5028960000000  0.5289800000000  0.4492500000000 1.0
C      1  0.5445330000000  0.5429210000000  0.4951590000000 1.0
C      1  0.4938730000000  0.4301420000000  0.5078920000000 1.0
C      1  0.4157680000000  0.4711560000000  0.4480590000000 1.0
C      1  0.5962990000000  0.4864750000000  0.5204990000000 1.0
C      1  0.4795790000000  0.4174040000000  0.4430340000000 1.0
C      1  0.5957290000000  0.4933610000000  0.4627350000000 1.0
C      1  0.4653690000000  0.4845740000000  0.4668030000000 1.0
C      1  0.4169260000000  0.4776080000000  0.5251690000000 1.0
C      1  0.4531080000000  0.4161880000000  0.4861170000000 1.0
C      1  0.6136450000000  0.5299510000000  0.4452980000000 1.0
C      1  0.4950810000000  0.5356410000000  0.5980220000000 1.0
C      1  0.4461950000000  0.4664630000000  0.5171800000000 1.0
C      1  0.4860050000000  0.4086490000000  0.5530770000000 1.0
C      1  0.4441810000000  0.4438370000000  0.5688040000000 1.0
C      1  0.5293140000000  0.5709570000000  0.5661750000000 1.0
C      1  0.5789000000000  0.4702600000000  0.5006250000000 1.0
C      1  0.5253080000000  0.5219900000000  0.5690920000000 1.0
C      1  0.5684090000000  0.5195100000000  0.5787640000000 1.0
C      1  0.5740470000000  0.5666640000000  0.5468790000000 1.0
C      1  0.4022680000000  0.5208260000000  0.5464250000000 1.0
C      1  0.5362730000000  0.5439500000000  0.5529820000000 1.0
C      1  0.4831600000000  0.5965670000000  0.5623000000000 1.0
C      1  0.4226980000000  0.5619990000000  0.5305530000000 1.0
C      1  0.5026300000000  0.4026770000000  0.4965560000000 1.0
C      1  0.5075620000000  0.5720780000000  0.4846300000000 1.0
C      1  0.4921260000000  0.5994000000000  0.4544690000000 1.0
C      1  0.5115920000000  0.4645550000000  0.5871610000000 1.0
C      1  0.5654370000000  0.5378800000000  0.5535240000000 1.0
C      1  0.4491630000000  0.5134240000000  0.5844380000000 1.0
C      1  0.5508560000000  0.4875620000000  0.4999720000000 1.0
C      1  0.4728130000000  0.5553940000000  0.5151800000000 1.0
C      1  0.4857290000000  0.4251360000000  0.5773170000000 1.0
C      1  0.5285270000000  0.4672030000000  0.4876390000000 1.0
C      1  0.4043330000000  0.4537050000000  0.5377690000000 1.0
C      1  0.5113560000000  0.4347980000000  0.5852090000000 1.0
C      1  0.4017610000000  0.4959880000000  0.4562510000000 1.0
C      1  0.5311840000000  0.4971150000000  0.5525520000000 1.0
C      1  0.5014010000000  0.5679260000000  0.5284080000000 1.0
C      1  0.5414360000000  0.4751490000000  0.4398440000000 1.0
C      1  0.4359650000000  0.4887230000000  0.5827020000000 1.0
C      1  0.4919090000000  0.4372620000000  0.4629150000000 1.0
C      1  0.5421970000000  0.5173790000000  0.5947170000000 1.0
C      1  0.5581440000000  0.4991480000000  0.4307510000000 1.0
C      1  0.5233340000000  0.5370340000000  0.6050770000000 1.0
C      1  0.5377390000000  0.6016420000000  0.5271510000000 1.0
C      1  0.4881760000000  0.4655300000000  0.4231670000000 1.0
C      1  0.5152060000000  0.4034340000000  0.5478930000000 1.0
C      1  0.5231730000000  0.5441520000000  0.5242710000000 1.0
C      1  0.4685310000000  0.5144130000000  0.4825650000000 1.0
C      1  0.5417800000000  0.5552840000000  0.4224780000000 1.0
C      1  0.5395390000000  0.4499030000000  0.5505790000000 1.0
C      1  0.4575920000000  0.5609620000000  0.5774090000000 1.0
C      1  0.4263730000000  0.5478090000000  0.5033180000000 1.0
C      1  0.5165270000000  0.4549560000000  0.5278600000000 1.0
C      1  0.4368600000000  0.4282740000000  0.4619720000000 1.0
C      1  0.4543380000000  0.4670550000000  0.5836180000000 1.0
C      1  0.5865970000000  0.4918750000000  0.4253890000000 1.0
C      1  0.4420000000000  0.4788430000000  0.4362950000000 1.0
C      1  0.5156890000000  0.5089660000000  0.4710050000000 1.0
C      1  0.5096210000000  0.5971840000000  0.5200680000000 1.0
C      1  0.4504110000000  0.5756970000000  0.4410320000000 1.0
C      1  0.4889030000000  0.5169840000000  0.4237900000000 1.0
C      1  0.5325020000000  0.5627690000000  0.4728860000000 1.0
C      1  0.4508400000000  0.5136690000000  0.5353500000000 1.0
C      1  0.4788020000000  0.5084780000000  0.5883620000000 1.0
C      1  0.5510390000000  0.5867560000000  0.4719120000000 1.0
C      1  0.5310670000000  0.4241650000000  0.5649060000000 1.0
C      1  0.5515660000000  0.4963410000000  0.5304070000000 1.0
C      1  0.4569300000000  0.5849330000000  0.5602650000000 1.0
C      1  0.5089170000000  0.6017820000000  0.4882760000000 1.0
C      1  0.5077030000000  0.4967570000000  0.5375480000000 1.0
C      1  0.3999600000000  0.4858940000000  0.5036480000000 1.0
C      1  0.5081060000000  0.4443100000000  0.4143470000000 1.0
C      1  0.4841700000000  0.5494180000000  0.5721320000000 1.0
C      1  0.5497060000000  0.5862530000000  0.5502200000000 1.0
C      1  0.4176270000000  0.4434450000000  0.5603460000000 1.0
C      1  0.5029430000000  0.4167070000000  0.4239060000000 1.0
C      1  0.5747600000000  0.4826680000000  0.5437480000000 1.0
C      1  0.5943030000000  0.5153410000000  0.4830310000000 1.0
C      1  0.5228530000000  0.3966630000000  0.5192780000000 1.0
C      1  0.5593780000000  0.5174800000000  0.4556530000000 1.0
C      1  0.5979760000000  0.5401810000000  0.4673900000000 1.0
C      1  0.4525370000000  0.5303450000000  0.5087180000000 1.0
C      1  0.4327470000000  0.5701830000000  0.4839230000000 1.0
C      1  0.5519610000000  0.4272870000000  0.5054930000000 1.0
C      1  0.4746990000000  0.3929430000000  0.4834170000000 1.0
C      1  0.4957520000000  0.5062100000000  0.4954390000000 1.0
C      1  0.5608980000000  0.4399900000000  0.4585070000000 1.0
C      1  0.4403400000000  0.5385340000000  0.5706670000000 1.0
C      1  0.5370480000000  0.4515730000000  0.4204080000000 1.0
C      1  0.4795260000000  0.5618970000000  0.4855410000000 1.0
C      1  0.4627720000000  0.5977480000000  0.4583110000000 1.0
C      1  0.4985010000000  0.5758440000000  0.4372640000000 1.0
C      1  0.4966830000000  0.4920410000000  0.4103180000000 1.0
C      1  0.4613360000000  0.5203660000000  0.4219300000000 1.0
C      1  0.5378270000000  0.6101660000000  0.4836880000000 1.0
C      1  0.4055760000000  0.5319000000000  0.4867210000000 1.0
C      1  0.5757490000000  0.5809010000000  0.4855060000000 1.0
C      1  0.5513510000000  0.6176000000000  0.5079410000000 1.0
C      1  0.3985960000000  0.4466720000000  0.4888300000000 1.0
C      1  0.6027630000000  0.5112240000000  0.5094420000000 1.0
C      1  0.4586490000000  0.5838700000000  0.4841500000000 1.0
C      1  0.5223200000000  0.4936570000000  0.3991580000000 1.0
C      1  0.5192540000000  0.4798850000000  0.4607990000000 1.0
C      1  0.5685580000000  0.5588070000000  0.4296590000000 1.0
C      1  0.5733760000000  0.4439860000000  0.5152110000000 1.0
C      1  0.4996970000000  0.5724720000000  0.5584910000000 1.0
C      1  0.4738990000000  0.5613720000000  0.4326180000000 1.0
C      1  0.4626590000000  0.4874560000000  0.5297640000000 1.0
C      1  0.5719710000000  0.4907910000000  0.5727130000000 1.0
C      1  0.5497340000000  0.4004730000000  0.5129350000000 1.0
C      1  0.4937470000000  0.4520710000000  0.5496390000000 1.0
C      1  0.5178690000000  0.4208550000000  0.4702790000000 1.0
C      1  0.4776100000000  0.5238500000000  0.5523200000000 1.0
C      1  0.6106410000000  0.5069210000000  0.4297680000000 1.0
C      1  0.3989500000000  0.4350610000000  0.5150700000000 1.0
C      1  0.5493090000000  0.4278890000000  0.4340580000000 1.0
C      1  0.4314980000000  0.5592930000000  0.4576480000000 1.0
C      1  0.5715370000000  0.5441570000000  0.4535560000000 1.0
C      1  0.4853910000000  0.4807050000000  0.5450570000000 1.0
C      1  0.4536060000000  0.4308490000000  0.4369400000000 1.0
C      1  0.4921420000000  0.4677570000000  0.4532230000000 1.0
C      1  0.5443870000000  0.5091410000000  0.4057000000000 1.0
C      1  0.4666800000000  0.4655770000000  0.4915340000000 1.0
C      1  0.4788470000000  0.4308500000000  0.5337870000000 1.0
C      1  0.4177100000000  0.4496660000000  0.4679160000000 1.0
END
