TITL C-951339-9237-46 -3.89084186663811e-06 125000 -820.526714776705 0 0 131 (C1) n - 1
REM
REM in /home/bkarasulu/work/CARBON/AIRSS/Generating-Clusters/EDIP-Nigel-Params/with-SteepDescent/Only-C1/SD-CG/HFTN-CG
REM
REM
REM
REM
REM
REM ./C.cell (11c1c37f851c82e70ff6c80c92926a4b)
REM
REM compiler GCC version 9.2.1 20190827 (Red Hat 9.2.1-1)
REM options -cpp -mtune=generic -march=x86-64 -g -O0 -fpre-include=/usr/include/finclude/math-vector-fortran.h
REM seed 911613607 53121791 -1790908414 -1914462953 -1530118007 1876843462 -244020043 1416536266 -983429507 -992268365 1567271401 -983169206 1738130991 969048742 -860347421 -629516828 115694851 1656327523 662243990 -661442848 -1161798272 912010379 145164727 540932149 550830471 -1980962385 -522508671 -1799707371 2010597244 -779577234 -704263190 808971355 1668094611
REM
CELL 1.54180   50.00000   50.00000   50.00000   90.00000   90.00000   90.00000
LATT -1
SFAC C  
C      1  0.4717380000000  0.4265400000000  0.4474060000000 1.0
C      1  0.5525870000000  0.4463040000000  0.5473420000000 1.0
C      1  0.4093410000000  0.4825490000000  0.4932900000000 1.0
C      1  0.4935850000000  0.5562810000000  0.5153320000000 1.0
C      1  0.4283930000000  0.5386380000000  0.5321620000000 1.0
C      1  0.4574210000000  0.4210950000000  0.5231120000000 1.0
C      1  0.5731070000000  0.4849700000000  0.5020280000000 1.0
C      1  0.5209240000000  0.4531400000000  0.4202910000000 1.0
C      1  0.4279050000000  0.4505360000000  0.4625150000000 1.0
C      1  0.4151360000000  0.4783460000000  0.4630490000000 1.0
C      1  0.4534960000000  0.5430710000000  0.4637880000000 1.0
C      1  0.4264490000000  0.4803910000000  0.4171800000000 1.0
C      1  0.4962830000000  0.5113880000000  0.4001250000000 1.0
C      1  0.6017180000000  0.4968560000000  0.4941850000000 1.0
C      1  0.4939580000000  0.4048450000000  0.4949760000000 1.0
C      1  0.5225290000000  0.4909280000000  0.5962660000000 1.0
C      1  0.4856200000000  0.5805690000000  0.5588440000000 1.0
C      1  0.4765410000000  0.5974150000000  0.4828680000000 1.0
C      1  0.4703170000000  0.5519220000000  0.4191030000000 1.0
C      1  0.5971100000000  0.5210750000000  0.4781110000000 1.0
C      1  0.5622960000000  0.4423610000000  0.4433430000000 1.0
C      1  0.4863320000000  0.5401810000000  0.5430210000000 1.0
C      1  0.4378210000000  0.4906640000000  0.5715530000000 1.0
C      1  0.4729560000000  0.5378070000000  0.5066420000000 1.0
C      1  0.4557200000000  0.5426790000000  0.5744610000000 1.0
C      1  0.4846440000000  0.4824720000000  0.4968040000000 1.0
C      1  0.5051420000000  0.5134760000000  0.5947670000000 1.0
C      1  0.4515900000000  0.4247790000000  0.4950180000000 1.0
C      1  0.5776170000000  0.5457060000000  0.5497810000000 1.0
C      1  0.4820120000000  0.4321890000000  0.5908120000000 1.0
C      1  0.4717730000000  0.5127650000000  0.5448760000000 1.0
C      1  0.4260860000000  0.4607100000000  0.5333610000000 1.0
C      1  0.4730100000000  0.4664320000000  0.4092580000000 1.0
C      1  0.4826250000000  0.5926130000000  0.5104860000000 1.0
C      1  0.4044810000000  0.5434770000000  0.4547360000000 1.0
C      1  0.4892560000000  0.4488900000000  0.4588230000000 1.0
C      1  0.4010130000000  0.5089130000000  0.5038350000000 1.0
C      1  0.4927110000000  0.4036420000000  0.5522500000000 1.0
C      1  0.4342590000000  0.4717720000000  0.5072350000000 1.0
C      1  0.5180590000000  0.4171700000000  0.5608040000000 1.0
C      1  0.5648500000000  0.5089250000000  0.5561330000000 1.0
C      1  0.5202410000000  0.5186160000000  0.5028080000000 1.0
C      1  0.5669720000000  0.4902330000000  0.4471050000000 1.0
C      1  0.4196160000000  0.5254870000000  0.4348960000000 1.0
C      1  0.5619840000000  0.5615620000000  0.4443420000000 1.0
C      1  0.4696760000000  0.4680800000000  0.4750280000000 1.0
C      1  0.4814300000000  0.4767430000000  0.6037100000000 1.0
C      1  0.5535610000000  0.5084110000000  0.5083210000000 1.0
C      1  0.4892440000000  0.4727120000000  0.5656970000000 1.0
C      1  0.5347640000000  0.4387500000000  0.4417430000000 1.0
C      1  0.4642240000000  0.5870700000000  0.4598940000000 1.0
C      1  0.4934430000000  0.4940310000000  0.5435900000000 1.0
C      1  0.5185660000000  0.4401270000000  0.4674400000000 1.0
C      1  0.4446100000000  0.4404290000000  0.4400880000000 1.0
C      1  0.5844050000000  0.4737180000000  0.5273580000000 1.0
C      1  0.6067320000000  0.5047340000000  0.5232530000000 1.0
C      1  0.5440300000000  0.5038850000000  0.4599490000000 1.0
C      1  0.5208340000000  0.4150950000000  0.4860260000000 1.0
C      1  0.5024590000000  0.5035730000000  0.4818560000000 1.0
C      1  0.5239260000000  0.5616860000000  0.4761470000000 1.0
C      1  0.4149820000000  0.4955850000000  0.4374350000000 1.0
C      1  0.5227850000000  0.4878200000000  0.4691460000000 1.0
C      1  0.4449390000000  0.4397390000000  0.5436230000000 1.0
C      1  0.5100100000000  0.4396150000000  0.5811680000000 1.0
C      1  0.4411080000000  0.5696170000000  0.4675120000000 1.0
C      1  0.5165670000000  0.5097260000000  0.5332680000000 1.0
C      1  0.5585380000000  0.5782430000000  0.5120250000000 1.0
C      1  0.5715850000000  0.4626820000000  0.4594510000000 1.0
C      1  0.4153640000000  0.5693290000000  0.4569620000000 1.0
C      1  0.5748010000000  0.4467150000000  0.5292100000000 1.0
C      1  0.5744530000000  0.5359560000000  0.4326130000000 1.0
C      1  0.5179490000000  0.5476420000000  0.5008740000000 1.0
C      1  0.5887600000000  0.5280400000000  0.5263210000000 1.0
C      1  0.5332680000000  0.5545100000000  0.4482710000000 1.0
C      1  0.5275910000000  0.4651380000000  0.5850920000000 1.0
C      1  0.5324370000000  0.4783540000000  0.4086310000000 1.0
C      1  0.5358020000000  0.5708090000000  0.5552870000000 1.0
C      1  0.4424840000000  0.5180810000000  0.4779090000000 1.0
C      1  0.5068430000000  0.4475750000000  0.5294440000000 1.0
C      1  0.5334330000000  0.5891360000000  0.5011060000000 1.0
C      1  0.4839450000000  0.5464930000000  0.4648240000000 1.0
C      1  0.4831280000000  0.5569000000000  0.5782350000000 1.0
C      1  0.4636270000000  0.5762330000000  0.5398510000000 1.0
C      1  0.4589820000000  0.5122350000000  0.5731510000000 1.0
C      1  0.5300310000000  0.4303270000000  0.5365550000000 1.0
C      1  0.4783810000000  0.5037130000000  0.5951660000000 1.0
C      1  0.5651660000000  0.4357620000000  0.5029580000000 1.0
C      1  0.4915980000000  0.4461460000000  0.4202940000000 1.0
C      1  0.4599670000000  0.4920320000000  0.5147050000000 1.0
C      1  0.5866590000000  0.5140450000000  0.4508880000000 1.0
C      1  0.5282790000000  0.4636030000000  0.4842240000000 1.0
C      1  0.4224300000000  0.4881070000000  0.5468750000000 1.0
C      1  0.5408730000000  0.4182450000000  0.5090780000000 1.0
C      1  0.4644470000000  0.4551530000000  0.5976570000000 1.0
C      1  0.5743070000000  0.5723300000000  0.4666330000000 1.0
C      1  0.4455160000000  0.4519970000000  0.4863640000000 1.0
C      1  0.5116870000000  0.5833690000000  0.5452060000000 1.0
C      1  0.4831400000000  0.4464800000000  0.5489130000000 1.0
C      1  0.4144910000000  0.5129250000000  0.5304690000000 1.0
C      1  0.4513520000000  0.5326860000000  0.4344230000000 1.0
C      1  0.5804320000000  0.5360470000000  0.4985930000000 1.0
C      1  0.5338430000000  0.5492670000000  0.5742210000000 1.0
C      1  0.5522890000000  0.4637830000000  0.5705390000000 1.0
C      1  0.4454560000000  0.4597350000000  0.4176200000000 1.0
C      1  0.4519180000000  0.4646160000000  0.5725120000000 1.0
C      1  0.5765980000000  0.5650980000000  0.4933330000000 1.0
C      1  0.4913800000000  0.5189590000000  0.4582390000000 1.0
C      1  0.5590770000000  0.5335430000000  0.5739470000000 1.0
C      1  0.4453100000000  0.5548690000000  0.5496640000000 1.0
C      1  0.4711110000000  0.4127310000000  0.4766800000000 1.0
C      1  0.5113590000000  0.5964920000000  0.5190440000000 1.0
C      1  0.4789030000000  0.4947970000000  0.4160070000000 1.0
C      1  0.4954510000000  0.5401690000000  0.4075020000000 1.0
C      1  0.4844650000000  0.4098990000000  0.5238570000000 1.0
C      1  0.4849250000000  0.5672020000000  0.4415140000000 1.0
C      1  0.5370980000000  0.5249340000000  0.4398430000000 1.0
C      1  0.4522150000000  0.4908400000000  0.4607510000000 1.0
C      1  0.4720990000000  0.4157990000000  0.5691380000000 1.0
C      1  0.5598210000000  0.4612250000000  0.4869340000000 1.0
C      1  0.5581550000000  0.4905620000000  0.4170630000000 1.0
C      1  0.5444130000000  0.5015400000000  0.5357630000000 1.0
C      1  0.4507740000000  0.5197590000000  0.5067230000000 1.0
C      1  0.5131110000000  0.5655510000000  0.4292310000000 1.0
C      1  0.4127780000000  0.5202550000000  0.4743010000000 1.0
C      1  0.4686770000000  0.5073200000000  0.4409520000000 1.0
C      1  0.5076890000000  0.4650680000000  0.5067620000000 1.0
C      1  0.5588360000000  0.5667260000000  0.5387780000000 1.0
C      1  0.5551320000000  0.5204950000000  0.4141840000000 1.0
C      1  0.5179060000000  0.4956700000000  0.3913710000000 1.0
C      1  0.5076240000000  0.5391380000000  0.5815170000000 1.0
C      1  0.5703200000000  0.4853970000000  0.5723730000000 1.0
END
