TITL C-950528-5794-334 -6.96153088706984e-07 125000 -597.22238206315 0 0 96 (C1) n - 1
REM
REM in /home/bkarasulu/work/CARBON/AIRSS/Generating-Clusters/EDIP-Nigel-Params/with-SteepDescent/Only-C1/SD-CG/HFTN-CG
REM
REM
REM
REM
REM
REM ./C.cell (11c1c37f851c82e70ff6c80c92926a4b)
REM
REM compiler GCC version 9.2.1 20190827 (Red Hat 9.2.1-1)
REM options -cpp -mtune=generic -march=x86-64 -g -O0 -fpre-include=/usr/include/finclude/math-vector-fortran.h
REM seed 1595208525 1938119148 -705074867 1271787868 1616039666 -118754388 73438448 -802019596 -1218325597 1647799720 -1441069733 -1480531115 -128261565 347898208 -39950992 1588053223 901532440 2092722080 -915887353 787484478 1077023952 1681485125 71993151 331848931 784331816 306428680 -1538727056 -1822816426 992948690 -1906366700 1302332371 31346689 1568346287
REM
CELL 1.54180   50.00000   50.00000   50.00000   90.00000   90.00000   90.00000
LATT -1
SFAC C  
C      1  0.4889410000000  0.4675920000000  0.5522280000000 1.0
C      1  0.5307070000000  0.4280290000000  0.4944430000000 1.0
C      1  0.4427440000000  0.5550070000000  0.4717440000000 1.0
C      1  0.4834250000000  0.5610360000000  0.4439580000000 1.0
C      1  0.5620880000000  0.5157040000000  0.4480620000000 1.0
C      1  0.4412770000000  0.4440180000000  0.5384280000000 1.0
C      1  0.4650750000000  0.4737990000000  0.5697540000000 1.0
C      1  0.4691740000000  0.5016040000000  0.5813090000000 1.0
C      1  0.4556020000000  0.4402050000000  0.5129670000000 1.0
C      1  0.4906490000000  0.5164310000000  0.5404980000000 1.0
C      1  0.5171410000000  0.5398300000000  0.5679040000000 1.0
C      1  0.4398630000000  0.4679110000000  0.5542370000000 1.0
C      1  0.5001100000000  0.4446640000000  0.4695900000000 1.0
C      1  0.5321110000000  0.5349160000000  0.5147700000000 1.0
C      1  0.5402190000000  0.4312010000000  0.5216390000000 1.0
C      1  0.4240760000000  0.4891220000000  0.4483050000000 1.0
C      1  0.4221540000000  0.4691170000000  0.4695230000000 1.0
C      1  0.5591060000000  0.4532040000000  0.5255730000000 1.0
C      1  0.5157090000000  0.5781820000000  0.5035130000000 1.0
C      1  0.4580170000000  0.4657690000000  0.4944500000000 1.0
C      1  0.5147780000000  0.5136460000000  0.4658610000000 1.0
C      1  0.4948140000000  0.4169400000000  0.4964950000000 1.0
C      1  0.4825740000000  0.4881830000000  0.5290200000000 1.0
C      1  0.4306000000000  0.4872330000000  0.5322190000000 1.0
C      1  0.5245690000000  0.5744000000000  0.4536650000000 1.0
C      1  0.5448170000000  0.5133050000000  0.5903810000000 1.0
C      1  0.4457120000000  0.5336030000000  0.5417540000000 1.0
C      1  0.4880820000000  0.5362480000000  0.5188490000000 1.0
C      1  0.4876920000000  0.4720550000000  0.4844320000000 1.0
C      1  0.5618730000000  0.4596060000000  0.5542450000000 1.0
C      1  0.4390580000000  0.4442120000000  0.4675720000000 1.0
C      1  0.5241620000000  0.4742080000000  0.4382080000000 1.0
C      1  0.4948630000000  0.4387370000000  0.5429170000000 1.0
C      1  0.5787360000000  0.4962030000000  0.5074600000000 1.0
C      1  0.4954350000000  0.5053040000000  0.5925310000000 1.0
C      1  0.5731610000000  0.5236650000000  0.4976430000000 1.0
C      1  0.4143240000000  0.5153720000000  0.4581540000000 1.0
C      1  0.5800770000000  0.4918070000000  0.4475770000000 1.0
C      1  0.5527050000000  0.5754310000000  0.4546880000000 1.0
C      1  0.4629230000000  0.5155810000000  0.4696300000000 1.0
C      1  0.4500990000000  0.4913000000000  0.4347570000000 1.0
C      1  0.4589500000000  0.5400850000000  0.5148470000000 1.0
C      1  0.5115230000000  0.5624360000000  0.5527370000000 1.0
C      1  0.5613540000000  0.5416240000000  0.5184910000000 1.0
C      1  0.4596980000000  0.4443020000000  0.4459510000000 1.0
C      1  0.5584450000000  0.5337230000000  0.4736360000000 1.0
C      1  0.5095660000000  0.5557810000000  0.4345390000000 1.0
C      1  0.5524240000000  0.4719160000000  0.4795600000000 1.0
C      1  0.5283000000000  0.5352660000000  0.4837320000000 1.0
C      1  0.5714900000000  0.4763340000000  0.4255960000000 1.0
C      1  0.4885940000000  0.5008810000000  0.4736250000000 1.0
C      1  0.4804500000000  0.4265890000000  0.4556550000000 1.0
C      1  0.4137890000000  0.5271870000000  0.5090310000000 1.0
C      1  0.4544630000000  0.4896810000000  0.5133660000000 1.0
C      1  0.4816980000000  0.4296630000000  0.5193200000000 1.0
C      1  0.5530600000000  0.4780980000000  0.5092590000000 1.0
C      1  0.5364670000000  0.4600760000000  0.5671780000000 1.0
C      1  0.5246490000000  0.4469920000000  0.4513010000000 1.0
C      1  0.4069320000000  0.5098320000000  0.4869600000000 1.0
C      1  0.5119930000000  0.5619070000000  0.4782550000000 1.0
C      1  0.5808750000000  0.4784910000000  0.4733170000000 1.0
C      1  0.5180230000000  0.5222930000000  0.5894110000000 1.0
C      1  0.4085270000000  0.4812910000000  0.4919870000000 1.0
C      1  0.5502070000000  0.5107860000000  0.5613550000000 1.0
C      1  0.5111370000000  0.5552150000000  0.5234570000000 1.0
C      1  0.5710380000000  0.5287490000000  0.5447510000000 1.0
C      1  0.5439670000000  0.4435300000000  0.4732050000000 1.0
C      1  0.4958040000000  0.4811690000000  0.4282100000000 1.0
C      1  0.4683060000000  0.5246530000000  0.5607170000000 1.0
C      1  0.4707220000000  0.4102500000000  0.4782850000000 1.0
C      1  0.5454260000000  0.4856390000000  0.4193510000000 1.0
C      1  0.4489000000000  0.5162870000000  0.4977040000000 1.0
C      1  0.5347510000000  0.4911440000000  0.4616470000000 1.0
C      1  0.4224790000000  0.5167520000000  0.5352880000000 1.0
C      1  0.5144950000000  0.5249800000000  0.4362370000000 1.0
C      1  0.4633880000000  0.5173710000000  0.4308810000000 1.0
C      1  0.4093300000000  0.4729650000000  0.5184980000000 1.0
C      1  0.5649700000000  0.5697920000000  0.5026800000000 1.0
C      1  0.4754670000000  0.5497130000000  0.5736510000000 1.0
C      1  0.4919190000000  0.5100660000000  0.4231730000000 1.0
C      1  0.5770690000000  0.4839140000000  0.5578130000000 1.0
C      1  0.4694470000000  0.5679890000000  0.4675560000000 1.0
C      1  0.4541990000000  0.5721060000000  0.4939670000000 1.0
C      1  0.5418400000000  0.5155520000000  0.4253400000000 1.0
C      1  0.4697560000000  0.4706900000000  0.4381820000000 1.0
C      1  0.5683130000000  0.5618540000000  0.4733160000000 1.0
C      1  0.5236480000000  0.5015380000000  0.5465680000000 1.0
C      1  0.5212980000000  0.4287660000000  0.5425890000000 1.0
C      1  0.5425410000000  0.5868060000000  0.5051170000000 1.0
C      1  0.4872870000000  0.5724220000000  0.5632940000000 1.0
C      1  0.4352710000000  0.5354310000000  0.4508480000000 1.0
C      1  0.5277470000000  0.4914500000000  0.5177580000000 1.0
C      1  0.5856830000000  0.5029740000000  0.5371090000000 1.0
C      1  0.5026290000000  0.4789520000000  0.5096250000000 1.0
C      1  0.5148400000000  0.4780870000000  0.5635850000000 1.0
C      1  0.4456140000000  0.4235790000000  0.4895310000000 1.0
END
