TITL C-950532-2784-58 -1.81377469015425e-07 125000 -1204.58860720679 0 0 193 (C1) n - 1
REM
REM in /home/bkarasulu/work/CARBON/AIRSS/Generating-Clusters/EDIP-Nigel-Params/with-SteepDescent/Only-C1/SD-CG/HFTN-CG
REM
REM
REM
REM
REM
REM ./C.cell (11c1c37f851c82e70ff6c80c92926a4b)
REM
REM compiler GCC version 9.2.1 20190827 (Red Hat 9.2.1-1)
REM options -cpp -mtune=generic -march=x86-64 -g -O0 -fpre-include=/usr/include/finclude/math-vector-fortran.h
REM seed -1719279662 -719428769 1468349269 -1774563843 -1446095133 2027615555 1428974085 -1192597563 2066080647 -895165627 2017658565 271179659 -339397183 1402562407 -590162684 214667316 1662492903 640506041 622716504 458201194 846273487 2120531714 16884090 41317633 565568286 -2085992836 1904030383 1066893105 1760850548 912642001 -975094245 484165539 -1120891632
REM
CELL 1.54180   50.00000   50.00000   50.00000   90.00000   90.00000   90.00000
LATT -1
SFAC C  
C      1  0.4132390000000  0.5462350000000  0.5310420000000 1.0
C      1  0.5179490000000  0.5050690000000  0.4411890000000 1.0
C      1  0.5713560000000  0.5843420000000  0.4800780000000 1.0
C      1  0.4782130000000  0.6071610000000  0.5379260000000 1.0
C      1  0.6116890000000  0.5202680000000  0.5348900000000 1.0
C      1  0.4440730000000  0.4511710000000  0.4864790000000 1.0
C      1  0.5555700000000  0.5758210000000  0.5048210000000 1.0
C      1  0.5239860000000  0.4288690000000  0.5861850000000 1.0
C      1  0.4609050000000  0.3954950000000  0.4772470000000 1.0
C      1  0.4870030000000  0.4940750000000  0.6083230000000 1.0
C      1  0.5732570000000  0.4289100000000  0.5330790000000 1.0
C      1  0.5845430000000  0.4433820000000  0.4505230000000 1.0
C      1  0.5534060000000  0.5975010000000  0.5263180000000 1.0
C      1  0.5276650000000  0.4711400000000  0.5662060000000 1.0
C      1  0.4025590000000  0.5041940000000  0.4636610000000 1.0
C      1  0.5189130000000  0.4213830000000  0.4186140000000 1.0
C      1  0.4829690000000  0.5775730000000  0.4434170000000 1.0
C      1  0.5737930000000  0.5582530000000  0.5232680000000 1.0
C      1  0.5671110000000  0.4784760000000  0.4838230000000 1.0
C      1  0.4211390000000  0.5296790000000  0.5749550000000 1.0
C      1  0.5114970000000  0.5408370000000  0.5871130000000 1.0
C      1  0.5316120000000  0.4296510000000  0.4752900000000 1.0
C      1  0.4877950000000  0.6013710000000  0.5671960000000 1.0
C      1  0.5617810000000  0.4899600000000  0.4112040000000 1.0
C      1  0.5209900000000  0.5015690000000  0.5694130000000 1.0
C      1  0.5435830000000  0.4125450000000  0.4320750000000 1.0
C      1  0.6085300000000  0.5272820000000  0.4596110000000 1.0
C      1  0.5336020000000  0.4551170000000  0.4282510000000 1.0
C      1  0.6026050000000  0.4645370000000  0.5117130000000 1.0
C      1  0.4274460000000  0.4326600000000  0.5637120000000 1.0
C      1  0.4245060000000  0.5774020000000  0.5696360000000 1.0
C      1  0.4673080000000  0.4146220000000  0.4303110000000 1.0
C      1  0.4875610000000  0.5602950000000  0.5510200000000 1.0
C      1  0.4891630000000  0.3955370000000  0.4808060000000 1.0
C      1  0.5560150000000  0.5515390000000  0.4333000000000 1.0
C      1  0.4651380000000  0.5377700000000  0.5160240000000 1.0
C      1  0.4494010000000  0.4057710000000  0.4524890000000 1.0
C      1  0.5058520000000  0.4453520000000  0.4730600000000 1.0
C      1  0.5351310000000  0.6141130000000  0.4600540000000 1.0
C      1  0.5646580000000  0.4329270000000  0.4321980000000 1.0
C      1  0.4834600000000  0.4111800000000  0.5667790000000 1.0
C      1  0.4392870000000  0.5013170000000  0.4982800000000 1.0
C      1  0.4366710000000  0.4163850000000  0.5403610000000 1.0
C      1  0.6001530000000  0.5580830000000  0.5087920000000 1.0
C      1  0.4700290000000  0.5169700000000  0.4257620000000 1.0
C      1  0.5879300000000  0.4882280000000  0.4256010000000 1.0
C      1  0.5940470000000  0.5170390000000  0.4326670000000 1.0
C      1  0.5302630000000  0.5376040000000  0.5255860000000 1.0
C      1  0.5294180000000  0.5209820000000  0.4171940000000 1.0
C      1  0.5173040000000  0.4787400000000  0.3956690000000 1.0
C      1  0.4582450000000  0.4365270000000  0.5311890000000 1.0
C      1  0.5621590000000  0.4612200000000  0.5778070000000 1.0
C      1  0.5288840000000  0.6279370000000  0.4844240000000 1.0
C      1  0.4832510000000  0.5786470000000  0.5273220000000 1.0
C      1  0.4507050000000  0.4927290000000  0.4497960000000 1.0
C      1  0.5024850000000  0.6272990000000  0.4968890000000 1.0
C      1  0.4512860000000  0.4673260000000  0.5330430000000 1.0
C      1  0.4553280000000  0.4611090000000  0.4573770000000 1.0
C      1  0.4506340000000  0.4811600000000  0.4037350000000 1.0
C      1  0.4867240000000  0.4499540000000  0.6072310000000 1.0
C      1  0.5689440000000  0.5806480000000  0.5466330000000 1.0
C      1  0.4727230000000  0.5807730000000  0.5808540000000 1.0
C      1  0.4674000000000  0.5422690000000  0.3932130000000 1.0
C      1  0.5559620000000  0.4421430000000  0.4843770000000 1.0
C      1  0.6030980000000  0.5148340000000  0.4864750000000 1.0
C      1  0.4333680000000  0.4917720000000  0.4244000000000 1.0
C      1  0.5157540000000  0.6143560000000  0.4400300000000 1.0
C      1  0.5091000000000  0.5815640000000  0.5107660000000 1.0
C      1  0.5259430000000  0.5182080000000  0.4761590000000 1.0
C      1  0.4194670000000  0.4335180000000  0.4813700000000 1.0
C      1  0.5615300000000  0.4874870000000  0.4553270000000 1.0
C      1  0.4075170000000  0.5259960000000  0.5502940000000 1.0
C      1  0.5035470000000  0.5922020000000  0.4281040000000 1.0
C      1  0.5300060000000  0.4032300000000  0.5470020000000 1.0
C      1  0.4951870000000  0.3903070000000  0.5089500000000 1.0
C      1  0.5555700000000  0.5474460000000  0.4616550000000 1.0
C      1  0.4482180000000  0.5377410000000  0.5785250000000 1.0
C      1  0.5988140000000  0.4668770000000  0.4437350000000 1.0
C      1  0.5973810000000  0.4845410000000  0.4886690000000 1.0
C      1  0.4482900000000  0.3961750000000  0.5034870000000 1.0
C      1  0.5057400000000  0.3956690000000  0.4567150000000 1.0
C      1  0.5734270000000  0.4187980000000  0.4861210000000 1.0
C      1  0.4824000000000  0.5328020000000  0.4918470000000 1.0
C      1  0.4274570000000  0.5228130000000  0.4170400000000 1.0
C      1  0.4697910000000  0.4267380000000  0.5921420000000 1.0
C      1  0.5295120000000  0.5477590000000  0.4756320000000 1.0
C      1  0.4965580000000  0.4110860000000  0.4336810000000 1.0
C      1  0.5508800000000  0.4346170000000  0.5762740000000 1.0
C      1  0.5339460000000  0.4044560000000  0.4596970000000 1.0
C      1  0.4937440000000  0.5128150000000  0.5843600000000 1.0
C      1  0.5021140000000  0.6242680000000  0.5260900000000 1.0
C      1  0.5157750000000  0.5581970000000  0.5617500000000 1.0
C      1  0.5580110000000  0.5010150000000  0.5371790000000 1.0
C      1  0.5595290000000  0.5462900000000  0.5789120000000 1.0
C      1  0.4709320000000  0.5353640000000  0.4654310000000 1.0
C      1  0.5792860000000  0.4586150000000  0.5319200000000 1.0
C      1  0.4129230000000  0.4527500000000  0.5493400000000 1.0
C      1  0.5389090000000  0.5331110000000  0.5953520000000 1.0
C      1  0.5327940000000  0.4795410000000  0.4493380000000 1.0
C      1  0.5974010000000  0.5697410000000  0.4816790000000 1.0
C      1  0.5292500000000  0.5592690000000  0.5035880000000 1.0
C      1  0.5426360000000  0.4694100000000  0.4046710000000 1.0
C      1  0.4324190000000  0.5083970000000  0.4701170000000 1.0
C      1  0.4783320000000  0.4799340000000  0.5481500000000 1.0
C      1  0.4011960000000  0.4987780000000  0.5414320000000 1.0
C      1  0.4421120000000  0.4690120000000  0.5944230000000 1.0
C      1  0.5030920000000  0.5127060000000  0.4937740000000 1.0
C      1  0.4085620000000  0.4788500000000  0.5602940000000 1.0
C      1  0.5515690000000  0.5727800000000  0.5686690000000 1.0
C      1  0.4860120000000  0.4561660000000  0.5635240000000 1.0
C      1  0.5251490000000  0.4651750000000  0.5355940000000 1.0
C      1  0.5852370000000  0.4658680000000  0.5609220000000 1.0
C      1  0.5087710000000  0.5184010000000  0.5367100000000 1.0
C      1  0.4415860000000  0.5373020000000  0.4653120000000 1.0
C      1  0.4348380000000  0.4466270000000  0.4382030000000 1.0
C      1  0.5582010000000  0.5967760000000  0.4567250000000 1.0
C      1  0.4601040000000  0.5678290000000  0.5124590000000 1.0
C      1  0.5198760000000  0.3995710000000  0.5201890000000 1.0
C      1  0.5178960000000  0.4718760000000  0.4740030000000 1.0
C      1  0.5521020000000  0.4216640000000  0.5509990000000 1.0
C      1  0.3829940000000  0.5150520000000  0.4822990000000 1.0
C      1  0.6108450000000  0.4425720000000  0.4945470000000 1.0
C      1  0.4018680000000  0.4422210000000  0.5249960000000 1.0
C      1  0.4266080000000  0.5940280000000  0.5251130000000 1.0
C      1  0.5968280000000  0.4289400000000  0.4732810000000 1.0
C      1  0.5412800000000  0.5042370000000  0.5922800000000 1.0
C      1  0.5729080000000  0.5280290000000  0.5604670000000 1.0
C      1  0.5091430000000  0.4360750000000  0.5262500000000 1.0
C      1  0.5080400000000  0.4545760000000  0.5838250000000 1.0
C      1  0.5099910000000  0.5461250000000  0.4155850000000 1.0
C      1  0.4477410000000  0.4433580000000  0.5817410000000 1.0
C      1  0.5082460000000  0.4794350000000  0.6203270000000 1.0
C      1  0.4925940000000  0.4665520000000  0.4226870000000 1.0
C      1  0.5223330000000  0.5067130000000  0.3916470000000 1.0
C      1  0.4847210000000  0.4333980000000  0.5461610000000 1.0
C      1  0.4634330000000  0.4320320000000  0.5013250000000 1.0
C      1  0.4465010000000  0.6116830000000  0.4972790000000 1.0
C      1  0.3747700000000  0.5422840000000  0.4816950000000 1.0
C      1  0.5673880000000  0.5279490000000  0.4182990000000 1.0
C      1  0.3924130000000  0.4625650000000  0.5063460000000 1.0
C      1  0.4819640000000  0.5332950000000  0.5416580000000 1.0
C      1  0.4856680000000  0.4734140000000  0.5058080000000 1.0
C      1  0.4787120000000  0.5892320000000  0.4705490000000 1.0
C      1  0.6129640000000  0.4744920000000  0.4663820000000 1.0
C      1  0.3998790000000  0.4892290000000  0.5142160000000 1.0
C      1  0.5333820000000  0.4888040000000  0.6143010000000 1.0
C      1  0.6107380000000  0.5555340000000  0.4612550000000 1.0
C      1  0.4238540000000  0.5712080000000  0.4435620000000 1.0
C      1  0.5173860000000  0.5910680000000  0.5619180000000 1.0
C      1  0.5222800000000  0.5740880000000  0.4152570000000 1.0
C      1  0.4250340000000  0.4224750000000  0.4541330000000 1.0
C      1  0.5015470000000  0.4854890000000  0.5286870000000 1.0
C      1  0.5125180000000  0.4058880000000  0.5710600000000 1.0
C      1  0.4909260000000  0.4955840000000  0.4321160000000 1.0
C      1  0.4186670000000  0.5727380000000  0.5423060000000 1.0
C      1  0.4696120000000  0.3900460000000  0.5521420000000 1.0
C      1  0.5237080000000  0.6008050000000  0.5325160000000 1.0
C      1  0.3984550000000  0.4753970000000  0.4562730000000 1.0
C      1  0.4489660000000  0.6141190000000  0.5270600000000 1.0
C      1  0.5557320000000  0.5238540000000  0.5196130000000 1.0
C      1  0.5503390000000  0.5061990000000  0.4937500000000 1.0
C      1  0.5493920000000  0.5780730000000  0.4247460000000 1.0
C      1  0.4917990000000  0.4446660000000  0.5007570000000 1.0
C      1  0.5790470000000  0.4115260000000  0.5122980000000 1.0
C      1  0.4687140000000  0.4598630000000  0.4050030000000 1.0
C      1  0.5037450000000  0.5983000000000  0.4858030000000 1.0
C      1  0.4844050000000  0.4505580000000  0.4493700000000 1.0
C      1  0.3980630000000  0.4543390000000  0.4788040000000 1.0
C      1  0.6116800000000  0.5310470000000  0.5092810000000 1.0
C      1  0.5989640000000  0.5159770000000  0.5590040000000 1.0
C      1  0.4624290000000  0.4791960000000  0.6119130000000 1.0
C      1  0.4675770000000  0.5193720000000  0.5647900000000 1.0
C      1  0.4447080000000  0.5019910000000  0.5494450000000 1.0
C      1  0.4951330000000  0.5417920000000  0.3902170000000 1.0
C      1  0.4954340000000  0.4874070000000  0.4839470000000 1.0
C      1  0.4347560000000  0.4737210000000  0.5070350000000 1.0
C      1  0.4341440000000  0.5446890000000  0.4365940000000 1.0
C      1  0.4700120000000  0.3917330000000  0.5237470000000 1.0
C      1  0.4163320000000  0.4172840000000  0.5155550000000 1.0
C      1  0.5532900000000  0.4749070000000  0.5252010000000 1.0
C      1  0.4257090000000  0.4878760000000  0.5808720000000 1.0
C      1  0.4145560000000  0.4686630000000  0.4321450000000 1.0
C      1  0.3571420000000  0.5235000000000  0.4739430000000 1.0
C      1  0.5675290000000  0.5191850000000  0.4615470000000 1.0
C      1  0.4498220000000  0.5658040000000  0.5730630000000 1.0
C      1  0.4309120000000  0.5703470000000  0.4721130000000 1.0
C      1  0.4851400000000  0.5463280000000  0.4395430000000 1.0
C      1  0.5048460000000  0.5206390000000  0.3749920000000 1.0
C      1  0.4465450000000  0.5243000000000  0.3953100000000 1.0
C      1  0.5990600000000  0.4893140000000  0.5662050000000 1.0
C      1  0.4535340000000  0.5842770000000  0.4872140000000 1.0
C      1  0.4400330000000  0.5205890000000  0.5212300000000 1.0
C      1  0.4529100000000  0.4367380000000  0.4152950000000 1.0
END
