TITL C-951347-9520-623 -3.40898533646241e-06 125000 -1131.21097376593 0 0 181 (C1) n - 1
REM
REM in /home/bkarasulu/work/CARBON/AIRSS/Generating-Clusters/EDIP-Nigel-Params/with-SteepDescent/Only-C1/SD-CG/HFTN-CG
REM
REM
REM
REM
REM
REM ./C.cell (11c1c37f851c82e70ff6c80c92926a4b)
REM
REM compiler GCC version 9.2.1 20190827 (Red Hat 9.2.1-1)
REM options -cpp -mtune=generic -march=x86-64 -g -O0 -fpre-include=/usr/include/finclude/math-vector-fortran.h
REM seed -1319507348 2141955566 1098848933 -1489653212 1419282222 1546540906 1926525552 729255993 -1942059162 -2092874478 1439662785 1871906630 1353038195 -1265702344 113348403 796535511 -1882116840 -287729199 -1490015831 1175115555 2040474774 -9107175 -1431289114 1358191294 1670427788 -990833677 -1706612649 -771479609 -1819514114 1843943162 -1491906458 2132744177 -2030825793
REM
CELL 1.54180   50.00000   50.00000   50.00000   90.00000   90.00000   90.00000
LATT -1
SFAC C  
C      1  0.4504540000000  0.5001100000000  0.4966390000000 1.0
C      1  0.5744600000000  0.4843050000000  0.4886620000000 1.0
C      1  0.5259790000000  0.4811120000000  0.5539460000000 1.0
C      1  0.5642390000000  0.5717150000000  0.5702310000000 1.0
C      1  0.5583020000000  0.4907400000000  0.4137390000000 1.0
C      1  0.5231570000000  0.5578110000000  0.5992360000000 1.0
C      1  0.4092530000000  0.5509060000000  0.5135250000000 1.0
C      1  0.6037270000000  0.4931530000000  0.4798510000000 1.0
C      1  0.5034740000000  0.4955300000000  0.3890750000000 1.0
C      1  0.4105820000000  0.4237220000000  0.5222340000000 1.0
C      1  0.5330300000000  0.4827510000000  0.5853110000000 1.0
C      1  0.5211000000000  0.4291820000000  0.5462070000000 1.0
C      1  0.5061100000000  0.4839350000000  0.6021290000000 1.0
C      1  0.5515670000000  0.4777860000000  0.5382090000000 1.0
C      1  0.5061920000000  0.5192570000000  0.5001630000000 1.0
C      1  0.5502400000000  0.4211360000000  0.5417870000000 1.0
C      1  0.5288060000000  0.5633700000000  0.5053270000000 1.0
C      1  0.5584680000000  0.4335200000000  0.4464500000000 1.0
C      1  0.4610950000000  0.6008390000000  0.4957230000000 1.0
C      1  0.5951200000000  0.5651060000000  0.4813070000000 1.0
C      1  0.5101070000000  0.5068330000000  0.5472560000000 1.0
C      1  0.4867730000000  0.4751060000000  0.4312640000000 1.0
C      1  0.4563570000000  0.4101590000000  0.5363960000000 1.0
C      1  0.5938200000000  0.5353520000000  0.5653420000000 1.0
C      1  0.5056390000000  0.5938910000000  0.4710510000000 1.0
C      1  0.4823190000000  0.4115450000000  0.4284120000000 1.0
C      1  0.4920970000000  0.4496640000000  0.3962310000000 1.0
C      1  0.5435300000000  0.5094990000000  0.6084150000000 1.0
C      1  0.4954950000000  0.5240020000000  0.5891460000000 1.0
C      1  0.4322770000000  0.4330570000000  0.4412370000000 1.0
C      1  0.4438960000000  0.5186800000000  0.4726750000000 1.0
C      1  0.5253800000000  0.5921720000000  0.5453160000000 1.0
C      1  0.4632510000000  0.5854660000000  0.4464280000000 1.0
C      1  0.5724170000000  0.4590060000000  0.5727570000000 1.0
C      1  0.5185950000000  0.4591380000000  0.4670530000000 1.0
C      1  0.5568610000000  0.4960060000000  0.4632910000000 1.0
C      1  0.4846870000000  0.4050190000000  0.4894680000000 1.0
C      1  0.5275300000000  0.4500720000000  0.5147740000000 1.0
C      1  0.3897110000000  0.4421670000000  0.5265790000000 1.0
C      1  0.4532360000000  0.5032110000000  0.3977530000000 1.0
C      1  0.4757970000000  0.5115240000000  0.5090970000000 1.0
C      1  0.5595250000000  0.5246630000000  0.5248030000000 1.0
C      1  0.4648240000000  0.4551080000000  0.4062780000000 1.0
C      1  0.5521660000000  0.5293630000000  0.4725610000000 1.0
C      1  0.4309590000000  0.5485620000000  0.5750950000000 1.0
C      1  0.5687340000000  0.5826550000000  0.5216630000000 1.0
C      1  0.4499760000000  0.4444090000000  0.4841990000000 1.0
C      1  0.6062360000000  0.4727970000000  0.5285690000000 1.0
C      1  0.4909220000000  0.4577710000000  0.4551680000000 1.0
C      1  0.5336880000000  0.4792730000000  0.4517330000000 1.0
C      1  0.5383860000000  0.4313200000000  0.4697560000000 1.0
C      1  0.5908570000000  0.5220590000000  0.4418690000000 1.0
C      1  0.5216220000000  0.3777580000000  0.5198630000000 1.0
C      1  0.5760490000000  0.4952080000000  0.4384250000000 1.0
C      1  0.5913670000000  0.5643340000000  0.5192000000000 1.0
C      1  0.5019990000000  0.5871600000000  0.5636870000000 1.0
C      1  0.5947020000000  0.4712980000000  0.4424610000000 1.0
C      1  0.3980530000000  0.5139230000000  0.4535130000000 1.0
C      1  0.4382820000000  0.5682730000000  0.4436050000000 1.0
C      1  0.4837480000000  0.4912490000000  0.5466030000000 1.0
C      1  0.4741580000000  0.5596140000000  0.5946790000000 1.0
C      1  0.5347340000000  0.4345880000000  0.5935160000000 1.0
C      1  0.5425170000000  0.5393740000000  0.4021070000000 1.0
C      1  0.6043780000000  0.5199630000000  0.4683860000000 1.0
C      1  0.4628440000000  0.5277770000000  0.5338190000000 1.0
C      1  0.4377310000000  0.4807750000000  0.5183880000000 1.0
C      1  0.5772470000000  0.4530120000000  0.4967090000000 1.0
C      1  0.5371420000000  0.4713740000000  0.4227230000000 1.0
C      1  0.5748980000000  0.5473300000000  0.4396830000000 1.0
C      1  0.5272530000000  0.4970790000000  0.4978480000000 1.0
C      1  0.4150710000000  0.5324860000000  0.4699980000000 1.0
C      1  0.4336160000000  0.5193320000000  0.4145810000000 1.0
C      1  0.4026680000000  0.5031770000000  0.5028730000000 1.0
C      1  0.4030810000000  0.4666480000000  0.5277410000000 1.0
C      1  0.5537980000000  0.5840190000000  0.5474210000000 1.0
C      1  0.5392860000000  0.6148180000000  0.5015310000000 1.0
C      1  0.4222710000000  0.4427740000000  0.4689140000000 1.0
C      1  0.4829100000000  0.5428200000000  0.5551290000000 1.0
C      1  0.4377720000000  0.5895470000000  0.5071100000000 1.0
C      1  0.5004990000000  0.4247900000000  0.4081640000000 1.0
C      1  0.4808160000000  0.4671110000000  0.5989820000000 1.0
C      1  0.4983990000000  0.6232710000000  0.5150460000000 1.0
C      1  0.5037640000000  0.3941270000000  0.4691040000000 1.0
C      1  0.5487970000000  0.5125430000000  0.3995290000000 1.0
C      1  0.4107210000000  0.5334370000000  0.5609770000000 1.0
C      1  0.3965540000000  0.4913890000000  0.4756950000000 1.0
C      1  0.5154810000000  0.5458800000000  0.4135530000000 1.0
C      1  0.5504670000000  0.4378050000000  0.4981990000000 1.0
C      1  0.4542620000000  0.5395040000000  0.5888430000000 1.0
C      1  0.4768340000000  0.5862180000000  0.4732260000000 1.0
C      1  0.4778620000000  0.6030230000000  0.5209730000000 1.0
C      1  0.5481750000000  0.5397060000000  0.5024350000000 1.0
C      1  0.4810060000000  0.5124270000000  0.3890880000000 1.0
C      1  0.5251010000000  0.5452080000000  0.4603200000000 1.0
C      1  0.4763540000000  0.3805960000000  0.5062800000000 1.0
C      1  0.5208790000000  0.5000690000000  0.6246460000000 1.0
C      1  0.5376360000000  0.3931900000000  0.5027820000000 1.0
C      1  0.5404270000000  0.5375410000000  0.6057390000000 1.0
C      1  0.5468470000000  0.5312410000000  0.5553530000000 1.0
C      1  0.4136270000000  0.4167270000000  0.4943030000000 1.0
C      1  0.5078970000000  0.4737940000000  0.4073570000000 1.0
C      1  0.4495260000000  0.3895380000000  0.5151950000000 1.0
C      1  0.5128060000000  0.5750460000000  0.4251510000000 1.0
C      1  0.4304710000000  0.4861140000000  0.5998690000000 1.0
C      1  0.4859730000000  0.4745630000000  0.4991030000000 1.0
C      1  0.4955580000000  0.3817630000000  0.5287460000000 1.0
C      1  0.4577900000000  0.4183950000000  0.4453070000000 1.0
C      1  0.4164420000000  0.4760070000000  0.4356020000000 1.0
C      1  0.4112130000000  0.5040760000000  0.5556450000000 1.0
C      1  0.4366640000000  0.3996120000000  0.4895810000000 1.0
C      1  0.5881200000000  0.5367800000000  0.4850490000000 1.0
C      1  0.4243210000000  0.4556480000000  0.5646520000000 1.0
C      1  0.4120000000000  0.4702300000000  0.4630910000000 1.0
C      1  0.4802980000000  0.5580090000000  0.4840170000000 1.0
C      1  0.4510020000000  0.5577900000000  0.5254550000000 1.0
C      1  0.5678910000000  0.5441120000000  0.5716700000000 1.0
C      1  0.4404440000000  0.5482510000000  0.4193480000000 1.0
C      1  0.5245520000000  0.6164510000000  0.5285020000000 1.0
C      1  0.5946940000000  0.4387600000000  0.4781960000000 1.0
C      1  0.4508210000000  0.4902090000000  0.4582670000000 1.0
C      1  0.5537950000000  0.5846970000000  0.4662860000000 1.0
C      1  0.4589300000000  0.4152010000000  0.4762250000000 1.0
C      1  0.4804320000000  0.5287080000000  0.4411110000000 1.0
C      1  0.6162210000000  0.4774940000000  0.4597080000000 1.0
C      1  0.4475210000000  0.4749350000000  0.3940490000000 1.0
C      1  0.4882500000000  0.5398470000000  0.3952180000000 1.0
C      1  0.6042070000000  0.5213220000000  0.5434850000000 1.0
C      1  0.4361920000000  0.4335090000000  0.5357470000000 1.0
C      1  0.5132350000000  0.5279590000000  0.5265100000000 1.0
C      1  0.4671410000000  0.5367840000000  0.4669530000000 1.0
C      1  0.4801760000000  0.4532980000000  0.5192080000000 1.0
C      1  0.5003050000000  0.5678570000000  0.5863130000000 1.0
C      1  0.5496640000000  0.5872980000000  0.4972470000000 1.0
C      1  0.4493180000000  0.4520510000000  0.5151460000000 1.0
C      1  0.5889010000000  0.5333250000000  0.5196850000000 1.0
C      1  0.4572230000000  0.4836350000000  0.5875600000000 1.0
C      1  0.4957740000000  0.4275540000000  0.5108330000000 1.0
C      1  0.4784060000000  0.5645650000000  0.5140880000000 1.0
C      1  0.5082600000000  0.5468810000000  0.4848330000000 1.0
C      1  0.5495260000000  0.4583970000000  0.5915270000000 1.0
C      1  0.4117650000000  0.5040580000000  0.4287410000000 1.0
C      1  0.4580500000000  0.5668820000000  0.5545320000000 1.0
C      1  0.5537470000000  0.4963680000000  0.5133750000000 1.0
C      1  0.5466450000000  0.4423890000000  0.4210180000000 1.0
C      1  0.5839390000000  0.4462200000000  0.4533620000000 1.0
C      1  0.4515210000000  0.4919940000000  0.5443590000000 1.0
C      1  0.5303950000000  0.4019160000000  0.4754870000000 1.0
C      1  0.3979860000000  0.4943020000000  0.5306400000000 1.0
C      1  0.5283350000000  0.4238270000000  0.4106270000000 1.0
C      1  0.5697680000000  0.4441430000000  0.5456840000000 1.0
C      1  0.6000090000000  0.4920690000000  0.5480240000000 1.0
C      1  0.4973990000000  0.3931430000000  0.4422810000000 1.0
C      1  0.5258230000000  0.5771300000000  0.4539730000000 1.0
C      1  0.4707540000000  0.5491470000000  0.4179420000000 1.0
C      1  0.4709450000000  0.4995900000000  0.4380780000000 1.0
C      1  0.5626280000000  0.5526730000000  0.4153690000000 1.0
C      1  0.4210110000000  0.5705620000000  0.4957000000000 1.0
C      1  0.5553350000000  0.4130600000000  0.5138640000000 1.0
C      1  0.4756370000000  0.5921270000000  0.5508450000000 1.0
C      1  0.5894880000000  0.4511210000000  0.5236490000000 1.0
C      1  0.4010310000000  0.5490820000000  0.5400470000000 1.0
C      1  0.5736320000000  0.4860720000000  0.5601750000000 1.0
C      1  0.4138610000000  0.4820950000000  0.5765760000000 1.0
C      1  0.5033170000000  0.5562580000000  0.5326810000000 1.0
C      1  0.5782420000000  0.5704520000000  0.4581620000000 1.0
C      1  0.5196320000000  0.5221810000000  0.5698160000000 1.0
C      1  0.4873690000000  0.4464040000000  0.5793690000000 1.0
C      1  0.4997330000000  0.5186660000000  0.6184640000000 1.0
C      1  0.4517180000000  0.4654570000000  0.5619930000000 1.0
C      1  0.4280360000000  0.4540460000000  0.4200810000000 1.0
C      1  0.5147860000000  0.4372590000000  0.5740150000000 1.0
C      1  0.4667430000000  0.5133010000000  0.5804870000000 1.0
C      1  0.4924290000000  0.4629110000000  0.5461730000000 1.0
C      1  0.4816900000000  0.5765720000000  0.4246580000000 1.0
C      1  0.4886990000000  0.4105070000000  0.5362040000000 1.0
C      1  0.5152070000000  0.4706520000000  0.4949180000000 1.0
C      1  0.4691400000000  0.4668910000000  0.4738090000000 1.0
C      1  0.4019140000000  0.5304090000000  0.4961300000000 1.0
C      1  0.4206900000000  0.5617850000000  0.4669830000000 1.0
C      1  0.5131810000000  0.6183350000000  0.4859290000000 1.0
C      1  0.5107010000000  0.5304310000000  0.4391060000000 1.0
END
