TITL C-951348-1603-661 1.07538713276934e-06 125000 -133.161842880273 0 0 23 (C1) n - 1
REM
REM in /home/bkarasulu/work/CARBON/AIRSS/Generating-Clusters/EDIP-Nigel-Params/with-SteepDescent/Only-C1/SD-CG/HFTN-CG
REM
REM
REM
REM
REM
REM ./C.cell (11c1c37f851c82e70ff6c80c92926a4b)
REM
REM compiler GCC version 9.2.1 20190827 (Red Hat 9.2.1-1)
REM options -cpp -mtune=generic -march=x86-64 -g -O0 -fpre-include=/usr/include/finclude/math-vector-fortran.h
REM seed -720205757 1424244664 -488784137 -1035866442 -720721550 -580650622 -186235289 -1313250941 -43763944 -524109691 -2137654489 -1336430528 -1081044416 -1525485065 -1974475723 -1489073318 68030668 97653003 -140313734 -120823106 -1831175260 768590159 1643389057 665824982 769822604 -1809554932 -837867332 -1860924448 -1568349486 -544064921 1258920219 -2110559338 -289607136
REM
CELL 1.54180   50.00000   50.00000   50.00000   90.00000   90.00000   90.00000
LATT -1
SFAC C  
C      1  0.5282170000000  0.5290320000000  0.5347980000000 1.0
C      1  0.4924910000000  0.5549590000000  0.4738280000000 1.0
C      1  0.5316870000000  0.4508190000000  0.4947970000000 1.0
C      1  0.4711140000000  0.5265530000000  0.4885640000000 1.0
C      1  0.4650420000000  0.4776230000000  0.5172490000000 1.0
C      1  0.5230380000000  0.4652910000000  0.4719810000000 1.0
C      1  0.5087460000000  0.5387210000000  0.5169370000000 1.0
C      1  0.4816660000000  0.5388070000000  0.4534110000000 1.0
C      1  0.4459440000000  0.5103190000000  0.4851850000000 1.0
C      1  0.5246510000000  0.5064960000000  0.5491230000000 1.0
C      1  0.4237140000000  0.4927210000000  0.4818720000000 1.0
C      1  0.5136740000000  0.5398830000000  0.4872160000000 1.0
C      1  0.5127210000000  0.4433560000000  0.5149330000000 1.0
C      1  0.5213970000000  0.4604640000000  0.5362650000000 1.0
C      1  0.4845470000000  0.5213330000000  0.5150000000000 1.0
C      1  0.5486230000000  0.4685120000000  0.5107930000000 1.0
C      1  0.5107550000000  0.5129100000000  0.4744930000000 1.0
C      1  0.5305330000000  0.4918430000000  0.4779350000000 1.0
C      1  0.4433920000000  0.4844160000000  0.5008650000000 1.0
C      1  0.5497850000000  0.4937660000000  0.4985070000000 1.0
C      1  0.4930160000000  0.5134410000000  0.4524500000000 1.0
C      1  0.4873210000000  0.4932430000000  0.5223900000000 1.0
C      1  0.5079250000000  0.4854930000000  0.5414090000000 1.0
END
