TITL C-950530-3293-707 -2.00648256121761e-07 125000 -220.086871643149 0 0 37 (C1) n - 1
REM
REM in /home/bkarasulu/work/CARBON/AIRSS/Generating-Clusters/EDIP-Nigel-Params/with-SteepDescent/Only-C1/SD-CG/HFTN-CG
REM
REM
REM
REM
REM
REM ./C.cell (11c1c37f851c82e70ff6c80c92926a4b)
REM
REM compiler GCC version 9.2.1 20190827 (Red Hat 9.2.1-1)
REM options -cpp -mtune=generic -march=x86-64 -g -O0 -fpre-include=/usr/include/finclude/math-vector-fortran.h
REM seed -2033001182 741671626 146447380 -1176342325 889247391 1161182721 882815332 423105072 -1877703391 -340544312 -1335422650 1593046219 1781325381 -376092964 161206702 1936831846 -1763562109 1306709610 1652409244 -1741809159 1907067520 168828369 -1672006241 275872447 -691444633 -991129229 165723846 -1087629193 1601781839 233598920 1890672836 -753294692 -475274630
REM
CELL 1.54180   50.00000   50.00000   50.00000   90.00000   90.00000   90.00000
LATT -1
SFAC C  
C      1  0.5028040000000  0.5199500000000  0.5667810000000 1.0
C      1  0.4886520000000  0.4504040000000  0.5216350000000 1.0
C      1  0.4356990000000  0.4772940000000  0.4840390000000 1.0
C      1  0.5078000000000  0.5388630000000  0.5130730000000 1.0
C      1  0.4289530000000  0.4971360000000  0.4658440000000 1.0
C      1  0.5343070000000  0.5023640000000  0.5549720000000 1.0
C      1  0.4969840000000  0.4898200000000  0.5021540000000 1.0
C      1  0.4923150000000  0.5369760000000  0.5458390000000 1.0
C      1  0.5158240000000  0.4801560000000  0.5519370000000 1.0
C      1  0.5351410000000  0.5259560000000  0.5108610000000 1.0
C      1  0.4648260000000  0.5276480000000  0.4851110000000 1.0
C      1  0.5570820000000  0.4852860000000  0.5149800000000 1.0
C      1  0.4695100000000  0.4927750000000  0.5448870000000 1.0
C      1  0.5112210000000  0.4706540000000  0.5233610000000 1.0
C      1  0.4841240000000  0.4402150000000  0.4955960000000 1.0
C      1  0.4922570000000  0.4920240000000  0.5647780000000 1.0
C      1  0.4633800000000  0.5551690000000  0.4822110000000 1.0
C      1  0.5418650000000  0.5080290000000  0.4874310000000 1.0
C      1  0.4718050000000  0.5201370000000  0.5323650000000 1.0
C      1  0.5494470000000  0.5089740000000  0.5309550000000 1.0
C      1  0.4392340000000  0.5147340000000  0.4849440000000 1.0
C      1  0.4654940000000  0.4689050000000  0.5250090000000 1.0
C      1  0.5017800000000  0.4583430000000  0.4520390000000 1.0
C      1  0.5035560000000  0.4892370000000  0.4537220000000 1.0
C      1  0.5257270000000  0.4457680000000  0.4623600000000 1.0
C      1  0.4848470000000  0.5183790000000  0.5060080000000 1.0
C      1  0.5384090000000  0.4630600000000  0.5103410000000 1.0
C      1  0.5294040000000  0.5298740000000  0.4512410000000 1.0
C      1  0.4823470000000  0.5731540000000  0.4888590000000 1.0
C      1  0.5345380000000  0.4649740000000  0.4810170000000 1.0
C      1  0.5065600000000  0.5592650000000  0.4906410000000 1.0
C      1  0.4606650000000  0.4779290000000  0.4976820000000 1.0
C      1  0.5153830000000  0.5092620000000  0.4378770000000 1.0
C      1  0.4820660000000  0.4467620000000  0.4690680000000 1.0
C      1  0.5177000000000  0.4896370000000  0.4799460000000 1.0
C      1  0.5154540000000  0.5489640000000  0.4660980000000 1.0
C      1  0.5528430000000  0.5219250000000  0.4643380000000 1.0
END
