TITL C-951347-9520-494 -1.39206747413015e-06 125000 -164.012792590945 0 0 28 (C1) n - 1
REM
REM in /home/bkarasulu/work/CARBON/AIRSS/Generating-Clusters/EDIP-Nigel-Params/with-SteepDescent/Only-C1/SD-CG/HFTN-CG
REM
REM
REM
REM
REM
REM ./C.cell (11c1c37f851c82e70ff6c80c92926a4b)
REM
REM compiler GCC version 9.2.1 20190827 (Red Hat 9.2.1-1)
REM options -cpp -mtune=generic -march=x86-64 -g -O0 -fpre-include=/usr/include/finclude/math-vector-fortran.h
REM seed -1172403655 34769131 859529691 -1826085109 744963121 1086465807 -885116982 -1674209819 2018505237 -1967796955 104631812 -1807969147 -518847979 -1107261149 -1581868788 1123010172 -1280325676 -1387925991 17454160 109864869 42523440 -1313572356 1327300967 1094647757 372400084 1733235806 -1157057106 526052953 432617243 1887343008 -1585010699 -1508547761 -1782889134
REM
CELL 1.54180   50.00000   50.00000   50.00000   90.00000   90.00000   90.00000
LATT -1
SFAC C  
C      1  0.4683400000000  0.5168860000000  0.4774750000000 1.0
C      1  0.4887000000000  0.4991730000000  0.5593840000000 1.0
C      1  0.4972570000000  0.5103500000000  0.5368050000000 1.0
C      1  0.5251000000000  0.5209540000000  0.5372240000000 1.0
C      1  0.5508720000000  0.5402600000000  0.4949060000000 1.0
C      1  0.4960720000000  0.5141610000000  0.4877600000000 1.0
C      1  0.4279300000000  0.4762860000000  0.4894200000000 1.0
C      1  0.4568230000000  0.4692150000000  0.4881240000000 1.0
C      1  0.4974500000000  0.4940480000000  0.5115020000000 1.0
C      1  0.5263190000000  0.5255800000000  0.4527630000000 1.0
C      1  0.4245090000000  0.4993660000000  0.4711960000000 1.0
C      1  0.5286730000000  0.5453090000000  0.4729560000000 1.0
C      1  0.5274110000000  0.4535970000000  0.5170800000000 1.0
C      1  0.5150850000000  0.5036110000000  0.4666120000000 1.0
C      1  0.5080700000000  0.4503860000000  0.5398080000000 1.0
C      1  0.5435760000000  0.4990350000000  0.5277150000000 1.0
C      1  0.5279600000000  0.5435170000000  0.5172210000000 1.0
C      1  0.5361700000000  0.4883010000000  0.4809550000000 1.0
C      1  0.4497390000000  0.5360070000000  0.4859280000000 1.0
C      1  0.5264300000000  0.4823890000000  0.5091500000000 1.0
C      1  0.5655630000000  0.5093860000000  0.5118840000000 1.0
C      1  0.5599970000000  0.5047960000000  0.4842890000000 1.0
C      1  0.4840870000000  0.4469250000000  0.5218180000000 1.0
C      1  0.4550040000000  0.4927960000000  0.4672700000000 1.0
C      1  0.4743580000000  0.4727510000000  0.5114860000000 1.0
C      1  0.5063130000000  0.4374460000000  0.5034420000000 1.0
C      1  0.5071840000000  0.5419430000000  0.4945470000000 1.0
C      1  0.4250070000000  0.5255260000000  0.4812800000000 1.0
END
