TITL C-951335-1172-424 -3.98035936449729e-06 125000 -752.877117063405 0 0 121 (C1) n - 1
REM
REM in /home/bkarasulu/work/CARBON/AIRSS/Generating-Clusters/EDIP-Nigel-Params/with-SteepDescent/Only-C1/SD-CG/HFTN-CG
REM
REM
REM
REM
REM
REM ./C.cell (11c1c37f851c82e70ff6c80c92926a4b)
REM
REM compiler GCC version 9.2.1 20190827 (Red Hat 9.2.1-1)
REM options -cpp -mtune=generic -march=x86-64 -g -O0 -fpre-include=/usr/include/finclude/math-vector-fortran.h
REM seed -1407332855 -1230803951 535398092 825647659 693687742 873363749 840553660 1526406271 -81329136 1554168505 1302572596 -171470620 -1036170688 -1732160589 1783323715 -1132599253 -260255365 1780240869 -1323095545 -1540950360 1777165380 1573038481 -779493810 2138100137 1927096012 1134272271 -2019334721 488485663 1984115318 -1579721046 -445281702 655773876 1387220818
REM
CELL 1.54180   50.00000   50.00000   50.00000   90.00000   90.00000   90.00000
LATT -1
SFAC C  
C      1  0.4706540000000  0.5116640000000  0.5581960000000 1.0
C      1  0.5445440000000  0.5288810000000  0.5685060000000 1.0
C      1  0.4762100000000  0.5866590000000  0.4872880000000 1.0
C      1  0.5093960000000  0.4143430000000  0.5130110000000 1.0
C      1  0.5035810000000  0.5925190000000  0.4960880000000 1.0
C      1  0.5032870000000  0.5297420000000  0.5966320000000 1.0
C      1  0.5904460000000  0.5125010000000  0.5093980000000 1.0
C      1  0.5458180000000  0.5650710000000  0.4806410000000 1.0
C      1  0.4967260000000  0.4589860000000  0.5900870000000 1.0
C      1  0.5824860000000  0.4673970000000  0.5236120000000 1.0
C      1  0.4803550000000  0.4626500000000  0.4846620000000 1.0
C      1  0.4607870000000  0.4137220000000  0.4979920000000 1.0
C      1  0.5331270000000  0.4928600000000  0.4067760000000 1.0
C      1  0.4328710000000  0.4744050000000  0.4663000000000 1.0
C      1  0.5844800000000  0.4839220000000  0.4956770000000 1.0
C      1  0.4338670000000  0.4451930000000  0.4699290000000 1.0
C      1  0.5717890000000  0.4390880000000  0.5262380000000 1.0
C      1  0.4304430000000  0.4480460000000  0.5495200000000 1.0
C      1  0.5383760000000  0.5793150000000  0.5306210000000 1.0
C      1  0.5593010000000  0.5606610000000  0.5288000000000 1.0
C      1  0.5177320000000  0.5406450000000  0.4952230000000 1.0
C      1  0.4219060000000  0.5148830000000  0.4904050000000 1.0
C      1  0.4481900000000  0.5637840000000  0.4524280000000 1.0
C      1  0.4299330000000  0.5559060000000  0.4728090000000 1.0
C      1  0.4535530000000  0.5153310000000  0.4882690000000 1.0
C      1  0.4706060000000  0.5092120000000  0.4478050000000 1.0
C      1  0.5182880000000  0.5424210000000  0.5770620000000 1.0
C      1  0.4638230000000  0.5804840000000  0.5391410000000 1.0
C      1  0.4581960000000  0.5780040000000  0.5088460000000 1.0
C      1  0.5466780000000  0.5065870000000  0.4290650000000 1.0
C      1  0.5421570000000  0.4882570000000  0.5381980000000 1.0
C      1  0.5216770000000  0.4111190000000  0.4866290000000 1.0
C      1  0.5175800000000  0.5781200000000  0.4736170000000 1.0
C      1  0.4577380000000  0.4976930000000  0.5354700000000 1.0
C      1  0.4115250000000  0.4780380000000  0.5125750000000 1.0
C      1  0.4970820000000  0.4657910000000  0.5467420000000 1.0
C      1  0.4333990000000  0.5651740000000  0.5006990000000 1.0
C      1  0.5090940000000  0.4389430000000  0.4468320000000 1.0
C      1  0.5410470000000  0.5751500000000  0.4324010000000 1.0
C      1  0.4607360000000  0.4887140000000  0.4103150000000 1.0
C      1  0.4840140000000  0.4915360000000  0.4856690000000 1.0
C      1  0.4142150000000  0.4867470000000  0.4846130000000 1.0
C      1  0.4201320000000  0.5161530000000  0.5494330000000 1.0
C      1  0.5256840000000  0.5123180000000  0.5002570000000 1.0
C      1  0.4277230000000  0.4702820000000  0.5664750000000 1.0
C      1  0.5888380000000  0.5006250000000  0.4605710000000 1.0
C      1  0.4713680000000  0.5163350000000  0.4109400000000 1.0
C      1  0.4665690000000  0.4954960000000  0.5830970000000 1.0
C      1  0.4146650000000  0.5313950000000  0.4667620000000 1.0
C      1  0.4415700000000  0.4944600000000  0.4435090000000 1.0
C      1  0.4936240000000  0.5832950000000  0.5469950000000 1.0
C      1  0.5725340000000  0.4909410000000  0.4382150000000 1.0
C      1  0.5682520000000  0.4238600000000  0.5028470000000 1.0
C      1  0.5447080000000  0.4412950000000  0.5398670000000 1.0
C      1  0.5115070000000  0.4850590000000  0.5882340000000 1.0
C      1  0.4975110000000  0.5274030000000  0.4040400000000 1.0
C      1  0.5366480000000  0.4558540000000  0.4885650000000 1.0
C      1  0.4686110000000  0.4502490000000  0.5092010000000 1.0
C      1  0.4281540000000  0.4548390000000  0.5208100000000 1.0
C      1  0.5633600000000  0.4658090000000  0.4497980000000 1.0
C      1  0.4346890000000  0.4342740000000  0.4983270000000 1.0
C      1  0.4768710000000  0.4202430000000  0.5465550000000 1.0
C      1  0.5048880000000  0.5655970000000  0.5668940000000 1.0
C      1  0.5558630000000  0.4764840000000  0.4778350000000 1.0
C      1  0.5838150000000  0.5150630000000  0.5384930000000 1.0
C      1  0.4762190000000  0.5420020000000  0.5265630000000 1.0
C      1  0.4264770000000  0.5454280000000  0.5459910000000 1.0
C      1  0.4997290000000  0.4549600000000  0.4125800000000 1.0
C      1  0.5114960000000  0.5467890000000  0.4239750000000 1.0
C      1  0.4986170000000  0.5444870000000  0.4714030000000 1.0
C      1  0.5390160000000  0.5011740000000  0.4766510000000 1.0
C      1  0.4922210000000  0.5766960000000  0.4370200000000 1.0
C      1  0.5494030000000  0.5377380000000  0.4241220000000 1.0
C      1  0.4523150000000  0.4312960000000  0.5554290000000 1.0
C      1  0.5047180000000  0.4238220000000  0.5563920000000 1.0
C      1  0.5351780000000  0.4636270000000  0.5203390000000 1.0
C      1  0.4087040000000  0.5045960000000  0.5252350000000 1.0
C      1  0.5470560000000  0.4278280000000  0.4847190000000 1.0
C      1  0.4669630000000  0.4682270000000  0.5372100000000 1.0
C      1  0.5428750000000  0.4523800000000  0.4342150000000 1.0
C      1  0.4578930000000  0.4426700000000  0.4280370000000 1.0
C      1  0.4978630000000  0.4907390000000  0.4551320000000 1.0
C      1  0.4534440000000  0.4314180000000  0.4532600000000 1.0
C      1  0.4643440000000  0.5176140000000  0.5148640000000 1.0
C      1  0.5671950000000  0.5584690000000  0.5010750000000 1.0
C      1  0.4678340000000  0.5340550000000  0.4669460000000 1.0
C      1  0.5254410000000  0.4180950000000  0.5368200000000 1.0
C      1  0.5128600000000  0.4907280000000  0.5567890000000 1.0
C      1  0.4226860000000  0.5166400000000  0.4438930000000 1.0
C      1  0.4719570000000  0.4144850000000  0.4697350000000 1.0
C      1  0.5840170000000  0.5358280000000  0.4925630000000 1.0
C      1  0.5175240000000  0.5866200000000  0.4448690000000 1.0
C      1  0.4525200000000  0.5567590000000  0.5529560000000 1.0
C      1  0.4919070000000  0.5047910000000  0.6000580000000 1.0
C      1  0.4974340000000  0.5143530000000  0.5437750000000 1.0
C      1  0.5712880000000  0.5447950000000  0.4440750000000 1.0
C      1  0.5144190000000  0.5081320000000  0.3932510000000 1.0
C      1  0.5423100000000  0.5129540000000  0.5234860000000 1.0
C      1  0.4173920000000  0.5556050000000  0.5214590000000 1.0
C      1  0.5085470000000  0.4580620000000  0.4707130000000 1.0
C      1  0.5594290000000  0.5687560000000  0.4539150000000 1.0
C      1  0.5156060000000  0.4405110000000  0.5777390000000 1.0
C      1  0.5801720000000  0.5270570000000  0.4655490000000 1.0
C      1  0.5247310000000  0.5061830000000  0.4519010000000 1.0
C      1  0.4707600000000  0.4652260000000  0.5754320000000 1.0
C      1  0.5426500000000  0.4529620000000  0.5738280000000 1.0
C      1  0.5729660000000  0.4872130000000  0.5466610000000 1.0
C      1  0.4814000000000  0.4101640000000  0.5196150000000 1.0
C      1  0.5578370000000  0.5326580000000  0.5409190000000 1.0
C      1  0.5019810000000  0.4960880000000  0.5104880000000 1.0
C      1  0.4306240000000  0.4978620000000  0.5705540000000 1.0
C      1  0.5136920000000  0.5329390000000  0.4498260000000 1.0
C      1  0.5070370000000  0.4676860000000  0.5193840000000 1.0
C      1  0.5048340000000  0.5498780000000  0.5197300000000 1.0
C      1  0.5560480000000  0.5026700000000  0.5776930000000 1.0
C      1  0.4730230000000  0.4634570000000  0.4178190000000 1.0
C      1  0.5252260000000  0.4670250000000  0.4169730000000 1.0
C      1  0.5106210000000  0.5786070000000  0.5229770000000 1.0
C      1  0.4725180000000  0.5771070000000  0.4588010000000 1.0
C      1  0.5418440000000  0.4797470000000  0.5886290000000 1.0
C      1  0.5018420000000  0.4148450000000  0.4634630000000 1.0
END
