TITL C-950534-5965-214 -1.37138571858871e-08 125000 -324.340386436709 0 0 55 (C1) n - 1
REM
REM in /home/bkarasulu/work/CARBON/AIRSS/Generating-Clusters/EDIP-Nigel-Params/with-SteepDescent/Only-C1/SD-CG/HFTN-CG
REM
REM
REM
REM
REM
REM ./C.cell (11c1c37f851c82e70ff6c80c92926a4b)
REM
REM compiler GCC version 9.2.1 20190827 (Red Hat 9.2.1-1)
REM options -cpp -mtune=generic -march=x86-64 -g -O0 -fpre-include=/usr/include/finclude/math-vector-fortran.h
REM seed -711979484 -1642140976 -1039564661 1701095063 1833717622 1822052698 -1551369665 1326917555 2142480955 2115640899 693580519 1149785912 -12224962 795480929 -1314682163 -1470765213 -1239650748 1769572870 1101681752 -743814090 783789628 -2034542916 945274546 27728290 -280714338 1606683829 803841427 -502709536 1484021218 2137952105 1821401075 1360292280 1478380112
REM
CELL 1.54180   50.00000   50.00000   50.00000   90.00000   90.00000   90.00000
LATT -1
SFAC C  
C      1  0.5164120000000  0.4372090000000  0.5209710000000 1.0
C      1  0.5024650000000  0.4408590000000  0.4569280000000 1.0
C      1  0.5218480000000  0.5315520000000  0.5656280000000 1.0
C      1  0.4850550000000  0.5555340000000  0.5378990000000 1.0
C      1  0.5642580000000  0.4946700000000  0.4594860000000 1.0
C      1  0.5052600000000  0.4684030000000  0.4588880000000 1.0
C      1  0.5890990000000  0.5345020000000  0.4496720000000 1.0
C      1  0.5125070000000  0.4838540000000  0.5650140000000 1.0
C      1  0.4381990000000  0.4946430000000  0.5721770000000 1.0
C      1  0.5327100000000  0.5273190000000  0.5167520000000 1.0
C      1  0.4338540000000  0.4904910000000  0.4761840000000 1.0
C      1  0.4652900000000  0.4963480000000  0.5675250000000 1.0
C      1  0.5563680000000  0.4935090000000  0.4881900000000 1.0
C      1  0.5212560000000  0.5936510000000  0.5010830000000 1.0
C      1  0.5080850000000  0.4856090000000  0.5207790000000 1.0
C      1  0.5553720000000  0.4459700000000  0.5013810000000 1.0
C      1  0.5544100000000  0.5214970000000  0.4971630000000 1.0
C      1  0.5155210000000  0.5297330000000  0.4654180000000 1.0
C      1  0.4535890000000  0.4748330000000  0.5175370000000 1.0
C      1  0.4710250000000  0.5506340000000  0.4719060000000 1.0
C      1  0.4806840000000  0.5171010000000  0.4326460000000 1.0
C      1  0.5465440000000  0.5340030000000  0.4713260000000 1.0
C      1  0.4731160000000  0.4613800000000  0.5326010000000 1.0
C      1  0.4837970000000  0.4770940000000  0.5567100000000 1.0
C      1  0.4565480000000  0.5434090000000  0.4972360000000 1.0
C      1  0.4524310000000  0.4454270000000  0.4818330000000 1.0
C      1  0.5607690000000  0.4784130000000  0.5367960000000 1.0
C      1  0.4191030000000  0.5074360000000  0.4927710000000 1.0
C      1  0.5089020000000  0.5105670000000  0.5095830000000 1.0
C      1  0.5003200000000  0.5476380000000  0.5585920000000 1.0
C      1  0.4431990000000  0.5036150000000  0.4525100000000 1.0
C      1  0.4914050000000  0.4205650000000  0.4708220000000 1.0
C      1  0.5374450000000  0.4693410000000  0.5549870000000 1.0
C      1  0.5017020000000  0.5091720000000  0.4820480000000 1.0
C      1  0.4752660000000  0.4317420000000  0.4908320000000 1.0
C      1  0.4841590000000  0.4858120000000  0.4704450000000 1.0
C      1  0.4317670000000  0.5313650000000  0.4933290000000 1.0
C      1  0.5000990000000  0.5557320000000  0.4704880000000 1.0
C      1  0.5649860000000  0.5230530000000  0.4507610000000 1.0
C      1  0.5640210000000  0.4722250000000  0.5077660000000 1.0
C      1  0.5259680000000  0.4644890000000  0.5273790000000 1.0
C      1  0.4437400000000  0.5350870000000  0.5423870000000 1.0
C      1  0.5481270000000  0.4807110000000  0.4412560000000 1.0
C      1  0.5393350000000  0.5289510000000  0.5441920000000 1.0
C      1  0.4625480000000  0.5366640000000  0.4477580000000 1.0
C      1  0.4557240000000  0.4734630000000  0.4884140000000 1.0
C      1  0.4613070000000  0.5484260000000  0.5256080000000 1.0
C      1  0.4338850000000  0.5104460000000  0.5499030000000 1.0
C      1  0.4883010000000  0.4428460000000  0.5146140000000 1.0
C      1  0.5171480000000  0.5076570000000  0.5796940000000 1.0
C      1  0.5107640000000  0.5151560000000  0.4386950000000 1.0
C      1  0.4688600000000  0.4932650000000  0.4452730000000 1.0
C      1  0.5098800000000  0.5746960000000  0.4881490000000 1.0
C      1  0.5202470000000  0.4847790000000  0.4393830000000 1.0
C      1  0.5353190000000  0.4274520000000  0.5026280000000 1.0
END
