TITL C-951334-9093-566 3.24513732486691e-07 125000 -680.872048482749 0 0 112 (C1) n - 1
REM
REM in /home/bkarasulu/work/CARBON/AIRSS/Generating-Clusters/EDIP-Nigel-Params/with-SteepDescent/Only-C1/SD-CG/HFTN-CG
REM
REM
REM
REM
REM
REM ./C.cell (11c1c37f851c82e70ff6c80c92926a4b)
REM
REM compiler GCC version 9.2.1 20190827 (Red Hat 9.2.1-1)
REM options -cpp -mtune=generic -march=x86-64 -g -O0 -fpre-include=/usr/include/finclude/math-vector-fortran.h
REM seed 628824419 -412408611 -405002773 769875347 -178574096 160332396 -1539440118 -1657712329 1926286201 1867865284 1685610630 -822999433 950467366 -1432472759 -696576344 -1133159953 -739646745 -480696567 1263117546 -2123597467 -1645490424 1253196864 -1302869215 1508986731 -480267119 486038453 -128507498 -1387030402 -1220147827 2046889007 -678765629 1067936488 2036407578
REM
CELL 1.54180   50.00000   50.00000   50.00000   90.00000   90.00000   90.00000
LATT -1
SFAC C  
C      1  0.5487430000000  0.5312550000000  0.5771220000000 1.0
C      1  0.4854930000000  0.4452330000000  0.5465740000000 1.0
C      1  0.5730070000000  0.5566370000000  0.5180200000000 1.0
C      1  0.4789660000000  0.5131410000000  0.5748670000000 1.0
C      1  0.4811220000000  0.4741650000000  0.5408580000000 1.0
C      1  0.4331170000000  0.4529770000000  0.4930540000000 1.0
C      1  0.4779010000000  0.5149870000000  0.4288270000000 1.0
C      1  0.4928430000000  0.5391780000000  0.4171350000000 1.0
C      1  0.4757780000000  0.4596410000000  0.5000460000000 1.0
C      1  0.4811530000000  0.5613880000000  0.5745060000000 1.0
C      1  0.5537530000000  0.4320230000000  0.5174730000000 1.0
C      1  0.4011990000000  0.4848170000000  0.4725020000000 1.0
C      1  0.5378440000000  0.4554820000000  0.4483120000000 1.0
C      1  0.5293260000000  0.5786580000000  0.4743720000000 1.0
C      1  0.5010980000000  0.5605460000000  0.4341250000000 1.0
C      1  0.5688290000000  0.4718540000000  0.4989620000000 1.0
C      1  0.4619220000000  0.5243660000000  0.5294890000000 1.0
C      1  0.5371840000000  0.4578120000000  0.5589900000000 1.0
C      1  0.5717050000000  0.4422950000000  0.4977740000000 1.0
C      1  0.4242820000000  0.5202090000000  0.5618940000000 1.0
C      1  0.5300270000000  0.4279580000000  0.4552060000000 1.0
C      1  0.5281820000000  0.5007810000000  0.4775660000000 1.0
C      1  0.4412150000000  0.4925680000000  0.4279460000000 1.0
C      1  0.4799930000000  0.5860950000000  0.4681450000000 1.0
C      1  0.4736710000000  0.5057570000000  0.4783590000000 1.0
C      1  0.5115220000000  0.5611500000000  0.5109260000000 1.0
C      1  0.5225490000000  0.4360850000000  0.5695120000000 1.0
C      1  0.4914980000000  0.5451880000000  0.4809000000000 1.0
C      1  0.5177900000000  0.5018330000000  0.5431330000000 1.0
C      1  0.4566840000000  0.4841040000000  0.4937180000000 1.0
C      1  0.4700960000000  0.4829330000000  0.5680660000000 1.0
C      1  0.4203540000000  0.4889530000000  0.5267930000000 1.0
C      1  0.5166010000000  0.4533930000000  0.5067960000000 1.0
C      1  0.4365350000000  0.4494540000000  0.5451850000000 1.0
C      1  0.5078740000000  0.4120580000000  0.4936320000000 1.0
C      1  0.4202190000000  0.4932600000000  0.5562810000000 1.0
C      1  0.4929230000000  0.5074650000000  0.5030860000000 1.0
C      1  0.4462680000000  0.5004930000000  0.5167530000000 1.0
C      1  0.5381630000000  0.4758240000000  0.4998230000000 1.0
C      1  0.3977300000000  0.5008240000000  0.5138620000000 1.0
C      1  0.4633600000000  0.4853300000000  0.4089640000000 1.0
C      1  0.5170520000000  0.5244960000000  0.4095880000000 1.0
C      1  0.5090840000000  0.5316390000000  0.5023780000000 1.0
C      1  0.5408580000000  0.5447180000000  0.5486400000000 1.0
C      1  0.5564140000000  0.5023020000000  0.5724720000000 1.0
C      1  0.4448960000000  0.4763420000000  0.4521330000000 1.0
C      1  0.5817830000000  0.5166020000000  0.5014280000000 1.0
C      1  0.5049680000000  0.4771080000000  0.3885510000000 1.0
C      1  0.5677590000000  0.5077300000000  0.4603280000000 1.0
C      1  0.5682480000000  0.4563500000000  0.4556570000000 1.0
C      1  0.5199560000000  0.5357460000000  0.5862990000000 1.0
C      1  0.5767460000000  0.4816730000000  0.4703130000000 1.0
C      1  0.5565510000000  0.4529690000000  0.5383820000000 1.0
C      1  0.5562650000000  0.5689210000000  0.5378910000000 1.0
C      1  0.4687420000000  0.4605870000000  0.4510200000000 1.0
C      1  0.5506270000000  0.5176980000000  0.5037180000000 1.0
C      1  0.5782860000000  0.5325630000000  0.4739710000000 1.0
C      1  0.4440060000000  0.5550030000000  0.4726130000000 1.0
C      1  0.5515230000000  0.5595730000000  0.4714930000000 1.0
C      1  0.5712790000000  0.4771230000000  0.5294800000000 1.0
C      1  0.4512670000000  0.4293970000000  0.4873380000000 1.0
C      1  0.5783200000000  0.4550740000000  0.4282610000000 1.0
C      1  0.5045050000000  0.5485870000000  0.5621220000000 1.0
C      1  0.5125770000000  0.4851370000000  0.5920210000000 1.0
C      1  0.4855190000000  0.5660520000000  0.5261590000000 1.0
C      1  0.4937540000000  0.5218730000000  0.5493260000000 1.0
C      1  0.4408210000000  0.5784370000000  0.5210230000000 1.0
C      1  0.4684490000000  0.5467880000000  0.5083600000000 1.0
C      1  0.5551020000000  0.4617620000000  0.4138080000000 1.0
C      1  0.5875000000000  0.5321830000000  0.5261210000000 1.0
C      1  0.4883160000000  0.4552230000000  0.4727920000000 1.0
C      1  0.5288600000000  0.5937260000000  0.4993860000000 1.0
C      1  0.4942990000000  0.4410190000000  0.5751480000000 1.0
C      1  0.4854620000000  0.4665920000000  0.4059610000000 1.0
C      1  0.4339090000000  0.5608500000000  0.4987450000000 1.0
C      1  0.4218200000000  0.4592220000000  0.5209650000000 1.0
C      1  0.5307490000000  0.4858160000000  0.5677480000000 1.0
C      1  0.4876050000000  0.4234210000000  0.4736010000000 1.0
C      1  0.5020320000000  0.4234610000000  0.4450400000000 1.0
C      1  0.4633710000000  0.5395780000000  0.5765430000000 1.0
C      1  0.5051730000000  0.5776830000000  0.4564830000000 1.0
C      1  0.4451400000000  0.5377310000000  0.5533180000000 1.0
C      1  0.4912610000000  0.5040800000000  0.4532780000000 1.0
C      1  0.5684600000000  0.5041470000000  0.5436690000000 1.0
C      1  0.5019320000000  0.5125840000000  0.5946990000000 1.0
C      1  0.5194080000000  0.4951400000000  0.4047960000000 1.0
C      1  0.5539660000000  0.5090120000000  0.4344890000000 1.0
C      1  0.5425890000000  0.5887230000000  0.5232820000000 1.0
C      1  0.5132510000000  0.5229270000000  0.4596770000000 1.0
C      1  0.4399980000000  0.4729180000000  0.5661360000000 1.0
C      1  0.4773730000000  0.5979270000000  0.4932190000000 1.0
C      1  0.5432450000000  0.4870480000000  0.4181650000000 1.0
C      1  0.4363000000000  0.5642740000000  0.5452300000000 1.0
C      1  0.4926990000000  0.4454770000000  0.4259890000000 1.0
C      1  0.4648160000000  0.4242900000000  0.5114460000000 1.0
C      1  0.5741220000000  0.4322840000000  0.4716120000000 1.0
C      1  0.5328640000000  0.4249320000000  0.4857400000000 1.0
C      1  0.4881140000000  0.4673910000000  0.5880280000000 1.0
C      1  0.4456600000000  0.5277390000000  0.4641580000000 1.0
C      1  0.4603420000000  0.4315780000000  0.5389620000000 1.0
C      1  0.4483420000000  0.5216200000000  0.4360100000000 1.0
C      1  0.3870210000000  0.5000200000000  0.4893190000000 1.0
C      1  0.5020390000000  0.4858670000000  0.5225380000000 1.0
C      1  0.5427080000000  0.5175960000000  0.5329060000000 1.0
C      1  0.5326190000000  0.5294890000000  0.4345670000000 1.0
C      1  0.5048920000000  0.4083890000000  0.5214740000000 1.0
C      1  0.4567330000000  0.5749980000000  0.4578120000000 1.0
C      1  0.4234750000000  0.4687240000000  0.4697750000000 1.0
C      1  0.5109570000000  0.4345810000000  0.5320530000000 1.0
C      1  0.4691960000000  0.5895340000000  0.5189430000000 1.0
C      1  0.5177580000000  0.4712480000000  0.4665110000000 1.0
C      1  0.5497460000000  0.5485400000000  0.4993420000000 1.0
END
