TITL C-951337-3020-35 0.000152253500326427 125000 -168.088230627935 0 0 29 (C1) n - 1
REM
REM in /home/bkarasulu/work/CARBON/AIRSS/Generating-Clusters/EDIP-Nigel-Params/with-SteepDescent/Only-C1/SD-CG/HFTN-CG
REM
REM
REM
REM
REM
REM ./C.cell (11c1c37f851c82e70ff6c80c92926a4b)
REM
REM compiler GCC version 9.2.1 20190827 (Red Hat 9.2.1-1)
REM options -cpp -mtune=generic -march=x86-64 -g -O0 -fpre-include=/usr/include/finclude/math-vector-fortran.h
REM seed 490709587 244347718 -1874932531 -829453745 -1903138354 -1062685838 -1695272620 278661284 103536370 1244927979 890774854 -927123961 1322482867 -958724633 1547121910 -1132870101 1249559825 882634536 478560745 827766307 1355566106 -1162511192 427435240 -633368094 2137116460 1024001117 -1626313079 -1766349977 -632857106 -1966962597 1904333226 1710183682 -1280406511
REM
CELL 1.54180   50.00000   50.00000   50.00000   90.00000   90.00000   90.00000
LATT -1
SFAC C  
C      1  0.4823100000000  0.4564890000000  0.5673200000000 1.0
C      1  0.4496640000000  0.5150920000000  0.5356770000000 1.0
C      1  0.5066540000000  0.4497300000000  0.5801750000000 1.0
C      1  0.5185960000000  0.5048100000000  0.5509940000000 1.0
C      1  0.4767170000000  0.4799630000000  0.5179670000000 1.0
C      1  0.5668840000000  0.4916350000000  0.4815280000000 1.0
C      1  0.4902220000000  0.4701410000000  0.4942680000000 1.0
C      1  0.4690360000000  0.5330990000000  0.5417770000000 1.0
C      1  0.5196550000000  0.4753160000000  0.4885770000000 1.0
C      1  0.4927390000000  0.5383520000000  0.5278920000000 1.0
C      1  0.4546220000000  0.5232810000000  0.4684660000000 1.0
C      1  0.4783610000000  0.4742900000000  0.4687060000000 1.0
C      1  0.5208070000000  0.5189380000000  0.4366810000000 1.0
C      1  0.5403030000000  0.5253060000000  0.4558110000000 1.0
C      1  0.5615440000000  0.5076820000000  0.4605230000000 1.0
C      1  0.4915100000000  0.4298230000000  0.5701210000000 1.0
C      1  0.5274230000000  0.5332790000000  0.4812100000000 1.0
C      1  0.4903630000000  0.5511960000000  0.5032300000000 1.0
C      1  0.4995140000000  0.5432450000000  0.4779740000000 1.0
C      1  0.4534340000000  0.4969730000000  0.5146580000000 1.0
C      1  0.4486240000000  0.5070670000000  0.4891440000000 1.0
C      1  0.4824830000000  0.5230030000000  0.4651010000000 1.0
C      1  0.4948640000000  0.4806920000000  0.4465550000000 1.0
C      1  0.4944310000000  0.5098560000000  0.4414550000000 1.0
C      1  0.4823860000000  0.4688220000000  0.5427200000000 1.0
C      1  0.5469650000000  0.4880210000000  0.5007560000000 1.0
C      1  0.5268840000000  0.5112660000000  0.5025630000000 1.0
C      1  0.5137410000000  0.5182490000000  0.5286030000000 1.0
C      1  0.5192630000000  0.4743840000000  0.4595510000000 1.0
END
