TITL C-951337-3020-66 -2.38646194655484e-06 125000 -513.795348913684 0 0 84 (C1) n - 1
REM
REM in /home/bkarasulu/work/CARBON/AIRSS/Generating-Clusters/EDIP-Nigel-Params/with-SteepDescent/Only-C1/SD-CG/HFTN-CG
REM
REM
REM
REM
REM
REM ./C.cell (11c1c37f851c82e70ff6c80c92926a4b)
REM
REM compiler GCC version 9.2.1 20190827 (Red Hat 9.2.1-1)
REM options -cpp -mtune=generic -march=x86-64 -g -O0 -fpre-include=/usr/include/finclude/math-vector-fortran.h
REM seed -524076914 1220069385 126995321 -696982430 1114493973 821903541 -1144795240 -234421032 -1338102383 889399355 1001853710 -1144836081 1009221467 -1467041291 -1531681650 -183386762 -480822940 477835052 -1874592425 714633133 726969651 -1309880331 -1421948680 -1247270 1835230615 761025460 1845454169 461479221 268132269 202930185 -489612193 1328133080 -1211243146
REM
CELL 1.54180   50.00000   50.00000   50.00000   90.00000   90.00000   90.00000
LATT -1
SFAC C  
C      1  0.4816140000000  0.5780190000000  0.4780170000000 1.0
C      1  0.5228740000000  0.5555980000000  0.5403900000000 1.0
C      1  0.5485360000000  0.4639770000000  0.4332000000000 1.0
C      1  0.4304880000000  0.5113220000000  0.5239070000000 1.0
C      1  0.5903700000000  0.5010130000000  0.4962330000000 1.0
C      1  0.4806500000000  0.4500530000000  0.4332250000000 1.0
C      1  0.5033440000000  0.5293840000000  0.5882980000000 1.0
C      1  0.5078840000000  0.4375800000000  0.4384450000000 1.0
C      1  0.5565720000000  0.5546960000000  0.4543520000000 1.0
C      1  0.5321290000000  0.5491620000000  0.5137370000000 1.0
C      1  0.5657370000000  0.5308630000000  0.4677890000000 1.0
C      1  0.4835200000000  0.4635930000000  0.4748410000000 1.0
C      1  0.4861920000000  0.5765240000000  0.5272590000000 1.0
C      1  0.4536250000000  0.4869210000000  0.5570210000000 1.0
C      1  0.5313070000000  0.5320120000000  0.4157980000000 1.0
C      1  0.5511610000000  0.4579060000000  0.5452710000000 1.0
C      1  0.4838850000000  0.5554520000000  0.4580090000000 1.0
C      1  0.5411090000000  0.5006740000000  0.4879760000000 1.0
C      1  0.4705410000000  0.4834870000000  0.4940940000000 1.0
C      1  0.5820740000000  0.5300530000000  0.4931010000000 1.0
C      1  0.5034680000000  0.4696880000000  0.5549430000000 1.0
C      1  0.4671920000000  0.5155470000000  0.4529080000000 1.0
C      1  0.5399210000000  0.5199370000000  0.5127230000000 1.0
C      1  0.5487620000000  0.4919000000000  0.4340430000000 1.0
C      1  0.5264650000000  0.5047290000000  0.4190810000000 1.0
C      1  0.5097930000000  0.5312690000000  0.5508990000000 1.0
C      1  0.4940530000000  0.4444290000000  0.5426860000000 1.0
C      1  0.5283520000000  0.5692400000000  0.4937860000000 1.0
C      1  0.4338220000000  0.4819050000000  0.4559250000000 1.0
C      1  0.5692070000000  0.4636850000000  0.5665870000000 1.0
C      1  0.5401990000000  0.4719580000000  0.4992960000000 1.0
C      1  0.5305950000000  0.4812640000000  0.5498200000000 1.0
C      1  0.4612900000000  0.4409630000000  0.4525090000000 1.0
C      1  0.4565710000000  0.5438400000000  0.4513020000000 1.0
C      1  0.5302410000000  0.4240460000000  0.4905780000000 1.0
C      1  0.4435970000000  0.4554800000000  0.4961710000000 1.0
C      1  0.5041160000000  0.4149840000000  0.4808010000000 1.0
C      1  0.5154740000000  0.5038760000000  0.4737750000000 1.0
C      1  0.5673770000000  0.5052250000000  0.4534270000000 1.0
C      1  0.4457120000000  0.4591580000000  0.5511220000000 1.0
C      1  0.4559150000000  0.5887490000000  0.4834800000000 1.0
C      1  0.5683830000000  0.5218680000000  0.5211040000000 1.0
C      1  0.4901660000000  0.4910080000000  0.5184860000000 1.0
C      1  0.4332720000000  0.5048560000000  0.5506100000000 1.0
C      1  0.4602330000000  0.4336010000000  0.5087230000000 1.0
C      1  0.4975790000000  0.5289790000000  0.4735020000000 1.0
C      1  0.5448650000000  0.5505110000000  0.4296060000000 1.0
C      1  0.4778090000000  0.5343260000000  0.5483510000000 1.0
C      1  0.4870790000000  0.4370590000000  0.4939050000000 1.0
C      1  0.5614890000000  0.4691040000000  0.5205630000000 1.0
C      1  0.5437570000000  0.5723090000000  0.4712010000000 1.0
C      1  0.4696530000000  0.5332130000000  0.5001820000000 1.0
C      1  0.5075320000000  0.4418910000000  0.5159610000000 1.0
C      1  0.4172900000000  0.4940010000000  0.5044840000000 1.0
C      1  0.4410340000000  0.4553660000000  0.4664180000000 1.0
C      1  0.4207630000000  0.4587110000000  0.5379670000000 1.0
C      1  0.4979730000000  0.4833720000000  0.5797600000000 1.0
C      1  0.4197820000000  0.4651420000000  0.5106500000000 1.0
C      1  0.4684170000000  0.5153630000000  0.5262890000000 1.0
C      1  0.4531710000000  0.4942230000000  0.4355050000000 1.0
C      1  0.5203240000000  0.5073700000000  0.5332180000000 1.0
C      1  0.4593930000000  0.5088180000000  0.4814810000000 1.0
C      1  0.5089220000000  0.5796490000000  0.5434650000000 1.0
C      1  0.4756960000000  0.5254100000000  0.5782230000000 1.0
C      1  0.5400780000000  0.4489730000000  0.4787880000000 1.0
C      1  0.5752600000000  0.4881820000000  0.4750110000000 1.0
C      1  0.5769110000000  0.4934180000000  0.5319140000000 1.0
C      1  0.4225420000000  0.5004340000000  0.4763800000000 1.0
C      1  0.4653120000000  0.5613690000000  0.5403840000000 1.0
C      1  0.5134710000000  0.4695000000000  0.5116750000000 1.0
C      1  0.5712540000000  0.4922980000000  0.5637730000000 1.0
C      1  0.4415770000000  0.5668790000000  0.4937600000000 1.0
C      1  0.5464810000000  0.5058290000000  0.5741190000000 1.0
C      1  0.5070210000000  0.4798250000000  0.4581250000000 1.0
C      1  0.5008050000000  0.4956520000000  0.4327590000000 1.0
C      1  0.4776100000000  0.4791440000000  0.4240630000000 1.0
C      1  0.5185630000000  0.5049460000000  0.5853170000000 1.0
C      1  0.5044210000000  0.4138370000000  0.4528590000000 1.0
C      1  0.4918600000000  0.5616110000000  0.5011790000000 1.0
C      1  0.5275260000000  0.4571100000000  0.4518800000000 1.0
C      1  0.4650450000000  0.4397270000000  0.5381650000000 1.0
C      1  0.4387510000000  0.5482290000000  0.4730420000000 1.0
C      1  0.4441890000000  0.5608770000000  0.5214210000000 1.0
C      1  0.4710060000000  0.4958490000000  0.5789060000000 1.0
END
