TITL C-951339-9237-57 3.16295176937777e-07 125000 -1155.00444414844 0 0 182 (C1) n - 1
REM
REM in /home/bkarasulu/work/CARBON/AIRSS/Generating-Clusters/EDIP-Nigel-Params/with-SteepDescent/Only-C1/SD-CG/HFTN-CG
REM
REM
REM
REM
REM
REM ./C.cell (11c1c37f851c82e70ff6c80c92926a4b)
REM
REM compiler GCC version 9.2.1 20190827 (Red Hat 9.2.1-1)
REM options -cpp -mtune=generic -march=x86-64 -g -O0 -fpre-include=/usr/include/finclude/math-vector-fortran.h
REM seed 896071946 388656255 2140155092 2010480533 231047735 -421616707 -230663301 -141140906 -432450897 -677862983 -295789736 1782938488 -1652268918 -1047913788 -169278757 1328712061 -666896978 -59651732 863930977 1315067765 1659723433 -882249107 1174813458 -1743338274 -1546669113 13672331 409227509 -86104680 -1346908514 -1823887811 -1559534376 -1400143202 1699128761
REM
CELL 1.54180   50.00000   50.00000   50.00000   90.00000   90.00000   90.00000
LATT -1
SFAC C  
C      1  0.5734480000000  0.5571190000000  0.5743730000000 1.0
C      1  0.4736670000000  0.4361830000000  0.4763760000000 1.0
C      1  0.5634570000000  0.5449720000000  0.4559360000000 1.0
C      1  0.5179260000000  0.3930890000000  0.5633980000000 1.0
C      1  0.5963370000000  0.4868180000000  0.5006160000000 1.0
C      1  0.4105850000000  0.4706560000000  0.4531290000000 1.0
C      1  0.3834780000000  0.5521340000000  0.4569520000000 1.0
C      1  0.4443000000000  0.5895630000000  0.5199950000000 1.0
C      1  0.5193440000000  0.4649930000000  0.4687680000000 1.0
C      1  0.5789360000000  0.4369300000000  0.4498250000000 1.0
C      1  0.5324580000000  0.3872720000000  0.5392810000000 1.0
C      1  0.4799010000000  0.5594520000000  0.5251580000000 1.0
C      1  0.4167120000000  0.4599590000000  0.4256950000000 1.0
C      1  0.5570250000000  0.4034160000000  0.5362960000000 1.0
C      1  0.6100440000000  0.5387700000000  0.5232640000000 1.0
C      1  0.4371440000000  0.4573650000000  0.5909110000000 1.0
C      1  0.4874260000000  0.4073420000000  0.4756880000000 1.0
C      1  0.5009870000000  0.4744230000000  0.4230260000000 1.0
C      1  0.4353720000000  0.4756260000000  0.4083150000000 1.0
C      1  0.5200490000000  0.4705930000000  0.4999890000000 1.0
C      1  0.5010720000000  0.4642210000000  0.5630180000000 1.0
C      1  0.4593930000000  0.4821310000000  0.4545510000000 1.0
C      1  0.6038390000000  0.4783600000000  0.5284080000000 1.0
C      1  0.4727200000000  0.4973930000000  0.4750490000000 1.0
C      1  0.5887840000000  0.4992700000000  0.5444930000000 1.0
C      1  0.5312540000000  0.5432870000000  0.5175180000000 1.0
C      1  0.5517620000000  0.4353950000000  0.5966270000000 1.0
C      1  0.4122870000000  0.4402440000000  0.5515910000000 1.0
C      1  0.4651480000000  0.3971710000000  0.4572780000000 1.0
C      1  0.4217560000000  0.4243230000000  0.4588110000000 1.0
C      1  0.5806300000000  0.4626710000000  0.4347180000000 1.0
C      1  0.4556880000000  0.4689370000000  0.5365490000000 1.0
C      1  0.4769700000000  0.4717510000000  0.3822350000000 1.0
C      1  0.5532850000000  0.4206340000000  0.4461740000000 1.0
C      1  0.4306880000000  0.4916750000000  0.4612980000000 1.0
C      1  0.4405970000000  0.4072300000000  0.4738460000000 1.0
C      1  0.4496530000000  0.4961400000000  0.4952990000000 1.0
C      1  0.5437070000000  0.4749100000000  0.5292720000000 1.0
C      1  0.4891300000000  0.6006300000000  0.5440120000000 1.0
C      1  0.5598610000000  0.4961760000000  0.4698880000000 1.0
C      1  0.4502210000000  0.5167700000000  0.5171500000000 1.0
C      1  0.4980940000000  0.5046010000000  0.4243880000000 1.0
C      1  0.5074340000000  0.5397230000000  0.5625000000000 1.0
C      1  0.4782620000000  0.5616410000000  0.4810710000000 1.0
C      1  0.5000050000000  0.4549060000000  0.4457350000000 1.0
C      1  0.5255160000000  0.5567140000000  0.5815030000000 1.0
C      1  0.5657530000000  0.4057120000000  0.5069720000000 1.0
C      1  0.4080650000000  0.5552080000000  0.5281450000000 1.0
C      1  0.5440670000000  0.5244400000000  0.5364410000000 1.0
C      1  0.4750650000000  0.5315120000000  0.4415030000000 1.0
C      1  0.4857060000000  0.5285650000000  0.5829350000000 1.0
C      1  0.5370930000000  0.4102080000000  0.4681460000000 1.0
C      1  0.4498520000000  0.4677130000000  0.5064580000000 1.0
C      1  0.5817040000000  0.4576410000000  0.5666680000000 1.0
C      1  0.5012450000000  0.4574960000000  0.3775170000000 1.0
C      1  0.4123770000000  0.5754560000000  0.4841100000000 1.0
C      1  0.5025200000000  0.5173830000000  0.6048250000000 1.0
C      1  0.6034010000000  0.5255670000000  0.5464320000000 1.0
C      1  0.5082490000000  0.4296100000000  0.5326150000000 1.0
C      1  0.3836330000000  0.5134650000000  0.4850010000000 1.0
C      1  0.4399320000000  0.5080180000000  0.5696560000000 1.0
C      1  0.5150150000000  0.4996880000000  0.5062580000000 1.0
C      1  0.4375930000000  0.5591060000000  0.4151340000000 1.0
C      1  0.4606190000000  0.5833300000000  0.4330970000000 1.0
C      1  0.5050640000000  0.4247040000000  0.4353050000000 1.0
C      1  0.5005900000000  0.4885070000000  0.6073230000000 1.0
C      1  0.4886150000000  0.6066650000000  0.4618150000000 1.0
C      1  0.6008790000000  0.5516360000000  0.5007930000000 1.0
C      1  0.5311630000000  0.5858890000000  0.4487450000000 1.0
C      1  0.4612790000000  0.6073990000000  0.4519950000000 1.0
C      1  0.4744610000000  0.4122020000000  0.4302220000000 1.0
C      1  0.4862620000000  0.5579340000000  0.4020460000000 1.0
C      1  0.5052420000000  0.5957840000000  0.4395530000000 1.0
C      1  0.4830980000000  0.4794940000000  0.5853440000000 1.0
C      1  0.4935900000000  0.3926370000000  0.5027600000000 1.0
C      1  0.4610710000000  0.5562160000000  0.4529600000000 1.0
C      1  0.5779120000000  0.4990730000000  0.5944760000000 1.0
C      1  0.4360590000000  0.4099320000000  0.5092370000000 1.0
C      1  0.6021130000000  0.4701280000000  0.4770980000000 1.0
C      1  0.4887860000000  0.4745170000000  0.5376600000000 1.0
C      1  0.5117100000000  0.5377950000000  0.6226080000000 1.0
C      1  0.4052270000000  0.4783830000000  0.5095010000000 1.0
C      1  0.5618500000000  0.5773550000000  0.5563340000000 1.0
C      1  0.4043560000000  0.5304250000000  0.5428300000000 1.0
C      1  0.5959740000000  0.5426650000000  0.5667440000000 1.0
C      1  0.4443490000000  0.6088860000000  0.4737340000000 1.0
C      1  0.5243000000000  0.4730300000000  0.6070420000000 1.0
C      1  0.4641370000000  0.5408050000000  0.5103090000000 1.0
C      1  0.5328200000000  0.4711060000000  0.5607410000000 1.0
C      1  0.4313110000000  0.5697770000000  0.5388030000000 1.0
C      1  0.4121770000000  0.4482660000000  0.4724720000000 1.0
C      1  0.6065330000000  0.5397160000000  0.4763590000000 1.0
C      1  0.5308440000000  0.4949760000000  0.3919500000000 1.0
C      1  0.5895220000000  0.4536320000000  0.5385770000000 1.0
C      1  0.4170460000000  0.4315470000000  0.5199850000000 1.0
C      1  0.4205350000000  0.4546150000000  0.5009990000000 1.0
C      1  0.4636360000000  0.4624550000000  0.5968030000000 1.0
C      1  0.4699820000000  0.4535480000000  0.4515870000000 1.0
C      1  0.5335680000000  0.5814850000000  0.5653930000000 1.0
C      1  0.5339800000000  0.4256810000000  0.4236690000000 1.0
C      1  0.5658300000000  0.5777100000000  0.4764880000000 1.0
C      1  0.4785660000000  0.5620770000000  0.6003940000000 1.0
C      1  0.5114600000000  0.5421140000000  0.4001890000000 1.0
C      1  0.4895990000000  0.5193310000000  0.4635300000000 1.0
C      1  0.5178670000000  0.4678490000000  0.3991130000000 1.0
C      1  0.5884020000000  0.4424430000000  0.4778620000000 1.0
C      1  0.5023150000000  0.5009340000000  0.5325030000000 1.0
C      1  0.4986910000000  0.4351870000000  0.5595190000000 1.0
C      1  0.5858370000000  0.4860340000000  0.5709930000000 1.0
C      1  0.5108140000000  0.4079090000000  0.4584910000000 1.0
C      1  0.5087660000000  0.4160280000000  0.5775800000000 1.0
C      1  0.4700370000000  0.5047470000000  0.5731840000000 1.0
C      1  0.5630520000000  0.4496220000000  0.5246970000000 1.0
C      1  0.5405400000000  0.4785890000000  0.4550060000000 1.0
C      1  0.4576600000000  0.4162630000000  0.5282960000000 1.0
C      1  0.4742490000000  0.4518230000000  0.4998980000000 1.0
C      1  0.5707410000000  0.5794200000000  0.5289590000000 1.0
C      1  0.5074690000000  0.4246410000000  0.6045450000000 1.0
C      1  0.4286760000000  0.4327840000000  0.4312370000000 1.0
C      1  0.4552570000000  0.5164990000000  0.3913960000000 1.0
C      1  0.4232360000000  0.4810450000000  0.5789140000000 1.0
C      1  0.5684140000000  0.4345520000000  0.4990310000000 1.0
C      1  0.5437930000000  0.3943560000000  0.4913740000000 1.0
C      1  0.5913880000000  0.5348350000000  0.4535100000000 1.0
C      1  0.5394680000000  0.5913310000000  0.4754890000000 1.0
C      1  0.4292350000000  0.5120910000000  0.5395820000000 1.0
C      1  0.5438440000000  0.5223820000000  0.4665120000000 1.0
C      1  0.5878950000000  0.4853590000000  0.4537620000000 1.0
C      1  0.4744960000000  0.5883810000000  0.5201820000000 1.0
C      1  0.4036390000000  0.5539350000000  0.4996440000000 1.0
C      1  0.5223780000000  0.3879950000000  0.5105380000000 1.0
C      1  0.5296390000000  0.5969730000000  0.5204980000000 1.0
C      1  0.4296140000000  0.5364520000000  0.5785650000000 1.0
C      1  0.3840530000000  0.5409430000000  0.4830080000000 1.0
C      1  0.4989610000000  0.4551250000000  0.5162240000000 1.0
C      1  0.5695290000000  0.4978160000000  0.4988330000000 1.0
C      1  0.4195350000000  0.4840760000000  0.5346190000000 1.0
C      1  0.4426180000000  0.5604240000000  0.5653510000000 1.0
C      1  0.5801960000000  0.5719430000000  0.5030760000000 1.0
C      1  0.5789230000000  0.5856530000000  0.4510650000000 1.0
C      1  0.4351390000000  0.5905830000000  0.4920870000000 1.0
C      1  0.5539110000000  0.4960360000000  0.4115410000000 1.0
C      1  0.5781740000000  0.5104800000000  0.4137650000000 1.0
C      1  0.4071150000000  0.4699620000000  0.5566590000000 1.0
C      1  0.5075130000000  0.5611040000000  0.6062550000000 1.0
C      1  0.4643640000000  0.5745910000000  0.5790500000000 1.0
C      1  0.5944110000000  0.5103370000000  0.4372130000000 1.0
C      1  0.5401200000000  0.4503550000000  0.4095830000000 1.0
C      1  0.5520240000000  0.5423970000000  0.5877810000000 1.0
C      1  0.5257840000000  0.5430840000000  0.4263980000000 1.0
C      1  0.4304430000000  0.5534170000000  0.4432500000000 1.0
C      1  0.5234040000000  0.5267800000000  0.4938550000000 1.0
C      1  0.5275730000000  0.4443300000000  0.6063650000000 1.0
C      1  0.5535490000000  0.4474010000000  0.5702560000000 1.0
C      1  0.4985110000000  0.5392040000000  0.4822940000000 1.0
C      1  0.4868780000000  0.5817480000000  0.4202990000000 1.0
C      1  0.5225580000000  0.5173710000000  0.4424270000000 1.0
C      1  0.4022700000000  0.5360420000000  0.5706080000000 1.0
C      1  0.5310930000000  0.4976470000000  0.5777720000000 1.0
C      1  0.5532580000000  0.4709740000000  0.4277380000000 1.0
C      1  0.5547540000000  0.5129530000000  0.5873380000000 1.0
C      1  0.4861190000000  0.4083190000000  0.5261570000000 1.0
C      1  0.4593320000000  0.5439300000000  0.4021230000000 1.0
C      1  0.5532020000000  0.5531010000000  0.4283270000000 1.0
C      1  0.4075620000000  0.5673870000000  0.4561120000000 1.0
C      1  0.5560890000000  0.5819120000000  0.4332390000000 1.0
C      1  0.4754940000000  0.5971540000000  0.5676720000000 1.0
C      1  0.5154920000000  0.5853490000000  0.5420660000000 1.0
C      1  0.4580310000000  0.4377970000000  0.4268240000000 1.0
C      1  0.4065950000000  0.4988010000000  0.4897500000000 1.0
C      1  0.5608120000000  0.5006770000000  0.5273100000000 1.0
C      1  0.4793200000000  0.5021430000000  0.3827650000000 1.0
C      1  0.4906690000000  0.5905250000000  0.4885330000000 1.0
C      1  0.4343130000000  0.4338480000000  0.5729030000000 1.0
C      1  0.5207540000000  0.5147240000000  0.5528260000000 1.0
C      1  0.5200320000000  0.5893410000000  0.4957090000000 1.0
C      1  0.5079310000000  0.5562530000000  0.5349350000000 1.0
C      1  0.4503440000000  0.4395110000000  0.5464230000000 1.0
C      1  0.4576400000000  0.4586820000000  0.4010370000000 1.0
C      1  0.5446690000000  0.4301820000000  0.5417160000000 1.0
C      1  0.5055230000000  0.5125700000000  0.3958970000000 1.0
C      1  0.4322650000000  0.5007670000000  0.3958230000000 1.0
END
