TITL C-951333-8791-582 1.81290815558313e-07 125000 -1152.38914698723 0 0 183 (C1) n - 1
REM
REM in /home/bkarasulu/work/CARBON/AIRSS/Generating-Clusters/EDIP-Nigel-Params/with-SteepDescent/Only-C1/SD-CG/HFTN-CG
REM
REM
REM
REM
REM
REM ./C.cell (11c1c37f851c82e70ff6c80c92926a4b)
REM
REM compiler GCC version 9.2.1 20190827 (Red Hat 9.2.1-1)
REM options -cpp -mtune=generic -march=x86-64 -g -O0 -fpre-include=/usr/include/finclude/math-vector-fortran.h
REM seed -1391110970 1803973296 -1209421544 -1694046089 1910989293 336801619 -994826504 1150235316 -1599368606 539900205 -1588801294 1255150611 -1172753646 -440812722 -2029783680 -1391736104 -1421226606 664800086 637060063 575511523 895477223 -781873734 -328778530 2133197102 2025878312 -467280563 -1153663968 -2135141274 -1790625510 188399742 -682440055 -1480729897 1778525744
REM
CELL 1.54180   50.00000   50.00000   50.00000   90.00000   90.00000   90.00000
LATT -1
SFAC C  
C      1  0.4966710000000  0.5081480000000  0.5476720000000 1.0
C      1  0.5007200000000  0.5965770000000  0.4355400000000 1.0
C      1  0.4009030000000  0.4605040000000  0.4777540000000 1.0
C      1  0.4356900000000  0.5769860000000  0.5185380000000 1.0
C      1  0.5561920000000  0.5956890000000  0.4865200000000 1.0
C      1  0.4673680000000  0.5337610000000  0.5073510000000 1.0
C      1  0.5814640000000  0.5666380000000  0.4646980000000 1.0
C      1  0.5240860000000  0.5836950000000  0.4468210000000 1.0
C      1  0.4901410000000  0.5337130000000  0.5609710000000 1.0
C      1  0.5159120000000  0.4137670000000  0.4330640000000 1.0
C      1  0.4965050000000  0.4535670000000  0.4487780000000 1.0
C      1  0.4193000000000  0.4483920000000  0.5539800000000 1.0
C      1  0.5803760000000  0.5936750000000  0.4725060000000 1.0
C      1  0.5468710000000  0.5345560000000  0.5503190000000 1.0
C      1  0.5578250000000  0.6005710000000  0.5150600000000 1.0
C      1  0.4704190000000  0.5739760000000  0.5804630000000 1.0
C      1  0.5689460000000  0.5593630000000  0.4388180000000 1.0
C      1  0.5700060000000  0.4941610000000  0.4068850000000 1.0
C      1  0.5816870000000  0.4188170000000  0.4768520000000 1.0
C      1  0.5054610000000  0.5942020000000  0.4866330000000 1.0
C      1  0.6049690000000  0.4908360000000  0.5559850000000 1.0
C      1  0.5899680000000  0.5158200000000  0.4439970000000 1.0
C      1  0.5259120000000  0.4324940000000  0.4110340000000 1.0
C      1  0.4107950000000  0.5404590000000  0.5360620000000 1.0
C      1  0.4818120000000  0.4690320000000  0.5738770000000 1.0
C      1  0.5164230000000  0.4154860000000  0.5323890000000 1.0
C      1  0.4814250000000  0.5058790000000  0.6048140000000 1.0
C      1  0.4128240000000  0.4465210000000  0.5242550000000 1.0
C      1  0.5337400000000  0.4783000000000  0.3768600000000 1.0
C      1  0.5081860000000  0.4745990000000  0.3875250000000 1.0
C      1  0.4628950000000  0.6087090000000  0.4956530000000 1.0
C      1  0.5936100000000  0.4426070000000  0.4902660000000 1.0
C      1  0.5449310000000  0.4740080000000  0.4681180000000 1.0
C      1  0.5461120000000  0.4135230000000  0.5277580000000 1.0
C      1  0.5606870000000  0.4265680000000  0.4562110000000 1.0
C      1  0.5113210000000  0.5835670000000  0.5151330000000 1.0
C      1  0.5208630000000  0.4862920000000  0.4892150000000 1.0
C      1  0.4309520000000  0.4303070000000  0.4511500000000 1.0
C      1  0.5311140000000  0.5987870000000  0.4718840000000 1.0
C      1  0.5864710000000  0.4900160000000  0.4308330000000 1.0
C      1  0.5558140000000  0.5747740000000  0.5841410000000 1.0
C      1  0.5574450000000  0.4094920000000  0.4979600000000 1.0
C      1  0.6048570000000  0.4968620000000  0.5175560000000 1.0
C      1  0.4389590000000  0.5023700000000  0.4735140000000 1.0
C      1  0.4358510000000  0.5833430000000  0.4711020000000 1.0
C      1  0.4828400000000  0.4983350000000  0.4422030000000 1.0
C      1  0.4488470000000  0.4085840000000  0.4634760000000 1.0
C      1  0.4924950000000  0.5444160000000  0.4673180000000 1.0
C      1  0.5325110000000  0.5264940000000  0.5771190000000 1.0
C      1  0.5373930000000  0.4747260000000  0.5607820000000 1.0
C      1  0.4667000000000  0.4394690000000  0.4939790000000 1.0
C      1  0.5329550000000  0.5995450000000  0.5302750000000 1.0
C      1  0.5926980000000  0.5447780000000  0.4824270000000 1.0
C      1  0.4398540000000  0.4584220000000  0.4392110000000 1.0
C      1  0.5458280000000  0.4452010000000  0.4736000000000 1.0
C      1  0.5248060000000  0.4390080000000  0.4917320000000 1.0
C      1  0.4429610000000  0.5222310000000  0.5209620000000 1.0
C      1  0.5148320000000  0.5528460000000  0.5921790000000 1.0
C      1  0.5002950000000  0.4866710000000  0.5912090000000 1.0
C      1  0.4741370000000  0.5279860000000  0.4489280000000 1.0
C      1  0.5185760000000  0.5094850000000  0.4682480000000 1.0
C      1  0.4315450000000  0.5008080000000  0.5029340000000 1.0
C      1  0.5259430000000  0.4694920000000  0.4421100000000 1.0
C      1  0.5494380000000  0.4859010000000  0.6036360000000 1.0
C      1  0.4082170000000  0.5117140000000  0.5883070000000 1.0
C      1  0.5787910000000  0.5013420000000  0.5661250000000 1.0
C      1  0.4297220000000  0.5451080000000  0.4452270000000 1.0
C      1  0.4178480000000  0.4763390000000  0.4315370000000 1.0
C      1  0.4777940000000  0.5687190000000  0.4758560000000 1.0
C      1  0.4522670000000  0.4135170000000  0.4958020000000 1.0
C      1  0.4374470000000  0.5456790000000  0.6011140000000 1.0
C      1  0.4603200000000  0.4607890000000  0.4172850000000 1.0
C      1  0.5261830000000  0.5373510000000  0.5280440000000 1.0
C      1  0.4719260000000  0.3964100000000  0.5121940000000 1.0
C      1  0.5471680000000  0.5207460000000  0.4706720000000 1.0
C      1  0.5953280000000  0.5170020000000  0.4720290000000 1.0
C      1  0.5710170000000  0.5500510000000  0.5833780000000 1.0
C      1  0.4196470000000  0.4984020000000  0.5653890000000 1.0
C      1  0.4728410000000  0.5457250000000  0.4139100000000 1.0
C      1  0.5319040000000  0.4661700000000  0.5321740000000 1.0
C      1  0.4425380000000  0.4695420000000  0.5954980000000 1.0
C      1  0.3979520000000  0.4680110000000  0.5059610000000 1.0
C      1  0.4342220000000  0.4055010000000  0.5400770000000 1.0
C      1  0.5034010000000  0.4481030000000  0.4000020000000 1.0
C      1  0.4714110000000  0.4906940000000  0.5490700000000 1.0
C      1  0.3949700000000  0.5161520000000  0.5311180000000 1.0
C      1  0.5823500000000  0.5490780000000  0.5568170000000 1.0
C      1  0.5800880000000  0.5892640000000  0.5279510000000 1.0
C      1  0.5640000000000  0.5113210000000  0.5426310000000 1.0
C      1  0.4929300000000  0.5195450000000  0.4966950000000 1.0
C      1  0.4790630000000  0.4761290000000  0.4608300000000 1.0
C      1  0.5588340000000  0.5211710000000  0.5921980000000 1.0
C      1  0.4036820000000  0.4814310000000  0.4565140000000 1.0
C      1  0.4756530000000  0.4055790000000  0.4500230000000 1.0
C      1  0.5690360000000  0.4447040000000  0.4345510000000 1.0
C      1  0.4450370000000  0.5505410000000  0.5524270000000 1.0
C      1  0.5612040000000  0.5004820000000  0.4942000000000 1.0
C      1  0.4254640000000  0.4194310000000  0.5145970000000 1.0
C      1  0.5376130000000  0.5301240000000  0.3960500000000 1.0
C      1  0.5829810000000  0.4306610000000  0.5582010000000 1.0
C      1  0.5847740000000  0.4491600000000  0.5372950000000 1.0
C      1  0.4597990000000  0.5804670000000  0.4535050000000 1.0
C      1  0.5236990000000  0.4705820000000  0.6048130000000 1.0
C      1  0.5455250000000  0.5747380000000  0.4260520000000 1.0
C      1  0.5283230000000  0.5586240000000  0.4055080000000 1.0
C      1  0.4517940000000  0.5611180000000  0.4299740000000 1.0
C      1  0.5578870000000  0.4183540000000  0.5545990000000 1.0
C      1  0.4251910000000  0.4707350000000  0.5718860000000 1.0
C      1  0.4942590000000  0.4244750000000  0.4633470000000 1.0
C      1  0.3948530000000  0.5214910000000  0.4836350000000 1.0
C      1  0.4112880000000  0.5238720000000  0.4342340000000 1.0
C      1  0.4625990000000  0.3961720000000  0.5400890000000 1.0
C      1  0.5186010000000  0.5541170000000  0.4554620000000 1.0
C      1  0.5039650000000  0.5443550000000  0.4207400000000 1.0
C      1  0.4437290000000  0.4570130000000  0.4880900000000 1.0
C      1  0.4766690000000  0.5301980000000  0.5877750000000 1.0
C      1  0.4836550000000  0.4442610000000  0.4216400000000 1.0
C      1  0.4692040000000  0.4896680000000  0.4157650000000 1.0
C      1  0.4760670000000  0.5595070000000  0.5520710000000 1.0
C      1  0.5440800000000  0.4545460000000  0.4201900000000 1.0
C      1  0.5512280000000  0.4734630000000  0.3982140000000 1.0
C      1  0.4645740000000  0.5256560000000  0.3928880000000 1.0
C      1  0.5788630000000  0.5139550000000  0.5169940000000 1.0
C      1  0.6035780000000  0.4924070000000  0.4866470000000 1.0
C      1  0.5833220000000  0.4668320000000  0.4471020000000 1.0
C      1  0.5007790000000  0.4024220000000  0.5105070000000 1.0
C      1  0.4431690000000  0.4756020000000  0.5114170000000 1.0
C      1  0.4151780000000  0.4357500000000  0.4748750000000 1.0
C      1  0.5519850000000  0.4694890000000  0.5091740000000 1.0
C      1  0.5134320000000  0.5156920000000  0.4120510000000 1.0
C      1  0.4411990000000  0.5092310000000  0.3973090000000 1.0
C      1  0.5082250000000  0.4460580000000  0.5344740000000 1.0
C      1  0.4835500000000  0.6125650000000  0.4774360000000 1.0
C      1  0.4780850000000  0.4149720000000  0.4231070000000 1.0
C      1  0.4579400000000  0.4249080000000  0.5779430000000 1.0
C      1  0.4167190000000  0.5630830000000  0.4647360000000 1.0
C      1  0.5621700000000  0.4799300000000  0.5778870000000 1.0
C      1  0.6048590000000  0.4703610000000  0.5356650000000 1.0
C      1  0.4481470000000  0.5300830000000  0.4642810000000 1.0
C      1  0.4997570000000  0.4489220000000  0.5633680000000 1.0
C      1  0.5174190000000  0.4993760000000  0.5688710000000 1.0
C      1  0.4417020000000  0.5638840000000  0.5800660000000 1.0
C      1  0.4307740000000  0.5185200000000  0.6037770000000 1.0
C      1  0.4838700000000  0.5791230000000  0.5292940000000 1.0
C      1  0.5652980000000  0.5303930000000  0.4375520000000 1.0
C      1  0.5251890000000  0.5568180000000  0.5066610000000 1.0
C      1  0.4773870000000  0.6044540000000  0.4492280000000 1.0
C      1  0.5099780000000  0.5142020000000  0.5210820000000 1.0
C      1  0.4503130000000  0.4742130000000  0.4643340000000 1.0
C      1  0.5624400000000  0.5224480000000  0.4087190000000 1.0
C      1  0.4090190000000  0.5472780000000  0.4874690000000 1.0
C      1  0.4517660000000  0.4971580000000  0.6040270000000 1.0
C      1  0.4786610000000  0.4102070000000  0.5612090000000 1.0
C      1  0.4693530000000  0.4773800000000  0.5228200000000 1.0
C      1  0.5125640000000  0.4133210000000  0.4857970000000 1.0
C      1  0.4463610000000  0.5119910000000  0.5513030000000 1.0
C      1  0.4169480000000  0.5568870000000  0.5135160000000 1.0
C      1  0.5383140000000  0.5984950000000  0.5587230000000 1.0
C      1  0.4917970000000  0.4996650000000  0.3950260000000 1.0
C      1  0.5055810000000  0.4608190000000  0.4923810000000 1.0
C      1  0.5404860000000  0.4041560000000  0.4489980000000 1.0
C      1  0.4273110000000  0.5028350000000  0.4216750000000 1.0
C      1  0.5296760000000  0.5773040000000  0.5957530000000 1.0
C      1  0.4601180000000  0.5905400000000  0.5166270000000 1.0
C      1  0.5955650000000  0.4668690000000  0.4737810000000 1.0
C      1  0.5100700000000  0.4058400000000  0.5606330000000 1.0
C      1  0.5195100000000  0.5993690000000  0.5801830000000 1.0
C      1  0.5713420000000  0.4438070000000  0.5113690000000 1.0
C      1  0.5356390000000  0.4213030000000  0.5746940000000 1.0
C      1  0.4858730000000  0.5558520000000  0.5994020000000 1.0
C      1  0.5867600000000  0.5622490000000  0.5317160000000 1.0
C      1  0.4855250000000  0.4543660000000  0.5133160000000 1.0
C      1  0.5355210000000  0.3968580000000  0.4777440000000 1.0
C      1  0.5136860000000  0.4987650000000  0.4394980000000 1.0
C      1  0.5849280000000  0.5427380000000  0.5102850000000 1.0
C      1  0.5361160000000  0.5481970000000  0.4792600000000 1.0
C      1  0.4647030000000  0.4513900000000  0.5911350000000 1.0
C      1  0.4314260000000  0.4235730000000  0.5634290000000 1.0
C      1  0.4010770000000  0.5010870000000  0.5060450000000 1.0
C      1  0.3935690000000  0.5003530000000  0.5538440000000 1.0
C      1  0.3954810000000  0.5098440000000  0.4563590000000 1.0
C      1  0.4529130000000  0.5521680000000  0.4880970000000 1.0
C      1  0.5252690000000  0.4507350000000  0.5782550000000 1.0
END
