TITL C-951346-9544-37 -3.35502117508786e-06 125000 -486.092671992224 0 0 79 (C1) n - 1
REM
REM in /home/bkarasulu/work/CARBON/AIRSS/Generating-Clusters/EDIP-Nigel-Params/with-SteepDescent/Only-C1/SD-CG/HFTN-CG
REM
REM
REM
REM
REM
REM ./C.cell (11c1c37f851c82e70ff6c80c92926a4b)
REM
REM compiler GCC version 9.2.1 20190827 (Red Hat 9.2.1-1)
REM options -cpp -mtune=generic -march=x86-64 -g -O0 -fpre-include=/usr/include/finclude/math-vector-fortran.h
REM seed 735304591 228227780 391185654 307879142 1979399714 -527629947 469462630 -419513994 -1647582591 -763655788 -1111876614 1457952058 -1168469904 -1170602992 219093988 231530704 -389207786 1660564202 -2024012497 -1003044475 -486143571 -954780758 -742521144 673855295 376139157 1459156997 1609780087 529944312 -1900270077 -908992136 -1142268483 12248109 1668156433
REM
CELL 1.54180   50.00000   50.00000   50.00000   90.00000   90.00000   90.00000
LATT -1
SFAC C  
C      1  0.5347330000000  0.5174330000000  0.4519190000000 1.0
C      1  0.4858830000000  0.5742890000000  0.4573780000000 1.0
C      1  0.4965060000000  0.4356440000000  0.4660250000000 1.0
C      1  0.4723680000000  0.5561410000000  0.4387260000000 1.0
C      1  0.4263650000000  0.4854650000000  0.4990060000000 1.0
C      1  0.4951180000000  0.5643470000000  0.5361160000000 1.0
C      1  0.4521760000000  0.4277240000000  0.5368720000000 1.0
C      1  0.5555690000000  0.5077230000000  0.5073490000000 1.0
C      1  0.4559550000000  0.5631980000000  0.5106220000000 1.0
C      1  0.4704710000000  0.5059840000000  0.4965420000000 1.0
C      1  0.4365410000000  0.5080660000000  0.5160570000000 1.0
C      1  0.5308160000000  0.5126130000000  0.5480890000000 1.0
C      1  0.5296400000000  0.5944860000000  0.5135410000000 1.0
C      1  0.5357480000000  0.4837470000000  0.5075410000000 1.0
C      1  0.5559150000000  0.5320920000000  0.4670030000000 1.0
C      1  0.5200120000000  0.4756410000000  0.5857790000000 1.0
C      1  0.5471230000000  0.5672100000000  0.4786430000000 1.0
C      1  0.5131660000000  0.5077440000000  0.4733240000000 1.0
C      1  0.4222770000000  0.5328760000000  0.5110330000000 1.0
C      1  0.4873810000000  0.4690190000000  0.4391060000000 1.0
C      1  0.5249430000000  0.5849730000000  0.4870760000000 1.0
C      1  0.4404680000000  0.5459300000000  0.4938850000000 1.0
C      1  0.4714300000000  0.4233200000000  0.5169430000000 1.0
C      1  0.5176730000000  0.4972660000000  0.4094540000000 1.0
C      1  0.5583500000000  0.5007910000000  0.5511960000000 1.0
C      1  0.5141490000000  0.4718370000000  0.4476610000000 1.0
C      1  0.5250850000000  0.5363750000000  0.4321340000000 1.0
C      1  0.5373650000000  0.5313100000000  0.5111670000000 1.0
C      1  0.5423810000000  0.5727010000000  0.5260570000000 1.0
C      1  0.4725710000000  0.5221800000000  0.5526130000000 1.0
C      1  0.5636320000000  0.4590330000000  0.4838100000000 1.0
C      1  0.5574440000000  0.4716330000000  0.5505270000000 1.0
C      1  0.4745090000000  0.4673500000000  0.5679920000000 1.0
C      1  0.4568410000000  0.4756810000000  0.5474360000000 1.0
C      1  0.5200550000000  0.4471870000000  0.5488460000000 1.0
C      1  0.5534820000000  0.4615800000000  0.5210550000000 1.0
C      1  0.5258970000000  0.4663970000000  0.4767060000000 1.0
C      1  0.5147340000000  0.5270110000000  0.5805300000000 1.0
C      1  0.4837740000000  0.4111520000000  0.4722210000000 1.0
C      1  0.5163470000000  0.4345530000000  0.5062580000000 1.0
C      1  0.4829030000000  0.4577530000000  0.4840720000000 1.0
C      1  0.5229370000000  0.5547890000000  0.5405980000000 1.0
C      1  0.4791010000000  0.5251810000000  0.4314920000000 1.0
C      1  0.4413260000000  0.4638450000000  0.4570440000000 1.0
C      1  0.4570670000000  0.5263700000000  0.4780260000000 1.0
C      1  0.4825330000000  0.5364130000000  0.4638200000000 1.0
C      1  0.5211250000000  0.4243050000000  0.4794320000000 1.0
C      1  0.5320160000000  0.4809960000000  0.4274900000000 1.0
C      1  0.4391930000000  0.5123710000000  0.4578690000000 1.0
C      1  0.4979720000000  0.5723780000000  0.4838850000000 1.0
C      1  0.4368370000000  0.4594220000000  0.5050050000000 1.0
C      1  0.5064410000000  0.5215530000000  0.4181440000000 1.0
C      1  0.4915380000000  0.5196250000000  0.5131310000000 1.0
C      1  0.4513480000000  0.5037400000000  0.5424660000000 1.0
C      1  0.4602010000000  0.4757810000000  0.4366140000000 1.0
C      1  0.4983930000000  0.4666270000000  0.5377920000000 1.0
C      1  0.5366330000000  0.4600680000000  0.5690010000000 1.0
C      1  0.4268990000000  0.4874980000000  0.4689230000000 1.0
C      1  0.5296860000000  0.5463540000000  0.5672380000000 1.0
C      1  0.5570530000000  0.4893020000000  0.4389990000000 1.0
C      1  0.4714560000000  0.5517930000000  0.5505040000000 1.0
C      1  0.4439090000000  0.4542540000000  0.5327190000000 1.0
C      1  0.5538640000000  0.5559560000000  0.5045790000000 1.0
C      1  0.5129430000000  0.5273670000000  0.4944050000000 1.0
C      1  0.4611360000000  0.4178460000000  0.4890160000000 1.0
C      1  0.4879360000000  0.4887170000000  0.4789720000000 1.0
C      1  0.4945490000000  0.4846890000000  0.5780930000000 1.0
C      1  0.4905180000000  0.4469230000000  0.5126170000000 1.0
C      1  0.4529080000000  0.4484050000000  0.4818820000000 1.0
C      1  0.4477810000000  0.5616320000000  0.5378200000000 1.0
C      1  0.5744970000000  0.5076100000000  0.5294190000000 1.0
C      1  0.4928940000000  0.5119320000000  0.5706870000000 1.0
C      1  0.5470320000000  0.4380280000000  0.4697020000000 1.0
C      1  0.5648900000000  0.4848580000000  0.4671460000000 1.0
C      1  0.5363800000000  0.4379950000000  0.5262260000000 1.0
C      1  0.5123120000000  0.4946980000000  0.5272810000000 1.0
C      1  0.4849090000000  0.5578290000000  0.5084720000000 1.0
C      1  0.5687140000000  0.5101910000000  0.4812130000000 1.0
C      1  0.4552760000000  0.5052040000000  0.4339700000000 1.0
END
