TITL C-950531-5884-354 3.23121259907329e-07 125000 -484.48446668065 0 0 79 (C1) n - 1
REM
REM in /home/bkarasulu/work/CARBON/AIRSS/Generating-Clusters/EDIP-Nigel-Params/with-SteepDescent/Only-C1/SD-CG/HFTN-CG
REM
REM
REM
REM
REM
REM ./C.cell (11c1c37f851c82e70ff6c80c92926a4b)
REM
REM compiler GCC version 9.2.1 20190827 (Red Hat 9.2.1-1)
REM options -cpp -mtune=generic -march=x86-64 -g -O0 -fpre-include=/usr/include/finclude/math-vector-fortran.h
REM seed 748318568 1732358319 -558412670 -843732081 -12401757 -522902045 946914468 729183706 1414863891 -1986382169 -11840218 1208268803 -1082728157 994952059 38283260 -1957453101 -295461930 -1310884358 556275511 -1204769409 873959073 -1154519885 -248035160 -615895593 -294781154 1942484290 946308588 -66639224 108789369 -1039771094 1271677219 582410606 1053398904
REM
CELL 1.54180   50.00000   50.00000   50.00000   90.00000   90.00000   90.00000
LATT -1
SFAC C  
C      1  0.4461180000000  0.5086660000000  0.5536370000000 1.0
C      1  0.4929930000000  0.5007450000000  0.4872840000000 1.0
C      1  0.4761740000000  0.4901600000000  0.4284460000000 1.0
C      1  0.4428940000000  0.4437620000000  0.4629500000000 1.0
C      1  0.5561120000000  0.5203560000000  0.5061590000000 1.0
C      1  0.4324250000000  0.4841160000000  0.5480980000000 1.0
C      1  0.4355740000000  0.4752180000000  0.4962810000000 1.0
C      1  0.5380540000000  0.5412560000000  0.5228430000000 1.0
C      1  0.5393930000000  0.5704080000000  0.4664400000000 1.0
C      1  0.4636790000000  0.4620070000000  0.5018030000000 1.0
C      1  0.4339940000000  0.4601170000000  0.5320120000000 1.0
C      1  0.4309010000000  0.5248610000000  0.5094480000000 1.0
C      1  0.5478860000000  0.5684350000000  0.5132290000000 1.0
C      1  0.5790210000000  0.5054620000000  0.5210750000000 1.0
C      1  0.5209910000000  0.4354810000000  0.5472450000000 1.0
C      1  0.4625310000000  0.5505550000000  0.5369780000000 1.0
C      1  0.5668410000000  0.5293890000000  0.5620260000000 1.0
C      1  0.5174010000000  0.4981300000000  0.5270610000000 1.0
C      1  0.5525060000000  0.5295120000000  0.4551940000000 1.0
C      1  0.5231370000000  0.5289980000000  0.4624870000000 1.0
C      1  0.5238240000000  0.4710810000000  0.4265630000000 1.0
C      1  0.4724840000000  0.5209320000000  0.4338030000000 1.0
C      1  0.4562750000000  0.4411480000000  0.5398230000000 1.0
C      1  0.5754990000000  0.4770250000000  0.5117610000000 1.0
C      1  0.4411840000000  0.5322430000000  0.5361810000000 1.0
C      1  0.5705150000000  0.4752750000000  0.4841730000000 1.0
C      1  0.5195400000000  0.5041790000000  0.4765160000000 1.0
C      1  0.5011660000000  0.4728950000000  0.5317950000000 1.0
C      1  0.4199030000000  0.5129910000000  0.4472140000000 1.0
C      1  0.5122420000000  0.5779780000000  0.4676210000000 1.0
C      1  0.4496390000000  0.5032830000000  0.5011900000000 1.0
C      1  0.4311550000000  0.4873870000000  0.4481610000000 1.0
C      1  0.4450360000000  0.5488540000000  0.4668390000000 1.0
C      1  0.5668570000000  0.5352230000000  0.4815060000000 1.0
C      1  0.4947670000000  0.5244010000000  0.5616530000000 1.0
C      1  0.5066060000000  0.5404610000000  0.5179100000000 1.0
C      1  0.4266090000000  0.4660830000000  0.4684920000000 1.0
C      1  0.5037750000000  0.5345960000000  0.4385940000000 1.0
C      1  0.5281530000000  0.5886190000000  0.5110950000000 1.0
C      1  0.5200530000000  0.5210320000000  0.4176970000000 1.0
C      1  0.4681380000000  0.4817990000000  0.5277630000000 1.0
C      1  0.4726550000000  0.5494750000000  0.4727530000000 1.0
C      1  0.4867410000000  0.4593930000000  0.5763180000000 1.0
C      1  0.5108530000000  0.4619470000000  0.5588740000000 1.0
C      1  0.4598290000000  0.4902890000000  0.4542630000000 1.0
C      1  0.5530670000000  0.4791010000000  0.4625590000000 1.0
C      1  0.4672030000000  0.5120030000000  0.4765230000000 1.0
C      1  0.5060910000000  0.5892480000000  0.4937970000000 1.0
C      1  0.5282570000000  0.4405740000000  0.4935410000000 1.0
C      1  0.5572830000000  0.5015600000000  0.4435520000000 1.0
C      1  0.4291610000000  0.5447830000000  0.4896460000000 1.0
C      1  0.5086930000000  0.4581100000000  0.5061840000000 1.0
C      1  0.4967920000000  0.4720770000000  0.4383460000000 1.0
C      1  0.4666520000000  0.4437700000000  0.5654710000000 1.0
C      1  0.5218980000000  0.5118910000000  0.5552860000000 1.0
C      1  0.5206790000000  0.4402460000000  0.4652480000000 1.0
C      1  0.4742550000000  0.4250760000000  0.5228600000000 1.0
C      1  0.4894640000000  0.4696510000000  0.4874470000000 1.0
C      1  0.4954660000000  0.5131860000000  0.5144110000000 1.0
C      1  0.5740810000000  0.5046270000000  0.5505960000000 1.0
C      1  0.4428140000000  0.5300170000000  0.4447270000000 1.0
C      1  0.5516310000000  0.4696550000000  0.5281140000000 1.0
C      1  0.5562140000000  0.4806290000000  0.5550900000000 1.0
C      1  0.5395890000000  0.4568100000000  0.4482690000000 1.0
C      1  0.4900500000000  0.5472280000000  0.5423150000000 1.0
C      1  0.4684690000000  0.4335820000000  0.4683220000000 1.0
C      1  0.4728490000000  0.5052240000000  0.5651210000000 1.0
C      1  0.4699780000000  0.4216840000000  0.4945190000000 1.0
C      1  0.4774290000000  0.4844690000000  0.5831020000000 1.0
C      1  0.4996900000000  0.4208230000000  0.5350880000000 1.0
C      1  0.4857780000000  0.6059060000000  0.4974360000000 1.0
C      1  0.4925710000000  0.5599220000000  0.4544590000000 1.0
C      1  0.5382530000000  0.4965230000000  0.5000690000000 1.0
C      1  0.5304060000000  0.4848360000000  0.5688580000000 1.0
C      1  0.5415210000000  0.5346120000000  0.5520420000000 1.0
C      1  0.5428100000000  0.4414590000000  0.5287570000000 1.0
C      1  0.5590060000000  0.5636040000000  0.4859330000000 1.0
C      1  0.4926560000000  0.4527770000000  0.4620100000000 1.0
C      1  0.5371240000000  0.4981090000000  0.4210460000000 1.0
END
