TITL C-951347-9520-451 -4.5809351225515e-06 125000 -1114.73524758238 0 0 178 (C1) n - 1
REM
REM in /home/bkarasulu/work/CARBON/AIRSS/Generating-Clusters/EDIP-Nigel-Params/with-SteepDescent/Only-C1/SD-CG/HFTN-CG
REM
REM
REM
REM
REM
REM ./C.cell (11c1c37f851c82e70ff6c80c92926a4b)
REM
REM compiler GCC version 9.2.1 20190827 (Red Hat 9.2.1-1)
REM options -cpp -mtune=generic -march=x86-64 -g -O0 -fpre-include=/usr/include/finclude/math-vector-fortran.h
REM seed -582570147 1529788573 -506885002 -1230425997 2058441024 1451693268 230740253 -984083325 668538825 -1146394235 -235547623 -1005196330 342638666 248214593 -448008692 1822302962 -850577439 1204990999 -2135999509 1726683888 1814113285 774032576 2064159240 -1273280837 568835912 959094374 -1847764896 1767482785 261233270 -868328585 65699973 103640201 962388143
REM
CELL 1.54180   50.00000   50.00000   50.00000   90.00000   90.00000   90.00000
LATT -1
SFAC C  
C      1  0.5575740000000  0.4045080000000  0.5066800000000 1.0
C      1  0.4394320000000  0.5258760000000  0.5131330000000 1.0
C      1  0.5382380000000  0.5431530000000  0.5752110000000 1.0
C      1  0.4640320000000  0.5777360000000  0.5674450000000 1.0
C      1  0.3906200000000  0.5085120000000  0.4724840000000 1.0
C      1  0.5252620000000  0.5835680000000  0.4727220000000 1.0
C      1  0.5944110000000  0.4620570000000  0.4990810000000 1.0
C      1  0.4662580000000  0.4057910000000  0.5482950000000 1.0
C      1  0.4734110000000  0.5150150000000  0.6212640000000 1.0
C      1  0.4283570000000  0.4160390000000  0.5142880000000 1.0
C      1  0.4990780000000  0.5556110000000  0.5337470000000 1.0
C      1  0.5161740000000  0.5061820000000  0.5555220000000 1.0
C      1  0.5005650000000  0.4726180000000  0.4505490000000 1.0
C      1  0.5459940000000  0.5406330000000  0.4548220000000 1.0
C      1  0.4791200000000  0.5020350000000  0.4412080000000 1.0
C      1  0.5126780000000  0.5619950000000  0.4886160000000 1.0
C      1  0.4675710000000  0.4367790000000  0.5582280000000 1.0
C      1  0.4039380000000  0.4592790000000  0.4865360000000 1.0
C      1  0.4999460000000  0.4842090000000  0.4788420000000 1.0
C      1  0.6093790000000  0.4984610000000  0.5259410000000 1.0
C      1  0.3986060000000  0.4664930000000  0.4400390000000 1.0
C      1  0.4887250000000  0.4429510000000  0.4637290000000 1.0
C      1  0.5084150000000  0.4831410000000  0.6144930000000 1.0
C      1  0.3962360000000  0.4794250000000  0.4668820000000 1.0
C      1  0.5713930000000  0.5291370000000  0.4174910000000 1.0
C      1  0.5396550000000  0.4665070000000  0.5083700000000 1.0
C      1  0.5471820000000  0.5055170000000  0.5460590000000 1.0
C      1  0.4414240000000  0.5597420000000  0.5716820000000 1.0
C      1  0.5516470000000  0.4908390000000  0.4672030000000 1.0
C      1  0.5693110000000  0.5875420000000  0.4550950000000 1.0
C      1  0.5173560000000  0.4196050000000  0.5763360000000 1.0
C      1  0.4906190000000  0.3955030000000  0.5093300000000 1.0
C      1  0.5797200000000  0.5708200000000  0.5253210000000 1.0
C      1  0.4866620000000  0.5154680000000  0.3995900000000 1.0
C      1  0.6018180000000  0.5269050000000  0.4856160000000 1.0
C      1  0.4568620000000  0.4831600000000  0.4079680000000 1.0
C      1  0.5731320000000  0.4639490000000  0.5451520000000 1.0
C      1  0.4944980000000  0.6057510000000  0.5449530000000 1.0
C      1  0.4944750000000  0.6097580000000  0.4916210000000 1.0
C      1  0.4584450000000  0.5296860000000  0.4366180000000 1.0
C      1  0.4429840000000  0.5311430000000  0.4097540000000 1.0
C      1  0.5762340000000  0.4199940000000  0.4904970000000 1.0
C      1  0.5119280000000  0.4321410000000  0.4206420000000 1.0
C      1  0.5366560000000  0.6003990000000  0.5189220000000 1.0
C      1  0.5971190000000  0.4340000000000  0.5047540000000 1.0
C      1  0.5450290000000  0.4536060000000  0.5327500000000 1.0
C      1  0.4079050000000  0.4795870000000  0.4164970000000 1.0
C      1  0.4955960000000  0.4536040000000  0.5457750000000 1.0
C      1  0.4638530000000  0.4739880000000  0.5933390000000 1.0
C      1  0.5419510000000  0.4572640000000  0.5912140000000 1.0
C      1  0.5425510000000  0.4342480000000  0.5726010000000 1.0
C      1  0.5027830000000  0.4918890000000  0.4055650000000 1.0
C      1  0.5264790000000  0.5406940000000  0.3888500000000 1.0
C      1  0.4151070000000  0.5446180000000  0.5094920000000 1.0
C      1  0.4813120000000  0.5625460000000  0.3925020000000 1.0
C      1  0.5631110000000  0.4705850000000  0.4180130000000 1.0
C      1  0.4589430000000  0.4958440000000  0.5444970000000 1.0
C      1  0.5597480000000  0.4051350000000  0.5352670000000 1.0
C      1  0.5865020000000  0.4524920000000  0.4562580000000 1.0
C      1  0.4459410000000  0.5886300000000  0.4948320000000 1.0
C      1  0.4492200000000  0.5949550000000  0.5229090000000 1.0
C      1  0.6006520000000  0.4280660000000  0.5323020000000 1.0
C      1  0.4827290000000  0.4712180000000  0.4103230000000 1.0
C      1  0.4419580000000  0.4501840000000  0.5504540000000 1.0
C      1  0.5030080000000  0.4766500000000  0.5655570000000 1.0
C      1  0.4635790000000  0.4292510000000  0.4314740000000 1.0
C      1  0.4397450000000  0.4521200000000  0.5216570000000 1.0
C      1  0.4373720000000  0.4433850000000  0.4277450000000 1.0
C      1  0.5089980000000  0.5934920000000  0.5689840000000 1.0
C      1  0.5234790000000  0.5279420000000  0.4359880000000 1.0
C      1  0.4519630000000  0.5602270000000  0.4053390000000 1.0
C      1  0.4178170000000  0.4381280000000  0.4721930000000 1.0
C      1  0.4268330000000  0.5022270000000  0.5412920000000 1.0
C      1  0.5644360000000  0.5057420000000  0.5142590000000 1.0
C      1  0.4166910000000  0.5355600000000  0.4497490000000 1.0
C      1  0.4584310000000  0.5097420000000  0.3962820000000 1.0
C      1  0.4339960000000  0.5156870000000  0.4654660000000 1.0
C      1  0.4752050000000  0.4854630000000  0.5691280000000 1.0
C      1  0.4268590000000  0.4137180000000  0.4850190000000 1.0
C      1  0.4704800000000  0.5368980000000  0.6048220000000 1.0
C      1  0.5691380000000  0.4327350000000  0.4650000000000 1.0
C      1  0.5220180000000  0.5645210000000  0.5172890000000 1.0
C      1  0.4649910000000  0.4525750000000  0.4791690000000 1.0
C      1  0.5300570000000  0.4783820000000  0.4460570000000 1.0
C      1  0.4658820000000  0.5980290000000  0.5465310000000 1.0
C      1  0.4350810000000  0.4834610000000  0.5879190000000 1.0
C      1  0.5436340000000  0.5453000000000  0.5233270000000 1.0
C      1  0.4861430000000  0.4440900000000  0.4199600000000 1.0
C      1  0.5277450000000  0.4974960000000  0.4223680000000 1.0
C      1  0.4531710000000  0.5427240000000  0.5324920000000 1.0
C      1  0.5146260000000  0.4013950000000  0.5538630000000 1.0
C      1  0.5127270000000  0.4629820000000  0.5929310000000 1.0
C      1  0.5867340000000  0.4383980000000  0.5546480000000 1.0
C      1  0.4942320000000  0.5498480000000  0.5959100000000 1.0
C      1  0.5930110000000  0.5443170000000  0.5341010000000 1.0
C      1  0.4965710000000  0.5372870000000  0.3828480000000 1.0
C      1  0.5212700000000  0.5514290000000  0.4168380000000 1.0
C      1  0.5555930000000  0.4901190000000  0.3971010000000 1.0
C      1  0.5943560000000  0.4746050000000  0.5246650000000 1.0
C      1  0.5074560000000  0.4361270000000  0.4880640000000 1.0
C      1  0.4694940000000  0.4812650000000  0.4852190000000 1.0
C      1  0.5104090000000  0.3920650000000  0.4862370000000 1.0
C      1  0.4473870000000  0.3968780000000  0.5258370000000 1.0
C      1  0.3857330000000  0.5034990000000  0.5184470000000 1.0
C      1  0.4819690000000  0.5631290000000  0.4892490000000 1.0
C      1  0.4982910000000  0.4365860000000  0.5943000000000 1.0
C      1  0.4605580000000  0.5278560000000  0.4909340000000 1.0
C      1  0.4561870000000  0.5527450000000  0.4589200000000 1.0
C      1  0.5182400000000  0.4355660000000  0.5364540000000 1.0
C      1  0.5293900000000  0.5032460000000  0.6028370000000 1.0
C      1  0.5818890000000  0.5344430000000  0.5588890000000 1.0
C      1  0.4603510000000  0.4352390000000  0.5029400000000 1.0
C      1  0.4905520000000  0.4259470000000  0.5114560000000 1.0
C      1  0.5205940000000  0.4186780000000  0.4445990000000 1.0
C      1  0.4299120000000  0.5137490000000  0.5843010000000 1.0
C      1  0.4698710000000  0.4423590000000  0.5882060000000 1.0
C      1  0.4962060000000  0.5254220000000  0.5333980000000 1.0
C      1  0.5339180000000  0.5791690000000  0.4254040000000 1.0
C      1  0.4915490000000  0.3920280000000  0.5401940000000 1.0
C      1  0.5767470000000  0.4769360000000  0.4446340000000 1.0
C      1  0.4263520000000  0.4668270000000  0.5669570000000 1.0
C      1  0.4692040000000  0.4847580000000  0.5176460000000 1.0
C      1  0.5987360000000  0.4961740000000  0.4445220000000 1.0
C      1  0.5727360000000  0.5346750000000  0.4445690000000 1.0
C      1  0.5875530000000  0.5162510000000  0.4613480000000 1.0
C      1  0.4057330000000  0.4868840000000  0.5279670000000 1.0
C      1  0.4728250000000  0.5640490000000  0.5199800000000 1.0
C      1  0.4239370000000  0.5494500000000  0.5475620000000 1.0
C      1  0.5551760000000  0.5192510000000  0.3972340000000 1.0
C      1  0.5443730000000  0.5736390000000  0.4523490000000 1.0
C      1  0.5335450000000  0.4076950000000  0.4915100000000 1.0
C      1  0.5012230000000  0.4016650000000  0.4594120000000 1.0
C      1  0.4189370000000  0.5622370000000  0.4611600000000 1.0
C      1  0.4792110000000  0.4884270000000  0.6161240000000 1.0
C      1  0.4695640000000  0.5238270000000  0.5481420000000 1.0
C      1  0.5663970000000  0.4902910000000  0.5641950000000 1.0
C      1  0.3900330000000  0.5258700000000  0.4498550000000 1.0
C      1  0.5891710000000  0.5083740000000  0.5673040000000 1.0
C      1  0.5472220000000  0.5900650000000  0.5646770000000 1.0
C      1  0.5479700000000  0.5255560000000  0.5034410000000 1.0
C      1  0.4928790000000  0.4689500000000  0.5217790000000 1.0
C      1  0.5065010000000  0.5925530000000  0.4256310000000 1.0
C      1  0.4983320000000  0.5234240000000  0.4524930000000 1.0
C      1  0.4746210000000  0.5900520000000  0.4464220000000 1.0
C      1  0.5373390000000  0.5705250000000  0.5823060000000 1.0
C      1  0.4713700000000  0.4085680000000  0.4541160000000 1.0
C      1  0.5073370000000  0.5137940000000  0.4790950000000 1.0
C      1  0.4629500000000  0.3882270000000  0.5017970000000 1.0
C      1  0.4731130000000  0.5907420000000  0.4790260000000 1.0
C      1  0.4264840000000  0.5659610000000  0.4887710000000 1.0
C      1  0.5614780000000  0.4807220000000  0.4958500000000 1.0
C      1  0.4523180000000  0.5735410000000  0.4346290000000 1.0
C      1  0.4171720000000  0.4678090000000  0.5105530000000 1.0
C      1  0.4331340000000  0.4675840000000  0.4121480000000 1.0
C      1  0.5144160000000  0.6099150000000  0.4720280000000 1.0
C      1  0.4563550000000  0.4953650000000  0.4619800000000 1.0
C      1  0.5487240000000  0.4276050000000  0.4448440000000 1.0
C      1  0.6035830000000  0.5556310000000  0.4841920000000 1.0
C      1  0.5829140000000  0.5702290000000  0.4964440000000 1.0
C      1  0.5518940000000  0.4851140000000  0.5904650000000 1.0
C      1  0.4929760000000  0.5655650000000  0.4200270000000 1.0
C      1  0.5929860000000  0.5191340000000  0.5145810000000 1.0
C      1  0.4888950000000  0.5752990000000  0.5824730000000 1.0
C      1  0.5859810000000  0.5896530000000  0.4765080000000 1.0
C      1  0.4151200000000  0.5221920000000  0.5596080000000 1.0
C      1  0.5530520000000  0.5348980000000  0.5513350000000 1.0
C      1  0.5177850000000  0.5234850000000  0.5827660000000 1.0
C      1  0.4522260000000  0.4008480000000  0.4771930000000 1.0
C      1  0.4131110000000  0.4405290000000  0.4437840000000 1.0
C      1  0.4522240000000  0.5338430000000  0.5820880000000 1.0
C      1  0.5648400000000  0.4200220000000  0.5594460000000 1.0
C      1  0.4887860000000  0.5214020000000  0.5021730000000 1.0
C      1  0.5118970000000  0.4643860000000  0.4991650000000 1.0
C      1  0.3923230000000  0.5227280000000  0.4993020000000 1.0
C      1  0.5545250000000  0.5858560000000  0.5369720000000 1.0
C      1  0.5077220000000  0.6055350000000  0.5186020000000 1.0
C      1  0.5383440000000  0.5187680000000  0.4772310000000 1.0
C      1  0.5473070000000  0.4459390000000  0.4215610000000 1.0
END
