TITL C-951338-5626-213 3.03566367866819e-06 125000 -1244.09513150615 0 0 197 (C1) n - 1
REM
REM in /home/bkarasulu/work/CARBON/AIRSS/Generating-Clusters/EDIP-Nigel-Params/with-SteepDescent/Only-C1/SD-CG/HFTN-CG
REM
REM
REM
REM
REM
REM ./C.cell (11c1c37f851c82e70ff6c80c92926a4b)
REM
REM compiler GCC version 9.2.1 20190827 (Red Hat 9.2.1-1)
REM options -cpp -mtune=generic -march=x86-64 -g -O0 -fpre-include=/usr/include/finclude/math-vector-fortran.h
REM seed 678229976 -1001957068 345551978 591077694 1931814083 123176957 -606739108 884444550 1079348188 292708533 -481219170 -1362643465 737965937 1277641856 110104277 1503990138 997163387 286537122 212906131 1566908235 -1157894435 1270238814 699550241 -916891329 1273532331 -553886430 -243183635 1129335207 -32263011 1083598857 472869439 107336264 -982835825
REM
CELL 1.54180   50.00000   50.00000   50.00000   90.00000   90.00000   90.00000
LATT -1
SFAC C  
C      1  0.5022620000000  0.5160620000000  0.4106210000000 1.0
C      1  0.5096570000000  0.4790910000000  0.5137220000000 1.0
C      1  0.4971010000000  0.5448910000000  0.4568790000000 1.0
C      1  0.5255270000000  0.4969790000000  0.4206020000000 1.0
C      1  0.4706180000000  0.5378540000000  0.6017520000000 1.0
C      1  0.5394820000000  0.5671450000000  0.4987860000000 1.0
C      1  0.5201050000000  0.4707240000000  0.3841110000000 1.0
C      1  0.4258020000000  0.4550860000000  0.4242200000000 1.0
C      1  0.4510910000000  0.5413970000000  0.4715910000000 1.0
C      1  0.4742790000000  0.5602110000000  0.4674780000000 1.0
C      1  0.4261230000000  0.5183200000000  0.4138610000000 1.0
C      1  0.4409810000000  0.5454310000000  0.5000670000000 1.0
C      1  0.5746290000000  0.5671240000000  0.5711570000000 1.0
C      1  0.5539330000000  0.3804770000000  0.5353480000000 1.0
C      1  0.4283430000000  0.4131920000000  0.4565350000000 1.0
C      1  0.5266570000000  0.5465980000000  0.3904090000000 1.0
C      1  0.5526160000000  0.4164470000000  0.4890600000000 1.0
C      1  0.4376550000000  0.5913830000000  0.4761830000000 1.0
C      1  0.4128060000000  0.5524730000000  0.4912440000000 1.0
C      1  0.4125550000000  0.4935290000000  0.4144300000000 1.0
C      1  0.5212220000000  0.6192280000000  0.4812920000000 1.0
C      1  0.5388760000000  0.4231140000000  0.5736020000000 1.0
C      1  0.5143970000000  0.5318420000000  0.4773830000000 1.0
C      1  0.5759270000000  0.4892330000000  0.5920080000000 1.0
C      1  0.5347850000000  0.5502300000000  0.5458080000000 1.0
C      1  0.5715500000000  0.5236510000000  0.5660680000000 1.0
C      1  0.4662000000000  0.5464600000000  0.4161690000000 1.0
C      1  0.3929620000000  0.4890900000000  0.5598580000000 1.0
C      1  0.5695830000000  0.5289060000000  0.4072210000000 1.0
C      1  0.5224970000000  0.4098490000000  0.4279180000000 1.0
C      1  0.4265470000000  0.5202940000000  0.5716440000000 1.0
C      1  0.5591090000000  0.4429120000000  0.4083270000000 1.0
C      1  0.4681780000000  0.4488460000000  0.5383790000000 1.0
C      1  0.5373000000000  0.5499120000000  0.4750510000000 1.0
C      1  0.4411130000000  0.4237600000000  0.5750170000000 1.0
C      1  0.5083300000000  0.3978730000000  0.4721600000000 1.0
C      1  0.4723140000000  0.5593480000000  0.5381960000000 1.0
C      1  0.4688780000000  0.4522500000000  0.3916860000000 1.0
C      1  0.5898960000000  0.4794900000000  0.5195330000000 1.0
C      1  0.4904890000000  0.4677610000000  0.4734440000000 1.0
C      1  0.4383550000000  0.4082300000000  0.5290810000000 1.0
C      1  0.4328710000000  0.5967010000000  0.5049070000000 1.0
C      1  0.4180830000000  0.5563550000000  0.5399560000000 1.0
C      1  0.4335620000000  0.5488700000000  0.5668540000000 1.0
C      1  0.5775310000000  0.4571380000000  0.3932290000000 1.0
C      1  0.5329310000000  0.4919510000000  0.6150330000000 1.0
C      1  0.5780100000000  0.5793430000000  0.5209240000000 1.0
C      1  0.5679330000000  0.5496870000000  0.4293550000000 1.0
C      1  0.5306720000000  0.3954670000000  0.5291250000000 1.0
C      1  0.4602440000000  0.5307660000000  0.5450940000000 1.0
C      1  0.5614440000000  0.5136610000000  0.5357610000000 1.0
C      1  0.4074770000000  0.4956700000000  0.5040670000000 1.0
C      1  0.4611240000000  0.5130460000000  0.4723530000000 1.0
C      1  0.5372960000000  0.4583050000000  0.4679530000000 1.0
C      1  0.5302430000000  0.4187590000000  0.5102530000000 1.0
C      1  0.5069080000000  0.3867050000000  0.5408390000000 1.0
C      1  0.5685130000000  0.4940230000000  0.4438060000000 1.0
C      1  0.5500490000000  0.4568650000000  0.5343800000000 1.0
C      1  0.4494710000000  0.5214420000000  0.5184850000000 1.0
C      1  0.4797360000000  0.5715440000000  0.4925850000000 1.0
C      1  0.4982190000000  0.5422500000000  0.6110220000000 1.0
C      1  0.5207850000000  0.4890120000000  0.5423380000000 1.0
C      1  0.4863480000000  0.5730600000000  0.5776240000000 1.0
C      1  0.5179060000000  0.6044250000000  0.5583450000000 1.0
C      1  0.5236320000000  0.6267420000000  0.5108140000000 1.0
C      1  0.5189110000000  0.5982430000000  0.4601990000000 1.0
C      1  0.4295450000000  0.4977850000000  0.5267000000000 1.0
C      1  0.4181850000000  0.5711780000000  0.4688910000000 1.0
C      1  0.4999010000000  0.5420740000000  0.3830940000000 1.0
C      1  0.5500170000000  0.5727790000000  0.4259440000000 1.0
C      1  0.4944340000000  0.5934790000000  0.4410820000000 1.0
C      1  0.4413860000000  0.5001430000000  0.5860510000000 1.0
C      1  0.4514330000000  0.5244180000000  0.4009750000000 1.0
C      1  0.4679780000000  0.4648160000000  0.4925320000000 1.0
C      1  0.4912070000000  0.4465330000000  0.4556100000000 1.0
C      1  0.4002420000000  0.4897730000000  0.4403800000000 1.0
C      1  0.5039900000000  0.5078750000000  0.5582360000000 1.0
C      1  0.5033850000000  0.4430160000000  0.5465540000000 1.0
C      1  0.4543810000000  0.4037190000000  0.4569010000000 1.0
C      1  0.5201240000000  0.5180150000000  0.5823500000000 1.0
C      1  0.5680030000000  0.4662600000000  0.5763370000000 1.0
C      1  0.5923030000000  0.5543240000000  0.4792680000000 1.0
C      1  0.5661140000000  0.5571000000000  0.5435110000000 1.0
C      1  0.4855220000000  0.3929870000000  0.5242480000000 1.0
C      1  0.5293080000000  0.4501710000000  0.4046460000000 1.0
C      1  0.4714890000000  0.6034900000000  0.5418430000000 1.0
C      1  0.5183510000000  0.4784270000000  0.4806460000000 1.0
C      1  0.5605210000000  0.5859920000000  0.4973730000000 1.0
C      1  0.5167060000000  0.4655600000000  0.5619770000000 1.0
C      1  0.4104160000000  0.4674950000000  0.5643920000000 1.0
C      1  0.4484040000000  0.4184800000000  0.5022690000000 1.0
C      1  0.5198220000000  0.4372290000000  0.4554640000000 1.0
C      1  0.4636020000000  0.4037690000000  0.5710700000000 1.0
C      1  0.5791060000000  0.4078730000000  0.5025570000000 1.0
C      1  0.5798410000000  0.5012060000000  0.4157040000000 1.0
C      1  0.4239550000000  0.5855800000000  0.5318040000000 1.0
C      1  0.4788450000000  0.4986340000000  0.4003570000000 1.0
C      1  0.4146220000000  0.4565560000000  0.4738840000000 1.0
C      1  0.5538570000000  0.4130420000000  0.4501300000000 1.0
C      1  0.4741420000000  0.5058400000000  0.4464230000000 1.0
C      1  0.5083430000000  0.5111450000000  0.6146980000000 1.0
C      1  0.4100950000000  0.4206910000000  0.5046710000000 1.0
C      1  0.4412550000000  0.4701070000000  0.4788640000000 1.0
C      1  0.4673340000000  0.4405740000000  0.5091690000000 1.0
C      1  0.5526630000000  0.5044450000000  0.5986650000000 1.0
C      1  0.4920780000000  0.5931210000000  0.5582430000000 1.0
C      1  0.5916680000000  0.5003010000000  0.4752180000000 1.0
C      1  0.4343960000000  0.4720850000000  0.5809690000000 1.0
C      1  0.4743580000000  0.5123930000000  0.5021430000000 1.0
C      1  0.4123590000000  0.5093250000000  0.4609910000000 1.0
C      1  0.4399550000000  0.4332790000000  0.5465700000000 1.0
C      1  0.4003870000000  0.4457280000000  0.5180140000000 1.0
C      1  0.4273380000000  0.5566970000000  0.4446520000000 1.0
C      1  0.5677670000000  0.4379250000000  0.4364950000000 1.0
C      1  0.6125080000000  0.4938100000000  0.5613610000000 1.0
C      1  0.4170770000000  0.4514330000000  0.5415070000000 1.0
C      1  0.4627290000000  0.4818160000000  0.5381600000000 1.0
C      1  0.4108470000000  0.5094200000000  0.5495530000000 1.0
C      1  0.5247470000000  0.4646080000000  0.6053670000000 1.0
C      1  0.5422260000000  0.4941870000000  0.3856390000000 1.0
C      1  0.4147540000000  0.4274790000000  0.4763230000000 1.0
C      1  0.5693280000000  0.4837520000000  0.3940500000000 1.0
C      1  0.4616040000000  0.3936670000000  0.5413900000000 1.0
C      1  0.5123570000000  0.4259260000000  0.4049520000000 1.0
C      1  0.5605390000000  0.5931470000000  0.5686690000000 1.0
C      1  0.5378520000000  0.3952010000000  0.4733520000000 1.0
C      1  0.5420470000000  0.5089370000000  0.4451810000000 1.0
C      1  0.4844660000000  0.4346640000000  0.4124210000000 1.0
C      1  0.5006690000000  0.3989480000000  0.4441210000000 1.0
C      1  0.4814770000000  0.6144210000000  0.5154600000000 1.0
C      1  0.5830560000000  0.5295710000000  0.4659860000000 1.0
C      1  0.4698580000000  0.4829700000000  0.4255670000000 1.0
C      1  0.5108970000000  0.5644780000000  0.5926300000000 1.0
C      1  0.5879110000000  0.4679740000000  0.4727100000000 1.0
C      1  0.4854060000000  0.4925630000000  0.6112820000000 1.0
C      1  0.5974700000000  0.5042150000000  0.5046260000000 1.0
C      1  0.5244110000000  0.5051570000000  0.4687170000000 1.0
C      1  0.5304860000000  0.5459450000000  0.5763750000000 1.0
C      1  0.5311110000000  0.6035980000000  0.5314060000000 1.0
C      1  0.5729850000000  0.4372760000000  0.5403350000000 1.0
C      1  0.3972540000000  0.4673200000000  0.4969060000000 1.0
C      1  0.4648490000000  0.5840270000000  0.4511770000000 1.0
C      1  0.4371980000000  0.4975030000000  0.4732280000000 1.0
C      1  0.4880610000000  0.4183050000000  0.5815570000000 1.0
C      1  0.4650050000000  0.5093440000000  0.5994000000000 1.0
C      1  0.5016920000000  0.5800490000000  0.4145390000000 1.0
C      1  0.4609700000000  0.3977090000000  0.4848300000000 1.0
C      1  0.5618770000000  0.4838630000000  0.5276470000000 1.0
C      1  0.4977370000000  0.5936470000000  0.4979060000000 1.0
C      1  0.3970090000000  0.5330550000000  0.5358990000000 1.0
C      1  0.4786160000000  0.4850990000000  0.5125600000000 1.0
C      1  0.5448410000000  0.5243900000000  0.3922440000000 1.0
C      1  0.4905720000000  0.4592570000000  0.4298380000000 1.0
C      1  0.5887900000000  0.4532060000000  0.5596770000000 1.0
C      1  0.4619830000000  0.5563450000000  0.5807240000000 1.0
C      1  0.5202650000000  0.4662570000000  0.4283660000000 1.0
C      1  0.5179220000000  0.5785870000000  0.5156350000000 1.0
C      1  0.5697620000000  0.5827430000000  0.4702460000000 1.0
C      1  0.5328760000000  0.5235980000000  0.5300180000000 1.0
C      1  0.5109090000000  0.4175210000000  0.5620770000000 1.0
C      1  0.5891280000000  0.4324790000000  0.5146520000000 1.0
C      1  0.4479340000000  0.5879780000000  0.5479390000000 1.0
C      1  0.5015530000000  0.5537530000000  0.5267880000000 1.0
C      1  0.5616510000000  0.4127960000000  0.5550180000000 1.0
C      1  0.5463100000000  0.5865900000000  0.4516600000000 1.0
C      1  0.5950670000000  0.5074280000000  0.5783160000000 1.0
C      1  0.4499270000000  0.4478890000000  0.5892960000000 1.0
C      1  0.5590040000000  0.5462590000000  0.5859100000000 1.0
C      1  0.4742290000000  0.5050300000000  0.5564070000000 1.0
C      1  0.3966760000000  0.5280360000000  0.4839950000000 1.0
C      1  0.4840680000000  0.5616280000000  0.3980680000000 1.0
C      1  0.5921180000000  0.5530580000000  0.5085130000000 1.0
C      1  0.5396040000000  0.4538390000000  0.5800760000000 1.0
C      1  0.4501960000000  0.5680100000000  0.4303140000000 1.0
C      1  0.4226480000000  0.5283820000000  0.4404980000000 1.0
C      1  0.3866550000000  0.5175410000000  0.5110240000000 1.0
C      1  0.5822860000000  0.5260780000000  0.5166040000000 1.0
C      1  0.4889850000000  0.4749550000000  0.3829290000000 1.0
C      1  0.5233370000000  0.4464690000000  0.5225190000000 1.0
C      1  0.4069370000000  0.4620780000000  0.4450740000000 1.0
C      1  0.4580830000000  0.5679020000000  0.5107510000000 1.0
C      1  0.5606710000000  0.6001000000000  0.5393410000000 1.0
C      1  0.5017870000000  0.5292470000000  0.5059970000000 1.0
C      1  0.4864220000000  0.5292730000000  0.4340770000000 1.0
C      1  0.6061380000000  0.4723320000000  0.5447370000000 1.0
C      1  0.4984170000000  0.6372380000000  0.5185070000000 1.0
C      1  0.5569520000000  0.5360600000000  0.4537220000000 1.0
C      1  0.5266070000000  0.5662700000000  0.4111130000000 1.0
C      1  0.5776750000000  0.3913570000000  0.5266140000000 1.0
C      1  0.5876560000000  0.4576350000000  0.4999950000000 1.0
C      1  0.4879010000000  0.3912550000000  0.4937430000000 1.0
C      1  0.5642310000000  0.4628230000000  0.4539410000000 1.0
C      1  0.4955980000000  0.4668890000000  0.6010130000000 1.0
C      1  0.4748600000000  0.4098970000000  0.4367830000000 1.0
C      1  0.4788680000000  0.4448490000000  0.5916210000000 1.0
C      1  0.5334310000000  0.5924980000000  0.5793740000000 1.0
C      1  0.4476290000000  0.4669520000000  0.4096920000000 1.0
END
