TITL C-950527-2551-328 -9.59286285368511e-07 125000 -621.589404891899 0 0 100 (C1) n - 1
REM
REM in /home/bkarasulu/work/CARBON/AIRSS/Generating-Clusters/EDIP-Nigel-Params/with-SteepDescent/Only-C1/SD-CG/HFTN-CG
REM
REM
REM
REM
REM
REM ./C.cell (11c1c37f851c82e70ff6c80c92926a4b)
REM
REM compiler GCC version 9.2.1 20190827 (Red Hat 9.2.1-1)
REM options -cpp -mtune=generic -march=x86-64 -g -O0 -fpre-include=/usr/include/finclude/math-vector-fortran.h
REM seed -1183131165 -1474824763 320251298 1186714209 1013080265 -49775513 -533345979 -1942264946 -604333868 -1749310520 196839880 1404976257 -2130470723 -1121837323 -1507002513 -827370918 1128872738 74938709 197626692 -822829573 336321702 1421763182 1489188204 -1687625773 -1929571760 -1194677999 1899309006 -60870379 -1317033594 1193453926 2035709509 -1959599973 -98727568
REM
CELL 1.54180   50.00000   50.00000   50.00000   90.00000   90.00000   90.00000
LATT -1
SFAC C  
C      1  0.4745460000000  0.5310230000000  0.4788900000000 1.0
C      1  0.5787770000000  0.4917570000000  0.5457680000000 1.0
C      1  0.5439850000000  0.5678770000000  0.5225730000000 1.0
C      1  0.4733240000000  0.5642300000000  0.5393010000000 1.0
C      1  0.5067570000000  0.4535000000000  0.4395130000000 1.0
C      1  0.5404070000000  0.4416420000000  0.5098300000000 1.0
C      1  0.4465760000000  0.4506880000000  0.4822760000000 1.0
C      1  0.5319550000000  0.4792850000000  0.5083920000000 1.0
C      1  0.5586870000000  0.4518070000000  0.5542810000000 1.0
C      1  0.4515980000000  0.4550260000000  0.5312920000000 1.0
C      1  0.5335810000000  0.5042870000000  0.5643720000000 1.0
C      1  0.5224740000000  0.5248750000000  0.4637060000000 1.0
C      1  0.4995000000000  0.4456040000000  0.5229120000000 1.0
C      1  0.5216930000000  0.5629690000000  0.5407410000000 1.0
C      1  0.4542940000000  0.5707670000000  0.5170920000000 1.0
C      1  0.5242080000000  0.5308750000000  0.4933620000000 1.0
C      1  0.5193110000000  0.5209840000000  0.4177620000000 1.0
C      1  0.4916240000000  0.4827910000000  0.4853730000000 1.0
C      1  0.5237820000000  0.4503670000000  0.4654590000000 1.0
C      1  0.5682830000000  0.5428950000000  0.4861480000000 1.0
C      1  0.4319150000000  0.4733480000000  0.4353160000000 1.0
C      1  0.4959550000000  0.5225030000000  0.5458810000000 1.0
C      1  0.5286550000000  0.4519130000000  0.5632380000000 1.0
C      1  0.5816660000000  0.4572700000000  0.5079910000000 1.0
C      1  0.4586470000000  0.5565270000000  0.4726750000000 1.0
C      1  0.5700980000000  0.4664160000000  0.4493960000000 1.0
C      1  0.4792810000000  0.5060570000000  0.5848800000000 1.0
C      1  0.4659500000000  0.4309680000000  0.5335680000000 1.0
C      1  0.4224570000000  0.4855810000000  0.5052560000000 1.0
C      1  0.4652560000000  0.5070630000000  0.5482640000000 1.0
C      1  0.4760390000000  0.4173150000000  0.5098590000000 1.0
C      1  0.5202400000000  0.4774370000000  0.4788160000000 1.0
C      1  0.5135690000000  0.4795330000000  0.5582110000000 1.0
C      1  0.4115020000000  0.4896700000000  0.4768030000000 1.0
C      1  0.4881790000000  0.4811340000000  0.5755410000000 1.0
C      1  0.5310310000000  0.5759450000000  0.4760710000000 1.0
C      1  0.5676940000000  0.4684240000000  0.5316890000000 1.0
C      1  0.4400870000000  0.5343280000000  0.5578200000000 1.0
C      1  0.4813120000000  0.4961470000000  0.4440380000000 1.0
C      1  0.5023250000000  0.4802070000000  0.4286460000000 1.0
C      1  0.4580900000000  0.4963230000000  0.5178900000000 1.0
C      1  0.4451320000000  0.4681020000000  0.5552660000000 1.0
C      1  0.4223920000000  0.4425200000000  0.4683450000000 1.0
C      1  0.4656690000000  0.4649130000000  0.5737700000000 1.0
C      1  0.4137660000000  0.5353280000000  0.4674210000000 1.0
C      1  0.5690560000000  0.5164500000000  0.5026330000000 1.0
C      1  0.5301460000000  0.5533430000000  0.5665140000000 1.0
C      1  0.4274280000000  0.4900210000000  0.5532150000000 1.0
C      1  0.5400610000000  0.5104160000000  0.5106600000000 1.0
C      1  0.5665590000000  0.5391330000000  0.4564130000000 1.0
C      1  0.4834980000000  0.4263300000000  0.4670220000000 1.0
C      1  0.5156950000000  0.4312020000000  0.5451430000000 1.0
C      1  0.5607850000000  0.4668500000000  0.5791300000000 1.0
C      1  0.4557410000000  0.4572410000000  0.4348340000000 1.0
C      1  0.4796160000000  0.4455600000000  0.4456030000000 1.0
C      1  0.5338880000000  0.4974350000000  0.4583650000000 1.0
C      1  0.5621810000000  0.4944950000000  0.5711740000000 1.0
C      1  0.4670310000000  0.4807090000000  0.4694000000000 1.0
C      1  0.4917460000000  0.5249350000000  0.4540420000000 1.0
C      1  0.4361720000000  0.4597560000000  0.5082730000000 1.0
C      1  0.4954280000000  0.5848530000000  0.4892850000000 1.0
C      1  0.4168810000000  0.5031680000000  0.5300380000000 1.0
C      1  0.4137190000000  0.4667040000000  0.4575330000000 1.0
C      1  0.5070010000000  0.4762750000000  0.5270740000000 1.0
C      1  0.5545680000000  0.4472100000000  0.4637810000000 1.0
C      1  0.4346570000000  0.5028290000000  0.4355370000000 1.0
C      1  0.4939770000000  0.5669490000000  0.4414130000000 1.0
C      1  0.5394640000000  0.5438460000000  0.4492270000000 1.0
C      1  0.5654650000000  0.4935520000000  0.4589650000000 1.0
C      1  0.4540840000000  0.5067580000000  0.4826920000000 1.0
C      1  0.5049300000000  0.5681620000000  0.4684920000000 1.0
C      1  0.4312510000000  0.5288110000000  0.5309830000000 1.0
C      1  0.5967600000000  0.4755500000000  0.4930240000000 1.0
C      1  0.5218040000000  0.5294040000000  0.5802670000000 1.0
C      1  0.5775040000000  0.5156030000000  0.4444650000000 1.0
C      1  0.4911410000000  0.5304770000000  0.5756530000000 1.0
C      1  0.4970180000000  0.5487440000000  0.5304910000000 1.0
C      1  0.5134560000000  0.4096450000000  0.5034480000000 1.0
C      1  0.5325240000000  0.4173110000000  0.5247500000000 1.0
C      1  0.5682190000000  0.5632290000000  0.5360840000000 1.0
C      1  0.5371680000000  0.5222900000000  0.5396800000000 1.0
C      1  0.4960260000000  0.5331530000000  0.5032190000000 1.0
C      1  0.4616900000000  0.5088930000000  0.4260040000000 1.0
C      1  0.5783810000000  0.4950720000000  0.4852800000000 1.0
C      1  0.4619140000000  0.4249170000000  0.4852190000000 1.0
C      1  0.5260610000000  0.4959520000000  0.4290080000000 1.0
C      1  0.4678120000000  0.5779760000000  0.4912480000000 1.0
C      1  0.4702190000000  0.5381530000000  0.4222800000000 1.0
C      1  0.5009030000000  0.5425480000000  0.4159370000000 1.0
C      1  0.5652300000000  0.5365510000000  0.5452950000000 1.0
C      1  0.4637750000000  0.5618240000000  0.4432050000000 1.0
C      1  0.5632420000000  0.4401130000000  0.4917840000000 1.0
C      1  0.4881940000000  0.4960220000000  0.5114010000000 1.0
C      1  0.5814490000000  0.5173730000000  0.5304950000000 1.0
C      1  0.4308670000000  0.5513520000000  0.4819860000000 1.0
C      1  0.4322100000000  0.5512860000000  0.5116590000000 1.0
C      1  0.5083080000000  0.4296750000000  0.4822870000000 1.0
C      1  0.4280760000000  0.5105140000000  0.4647200000000 1.0
C      1  0.4645460000000  0.5487680000000  0.5630070000000 1.0
C      1  0.5422020000000  0.5563920000000  0.4949630000000 1.0
END
