TITL C-951346-9544-324 0.0195919241170448 125000 -100.190145841486 0 0 18 (C1) n - 1
REM
REM in /home/bkarasulu/work/CARBON/AIRSS/Generating-Clusters/EDIP-Nigel-Params/with-SteepDescent/Only-C1/SD-CG/HFTN-CG
REM
REM
REM
REM
REM
REM ./C.cell (11c1c37f851c82e70ff6c80c92926a4b)
REM
REM compiler GCC version 9.2.1 20190827 (Red Hat 9.2.1-1)
REM options -cpp -mtune=generic -march=x86-64 -g -O0 -fpre-include=/usr/include/finclude/math-vector-fortran.h
REM seed 976740616 1781401635 -1330364297 -1419877255 -2039690173 1944837419 -1514800813 331449326 -79236793 1929502893 -1886739424 1427655277 1082039631 -1749769118 -1230437781 970252253 -1197424104 -396015291 -975418440 -1815676062 1748637957 -1612423471 1158144455 -917086927 -678956412 466433054 2084483505 -399428279 1818446949 -1094335170 -660079933 -1433287513 99994324
REM
CELL 1.54180   50.00000   50.00000   50.00000   90.00000   90.00000   90.00000
LATT -1
SFAC C  
C      1  0.5668170000000  0.5088040000000  0.4704230000000 1.0
C      1  0.5170260000000  0.5564500000000  0.5768020000000 1.0
C      1  0.5029610000000  0.5377990000000  0.5343300000000 1.0
C      1  0.4876450000000  0.5241820000000  0.4633960000000 1.0
C      1  0.4763140000000  0.4143560000000  0.4711290000000 1.0
C      1  0.4687690000000  0.4409030000000  0.4986590000000 1.0
C      1  0.5059830000000  0.5279560000000  0.5089120000000 1.0
C      1  0.4611890000000  0.4553130000000  0.4749620000000 1.0
C      1  0.4726610000000  0.4135980000000  0.4984770000000 1.0
C      1  0.5304400000000  0.5183130000000  0.5010290000000 1.0
C      1  0.4973210000000  0.5443860000000  0.5603770000000 1.0
C      1  0.5538770000000  0.5051620000000  0.4953800000000 1.0
C      1  0.4652200000000  0.4822990000000  0.4719340000000 1.0
C      1  0.4648880000000  0.5094090000000  0.4689320000000 1.0
C      1  0.4862000000000  0.5336850000000  0.4894100000000 1.0
C      1  0.4962760000000  0.5715250000000  0.5684970000000 1.0
C      1  0.4682780000000  0.4363340000000  0.4549360000000 1.0
C      1  0.5781340000000  0.5195270000000  0.4924160000000 1.0
END
