TITL C-950533-5798-742 1.23969845034274e-05 125000 -598.320724499536 0 0 96 (C1) n - 1
REM
REM in /home/bkarasulu/work/CARBON/AIRSS/Generating-Clusters/EDIP-Nigel-Params/with-SteepDescent/Only-C1/SD-CG/HFTN-CG
REM
REM
REM
REM
REM
REM ./C.cell (11c1c37f851c82e70ff6c80c92926a4b)
REM
REM compiler GCC version 9.2.1 20190827 (Red Hat 9.2.1-1)
REM options -cpp -mtune=generic -march=x86-64 -g -O0 -fpre-include=/usr/include/finclude/math-vector-fortran.h
REM seed 1248014322 -1373493370 1011631623 -352375962 828450187 1908901431 258003872 87922510 208968891 -1004021081 -1417660605 5338573 1650299483 1434213633 1073759659 712700355 375568710 1566107101 -1159097258 -1855674113 -750394885 304069887 1920795616 -1422391912 1799543297 -1835926760 670869904 368123087 884195548 1772125479 1486645189 -850087636 1738282891
REM
CELL 1.54180   50.00000   50.00000   50.00000   90.00000   90.00000   90.00000
LATT -1
SFAC C  
C      1  0.4576640000000  0.4333750000000  0.4911360000000 1.0
C      1  0.5368520000000  0.5021360000000  0.4163830000000 1.0
C      1  0.5588490000000  0.5782350000000  0.5073230000000 1.0
C      1  0.5630800000000  0.5550030000000  0.5235890000000 1.0
C      1  0.4980490000000  0.4495470000000  0.5676320000000 1.0
C      1  0.5515290000000  0.4465670000000  0.4988040000000 1.0
C      1  0.5378330000000  0.5014760000000  0.5246880000000 1.0
C      1  0.4832340000000  0.4758190000000  0.4852750000000 1.0
C      1  0.4283120000000  0.5148300000000  0.4580890000000 1.0
C      1  0.4963590000000  0.4268390000000  0.5211700000000 1.0
C      1  0.5738260000000  0.5295140000000  0.5106790000000 1.0
C      1  0.5319100000000  0.5850380000000  0.5126360000000 1.0
C      1  0.4236260000000  0.5116620000000  0.5324660000000 1.0
C      1  0.5187780000000  0.4709800000000  0.5282440000000 1.0
C      1  0.5573440000000  0.4840060000000  0.4288620000000 1.0
C      1  0.4414910000000  0.4738360000000  0.5097740000000 1.0
C      1  0.4839790000000  0.5632010000000  0.4778660000000 1.0
C      1  0.5385280000000  0.4418510000000  0.4521070000000 1.0
C      1  0.4652400000000  0.5229330000000  0.4183810000000 1.0
C      1  0.5030950000000  0.5401430000000  0.4730160000000 1.0
C      1  0.5101640000000  0.5180260000000  0.5906050000000 1.0
C      1  0.4715490000000  0.4714430000000  0.5109220000000 1.0
C      1  0.4827750000000  0.5655200000000  0.5808710000000 1.0
C      1  0.5108570000000  0.5269170000000  0.4980850000000 1.0
C      1  0.4935960000000  0.4830560000000  0.4289010000000 1.0
C      1  0.4335850000000  0.5034940000000  0.5052440000000 1.0
C      1  0.5382350000000  0.4275500000000  0.5447480000000 1.0
C      1  0.5725240000000  0.4590080000000  0.5396320000000 1.0
C      1  0.5057880000000  0.4350570000000  0.4941140000000 1.0
C      1  0.5208170000000  0.4123970000000  0.4804650000000 1.0
C      1  0.4891250000000  0.4812010000000  0.5318250000000 1.0
C      1  0.4967240000000  0.5323830000000  0.5478520000000 1.0
C      1  0.4494310000000  0.4501020000000  0.5529220000000 1.0
C      1  0.4698930000000  0.5171490000000  0.5478020000000 1.0
C      1  0.4102440000000  0.5394130000000  0.4916010000000 1.0
C      1  0.5462840000000  0.4700210000000  0.4562010000000 1.0
C      1  0.5105640000000  0.4357140000000  0.4445880000000 1.0
C      1  0.4341370000000  0.4941040000000  0.5530840000000 1.0
C      1  0.4620200000000  0.4463560000000  0.4436420000000 1.0
C      1  0.4970570000000  0.5595040000000  0.4199970000000 1.0
C      1  0.4890790000000  0.4537830000000  0.4349260000000 1.0
C      1  0.5196900000000  0.5708550000000  0.5343540000000 1.0
C      1  0.4685620000000  0.5677730000000  0.5557930000000 1.0
C      1  0.5144720000000  0.5976130000000  0.4952370000000 1.0
C      1  0.4279410000000  0.5402540000000  0.5363770000000 1.0
C      1  0.5126330000000  0.5906970000000  0.4499830000000 1.0
C      1  0.5238920000000  0.4596920000000  0.4993190000000 1.0
C      1  0.5589710000000  0.4695750000000  0.5620350000000 1.0
C      1  0.5064940000000  0.4985160000000  0.4520340000000 1.0
C      1  0.4386930000000  0.5416030000000  0.4606860000000 1.0
C      1  0.4612110000000  0.5310230000000  0.5087080000000 1.0
C      1  0.5699600000000  0.4696290000000  0.4930690000000 1.0
C      1  0.4419600000000  0.4636260000000  0.4575440000000 1.0
C      1  0.5125270000000  0.4700100000000  0.5833450000000 1.0
C      1  0.5346120000000  0.4820950000000  0.5682120000000 1.0
C      1  0.4356290000000  0.4535880000000  0.4862200000000 1.0
C      1  0.5334020000000  0.5110410000000  0.5723430000000 1.0
C      1  0.4868800000000  0.5127160000000  0.5093470000000 1.0
C      1  0.5579300000000  0.4369460000000  0.5270100000000 1.0
C      1  0.5340560000000  0.5094680000000  0.4950590000000 1.0
C      1  0.5063500000000  0.4097860000000  0.4556760000000 1.0
C      1  0.4285340000000  0.5510480000000  0.5095560000000 1.0
C      1  0.4748900000000  0.5580120000000  0.5066080000000 1.0
C      1  0.5259520000000  0.5452030000000  0.4519950000000 1.0
C      1  0.5831410000000  0.4732190000000  0.4674140000000 1.0
C      1  0.4691770000000  0.4930110000000  0.5696240000000 1.0
C      1  0.4657890000000  0.4967440000000  0.4280000000000 1.0
C      1  0.4816580000000  0.4457220000000  0.4766850000000 1.0
C      1  0.5133130000000  0.4417860000000  0.5419770000000 1.0
C      1  0.4321290000000  0.4686190000000  0.5389070000000 1.0
C      1  0.5801710000000  0.4952940000000  0.4478380000000 1.0
C      1  0.4503110000000  0.4243240000000  0.5411790000000 1.0
C      1  0.5248370000000  0.5175650000000  0.4386020000000 1.0
C      1  0.4672310000000  0.4282200000000  0.5189880000000 1.0
C      1  0.4682150000000  0.5013370000000  0.4778930000000 1.0
C      1  0.4630420000000  0.5554670000000  0.4555750000000 1.0
C      1  0.4936630000000  0.4926510000000  0.5902570000000 1.0
C      1  0.4864900000000  0.5180790000000  0.4611570000000 1.0
C      1  0.4739270000000  0.5470670000000  0.4296050000000 1.0
C      1  0.5807280000000  0.4793130000000  0.5189970000000 1.0
C      1  0.5135180000000  0.4874080000000  0.4073880000000 1.0
C      1  0.5398790000000  0.5506050000000  0.5414820000000 1.0
C      1  0.4146010000000  0.5123160000000  0.4837890000000 1.0
C      1  0.4952120000000  0.5396220000000  0.5766760000000 1.0
C      1  0.4903210000000  0.5603970000000  0.5338520000000 1.0
C      1  0.4516620000000  0.5418390000000  0.5543290000000 1.0
C      1  0.5470430000000  0.4260800000000  0.4760720000000 1.0
C      1  0.5274220000000  0.5233910000000  0.5455080000000 1.0
C      1  0.4988690000000  0.5893200000000  0.4740170000000 1.0
C      1  0.5581370000000  0.5254790000000  0.4857400000000 1.0
C      1  0.4755580000000  0.4663460000000  0.5560350000000 1.0
C      1  0.5190820000000  0.5683200000000  0.4346620000000 1.0
C      1  0.5255240000000  0.4843590000000  0.4758620000000 1.0
C      1  0.4495330000000  0.4934510000000  0.4543080000000 1.0
C      1  0.5681560000000  0.5049680000000  0.5280240000000 1.0
C      1  0.5723920000000  0.5177220000000  0.4629020000000 1.0
END
