TITL C-950534-5965-656 -1.77644133493916e-06 125000 -504.78630733416 0 0 82 (C1) n - 1
REM
REM in /home/bkarasulu/work/CARBON/AIRSS/Generating-Clusters/EDIP-Nigel-Params/with-SteepDescent/Only-C1/SD-CG/HFTN-CG
REM
REM
REM
REM
REM
REM ./C.cell (11c1c37f851c82e70ff6c80c92926a4b)
REM
REM compiler GCC version 9.2.1 20190827 (Red Hat 9.2.1-1)
REM options -cpp -mtune=generic -march=x86-64 -g -O0 -fpre-include=/usr/include/finclude/math-vector-fortran.h
REM seed 1296977112 836052578 1202143247 -1171313993 946719472 972735542 -1951851931 1179192082 122409286 1563098410 1701867468 -965591645 1763364279 509752969 1177819750 1421697114 722607440 -1926788435 -875916535 -504464020 757305838 -1541817740 -1921908875 287424973 2077401236 -1865284478 -314897099 -2142063098 -758045371 -2022080100 -504096732 -1132923062 -1603011349
REM
CELL 1.54180   50.00000   50.00000   50.00000   90.00000   90.00000   90.00000
LATT -1
SFAC C  
C      1  0.4979400000000  0.5259220000000  0.5223040000000 1.0
C      1  0.5373750000000  0.5688950000000  0.5446410000000 1.0
C      1  0.5440480000000  0.4465670000000  0.4832580000000 1.0
C      1  0.4319070000000  0.5018750000000  0.4831540000000 1.0
C      1  0.5047600000000  0.4294130000000  0.5654360000000 1.0
C      1  0.5066350000000  0.5347320000000  0.4940580000000 1.0
C      1  0.5490260000000  0.4557230000000  0.5195650000000 1.0
C      1  0.4510960000000  0.4633790000000  0.5231440000000 1.0
C      1  0.4969600000000  0.4884670000000  0.4627110000000 1.0
C      1  0.4732180000000  0.4874750000000  0.5038480000000 1.0
C      1  0.4605060000000  0.5093900000000  0.4856460000000 1.0
C      1  0.4462100000000  0.4868710000000  0.5389270000000 1.0
C      1  0.5219100000000  0.4901580000000  0.5020910000000 1.0
C      1  0.4584420000000  0.4815160000000  0.4246120000000 1.0
C      1  0.4347080000000  0.5126400000000  0.5313870000000 1.0
C      1  0.5109860000000  0.4605450000000  0.4979650000000 1.0
C      1  0.5188090000000  0.5495970000000  0.5846200000000 1.0
C      1  0.4284820000000  0.4742420000000  0.4803670000000 1.0
C      1  0.4616160000000  0.4382130000000  0.4831770000000 1.0
C      1  0.4804090000000  0.4943920000000  0.4109600000000 1.0
C      1  0.4729750000000  0.5086390000000  0.4563560000000 1.0
C      1  0.5059140000000  0.4809380000000  0.4118980000000 1.0
C      1  0.5471100000000  0.5096170000000  0.4367830000000 1.0
C      1  0.4769360000000  0.4404200000000  0.5616240000000 1.0
C      1  0.5264260000000  0.5766450000000  0.5179390000000 1.0
C      1  0.4596940000000  0.5373420000000  0.4981960000000 1.0
C      1  0.4202860000000  0.5181390000000  0.5057770000000 1.0
C      1  0.5491320000000  0.5219570000000  0.5588880000000 1.0
C      1  0.5430170000000  0.4958870000000  0.5473570000000 1.0
C      1  0.5150160000000  0.5012320000000  0.5857970000000 1.0
C      1  0.4977070000000  0.4967190000000  0.5212410000000 1.0
C      1  0.4888200000000  0.5114250000000  0.5893840000000 1.0
C      1  0.5109930000000  0.4445910000000  0.4440770000000 1.0
C      1  0.4302160000000  0.5453740000000  0.4954790000000 1.0
C      1  0.5593570000000  0.4999930000000  0.5040310000000 1.0
C      1  0.5230790000000  0.4810610000000  0.5632810000000 1.0
C      1  0.4635840000000  0.4620420000000  0.4455540000000 1.0
C      1  0.5166900000000  0.4263120000000  0.5383910000000 1.0
C      1  0.5807010000000  0.4991340000000  0.4849790000000 1.0
C      1  0.5145720000000  0.5077400000000  0.4792760000000 1.0
C      1  0.4852210000000  0.4678870000000  0.4835430000000 1.0
C      1  0.4602360000000  0.4875310000000  0.5635700000000 1.0
C      1  0.5575060000000  0.4826190000000  0.5262320000000 1.0
C      1  0.5564980000000  0.5534840000000  0.4819960000000 1.0
C      1  0.5545460000000  0.5463200000000  0.5457660000000 1.0
C      1  0.4468770000000  0.5442430000000  0.4472160000000 1.0
C      1  0.4827330000000  0.5791660000000  0.4968590000000 1.0
C      1  0.5042410000000  0.4134210000000  0.4789400000000 1.0
C      1  0.4752150000000  0.5530530000000  0.4539600000000 1.0
C      1  0.5573370000000  0.4667220000000  0.4657170000000 1.0
C      1  0.4455990000000  0.4560770000000  0.4675740000000 1.0
C      1  0.5362520000000  0.5675510000000  0.4708490000000 1.0
C      1  0.5295700000000  0.5181560000000  0.4139610000000 1.0
C      1  0.5328480000000  0.4532140000000  0.5690880000000 1.0
C      1  0.4643530000000  0.5126910000000  0.5757060000000 1.0
C      1  0.4931260000000  0.5303250000000  0.4479590000000 1.0
C      1  0.4986420000000  0.4759670000000  0.5456930000000 1.0
C      1  0.5016150000000  0.4500590000000  0.5259270000000 1.0
C      1  0.4794340000000  0.4216150000000  0.4677000000000 1.0
C      1  0.4483410000000  0.5155740000000  0.4383580000000 1.0
C      1  0.4746060000000  0.4658910000000  0.5741730000000 1.0
C      1  0.5822330000000  0.5199150000000  0.4664220000000 1.0
C      1  0.4637820000000  0.5602040000000  0.5548590000000 1.0
C      1  0.5421590000000  0.4393390000000  0.5431080000000 1.0
C      1  0.5228180000000  0.4312450000000  0.4675330000000 1.0
C      1  0.5144850000000  0.5672270000000  0.5631710000000 1.0
C      1  0.5426820000000  0.4814440000000  0.4446180000000 1.0
C      1  0.5010160000000  0.5243440000000  0.4204430000000 1.0
C      1  0.4504220000000  0.5335860000000  0.5594160000000 1.0
C      1  0.4704240000000  0.5349790000000  0.5260390000000 1.0
C      1  0.4823300000000  0.4388520000000  0.4437060000000 1.0
C      1  0.5143820000000  0.4737810000000  0.4400540000000 1.0
C      1  0.4972970000000  0.5816540000000  0.5208170000000 1.0
C      1  0.4712470000000  0.4429470000000  0.5310050000000 1.0
C      1  0.5834560000000  0.4741980000000  0.4728340000000 1.0
C      1  0.5306630000000  0.5550360000000  0.4970400000000 1.0
C      1  0.5262210000000  0.4948310000000  0.3975780000000 1.0
C      1  0.4279690000000  0.5499780000000  0.4677190000000 1.0
C      1  0.4806980000000  0.5535320000000  0.4840460000000 1.0
C      1  0.4904570000000  0.5684430000000  0.5464410000000 1.0
C      1  0.5319210000000  0.5247940000000  0.5823050000000 1.0
C      1  0.5712720000000  0.5228860000000  0.4418850000000 1.0
END
