TITL C-951344-124-82 -9.61385496597459e-07 125000 -254.508497523986 0 0 42 (C1) n - 1
REM
REM in /home/bkarasulu/work/CARBON/AIRSS/Generating-Clusters/EDIP-Nigel-Params/with-SteepDescent/Only-C1/SD-CG/HFTN-CG
REM
REM
REM
REM
REM
REM ./C.cell (11c1c37f851c82e70ff6c80c92926a4b)
REM
REM compiler GCC version 9.2.1 20190827 (Red Hat 9.2.1-1)
REM options -cpp -mtune=generic -march=x86-64 -g -O0 -fpre-include=/usr/include/finclude/math-vector-fortran.h
REM seed 516046202 347162010 -113369025 919908936 -474285127 112097138 -1586834430 1439492364 1185988865 -312526430 107829247 -1643883501 837282670 -981767028 1745325204 -985806840 -1324619720 -2122763677 503051293 1517293883 -994108224 1079922994 -2062942252 373998994 -1844804555 -1973910248 -185579076 -399685031 786915459 1730797370 1204180931 952216510 -941385561
REM
CELL 1.54180   50.00000   50.00000   50.00000   90.00000   90.00000   90.00000
LATT -1
SFAC C  
C      1  0.4936970000000  0.5597610000000  0.5034740000000 1.0
C      1  0.5067940000000  0.4536080000000  0.4967910000000 1.0
C      1  0.5158350000000  0.5483860000000  0.5441410000000 1.0
C      1  0.4458600000000  0.4877650000000  0.5521850000000 1.0
C      1  0.4818050000000  0.5330470000000  0.5014950000000 1.0
C      1  0.5071080000000  0.5126390000000  0.5004310000000 1.0
C      1  0.4698880000000  0.4765720000000  0.4361330000000 1.0
C      1  0.5510720000000  0.5295730000000  0.4802780000000 1.0
C      1  0.5329460000000  0.5291070000000  0.5048720000000 1.0
C      1  0.5267840000000  0.5212770000000  0.5504470000000 1.0
C      1  0.4729920000000  0.4800380000000  0.5547170000000 1.0
C      1  0.4627050000000  0.5257060000000  0.5249310000000 1.0
C      1  0.4452590000000  0.4628840000000  0.4978210000000 1.0
C      1  0.5469600000000  0.5175950000000  0.5293450000000 1.0
C      1  0.5371530000000  0.4575440000000  0.5338610000000 1.0
C      1  0.5349560000000  0.4993140000000  0.4492030000000 1.0
C      1  0.4955630000000  0.5090880000000  0.4667520000000 1.0
C      1  0.5534090000000  0.4748740000000  0.5180400000000 1.0
C      1  0.5086970000000  0.4961120000000  0.5265970000000 1.0
C      1  0.4661190000000  0.4476780000000  0.5126960000000 1.0
C      1  0.5172810000000  0.4735610000000  0.4519020000000 1.0
C      1  0.4792540000000  0.5400610000000  0.4487020000000 1.0
C      1  0.5439130000000  0.4806940000000  0.4911500000000 1.0
C      1  0.5535380000000  0.5009160000000  0.4722340000000 1.0
C      1  0.5652890000000  0.4964790000000  0.5305630000000 1.0
C      1  0.4900480000000  0.5536860000000  0.5535970000000 1.0
C      1  0.5273540000000  0.5275650000000  0.4428500000000 1.0
C      1  0.4847590000000  0.4356760000000  0.4942080000000 1.0
C      1  0.4922630000000  0.5038020000000  0.5527550000000 1.0
C      1  0.5271580000000  0.4613180000000  0.4776070000000 1.0
C      1  0.4761350000000  0.5293640000000  0.5505450000000 1.0
C      1  0.5103650000000  0.4650450000000  0.5242040000000 1.0
C      1  0.4497790000000  0.4627110000000  0.4472140000000 1.0
C      1  0.5188390000000  0.5539400000000  0.5150820000000 1.0
C      1  0.5427400000000  0.5454770000000  0.4582500000000 1.0
C      1  0.4356350000000  0.4874390000000  0.5063240000000 1.0
C      1  0.5020030000000  0.5352700000000  0.4334760000000 1.0
C      1  0.4829140000000  0.4577860000000  0.5369760000000 1.0
C      1  0.4889660000000  0.4817050000000  0.4559120000000 1.0
C      1  0.4700930000000  0.5273460000000  0.4731320000000 1.0
C      1  0.4406720000000  0.4557900000000  0.4714010000000 1.0
C      1  0.4454010000000  0.5018000000000  0.5277050000000 1.0
END
