TITL C-950534-5965-388 -3.87045479286478e-07 125000 -204.527617143469 0 0 35 (C1) n - 1
REM
REM in /home/bkarasulu/work/CARBON/AIRSS/Generating-Clusters/EDIP-Nigel-Params/with-SteepDescent/Only-C1/SD-CG/HFTN-CG
REM
REM
REM
REM
REM
REM ./C.cell (11c1c37f851c82e70ff6c80c92926a4b)
REM
REM compiler GCC version 9.2.1 20190827 (Red Hat 9.2.1-1)
REM options -cpp -mtune=generic -march=x86-64 -g -O0 -fpre-include=/usr/include/finclude/math-vector-fortran.h
REM seed 214357621 599370778 -348517093 1494234495 -1390248543 150734974 2047921504 1171809705 -913031329 682767341 -1940869515 2124556384 408672462 -2019365345 1922545742 -439856525 484087640 -1322816751 859460935 -1972917673 284339921 792060695 262354894 1578772709 -799695706 167573194 -1046155093 501411833 644133641 249012565 1009971579 1467996875 -1452222121
REM
CELL 1.54180   50.00000   50.00000   50.00000   90.00000   90.00000   90.00000
LATT -1
SFAC C  
C      1  0.4455430000000  0.4848290000000  0.5119420000000 1.0
C      1  0.5413280000000  0.5327210000000  0.4781480000000 1.0
C      1  0.4817970000000  0.5107330000000  0.5487500000000 1.0
C      1  0.5392780000000  0.5044990000000  0.5291880000000 1.0
C      1  0.4506710000000  0.5020510000000  0.4719870000000 1.0
C      1  0.5181030000000  0.4821730000000  0.5328010000000 1.0
C      1  0.5339560000000  0.4482730000000  0.5268500000000 1.0
C      1  0.5677280000000  0.5227900000000  0.4836270000000 1.0
C      1  0.5166290000000  0.4639460000000  0.4793280000000 1.0
C      1  0.4567210000000  0.5337890000000  0.5114940000000 1.0
C      1  0.4862440000000  0.4440080000000  0.5123510000000 1.0
C      1  0.4967510000000  0.5163470000000  0.4675400000000 1.0
C      1  0.5014500000000  0.5499550000000  0.5241890000000 1.0
C      1  0.5005350000000  0.4900910000000  0.5026420000000 1.0
C      1  0.4883500000000  0.4666840000000  0.4683580000000 1.0
C      1  0.4825460000000  0.5426000000000  0.4691230000000 1.0
C      1  0.5354840000000  0.4886500000000  0.4762140000000 1.0
C      1  0.4451370000000  0.4681110000000  0.4890230000000 1.0
C      1  0.5577200000000  0.4617740000000  0.5234360000000 1.0
C      1  0.4735760000000  0.4853910000000  0.5208730000000 1.0
C      1  0.4786880000000  0.4943920000000  0.4647770000000 1.0
C      1  0.4795360000000  0.4605310000000  0.5364790000000 1.0
C      1  0.5250170000000  0.5128350000000  0.4637990000000 1.0
C      1  0.5620050000000  0.4952010000000  0.4887750000000 1.0
C      1  0.5210730000000  0.5168370000000  0.5072260000000 1.0
C      1  0.4547120000000  0.5336610000000  0.4799330000000 1.0
C      1  0.5200840000000  0.5554590000000  0.5015140000000 1.0
C      1  0.4988310000000  0.4875480000000  0.5555250000000 1.0
C      1  0.4695450000000  0.4515510000000  0.4862890000000 1.0
C      1  0.4362050000000  0.5117540000000  0.5072400000000 1.0
C      1  0.5622610000000  0.4889770000000  0.5179980000000 1.0
C      1  0.4824990000000  0.5281840000000  0.5251430000000 1.0
C      1  0.4953990000000  0.5617410000000  0.4878590000000 1.0
C      1  0.4798990000000  0.5538570000000  0.4444390000000 1.0
C      1  0.5146970000000  0.4480550000000  0.5051400000000 1.0
END
