TITL C-951337-3020-486 -0.000173095833413081 125000 -89.9161103887822 0 0 18 (C1) n - 1
REM
REM in /home/bkarasulu/work/CARBON/AIRSS/Generating-Clusters/EDIP-Nigel-Params/with-SteepDescent/Only-C1/SD-CG/HFTN-CG
REM
REM
REM
REM
REM
REM ./C.cell (11c1c37f851c82e70ff6c80c92926a4b)
REM
REM compiler GCC version 9.2.1 20190827 (Red Hat 9.2.1-1)
REM options -cpp -mtune=generic -march=x86-64 -g -O0 -fpre-include=/usr/include/finclude/math-vector-fortran.h
REM seed 1696774872 -978391193 -168241658 -251288899 770276940 -1740727167 -1936455593 -375921813 -1332814050 -115487708 -1109743112 -2880862 -902474147 843615683 -435514316 -324783387 866287545 1143282287 -1846327124 500166085 -659511693 919573091 1117435541 -1013151926 -329864310 1584302903 724105638 -1950448720 -345148095 744444865 913932090 -228231894 699550919
REM
CELL 1.54180   50.00000   50.00000   50.00000   90.00000   90.00000   90.00000
LATT -1
SFAC C  
C      1  0.5034690000000  0.4821440000000  0.4737690000000 1.0
C      1  0.5013820000000  0.5338420000000  0.5010440000000 1.0
C      1  0.5269310000000  0.5715980000000  0.4459340000000 1.0
C      1  0.4868650000000  0.5252440000000  0.5442100000000 1.0
C      1  0.4995460000000  0.4686170000000  0.4982680000000 1.0
C      1  0.4943820000000  0.5144590000000  0.5212330000000 1.0
C      1  0.5184370000000  0.5036530000000  0.4354440000000 1.0
C      1  0.4765830000000  0.4739010000000  0.5413850000000 1.0
C      1  0.4559930000000  0.4543200000000  0.5416750000000 1.0
C      1  0.4858550000000  0.4870560000000  0.5174200000000 1.0
C      1  0.4841220000000  0.4465910000000  0.4938190000000 1.0
C      1  0.5096430000000  0.5050960000000  0.4603040000000 1.0
C      1  0.5038760000000  0.5585610000000  0.5100830000000 1.0
C      1  0.5183050000000  0.5519820000000  0.4600310000000 1.0
C      1  0.5111310000000  0.5297040000000  0.4743800000000 1.0
C      1  0.5475020000000  0.4546180000000  0.5189010000000 1.0
C      1  0.5247470000000  0.4604910000000  0.5086300000000 1.0
C      1  0.4512310000000  0.4781230000000  0.5534700000000 1.0
END
