TITL C-950534-5965-570 -9.85939241886855e-07 125000 -420.570728013992 0 0 69 (C1) n - 1
REM
REM in /home/bkarasulu/work/CARBON/AIRSS/Generating-Clusters/EDIP-Nigel-Params/with-SteepDescent/Only-C1/SD-CG/HFTN-CG
REM
REM
REM
REM
REM
REM ./C.cell (11c1c37f851c82e70ff6c80c92926a4b)
REM
REM compiler GCC version 9.2.1 20190827 (Red Hat 9.2.1-1)
REM options -cpp -mtune=generic -march=x86-64 -g -O0 -fpre-include=/usr/include/finclude/math-vector-fortran.h
REM seed -2107085015 1091583634 1746502194 -1471261748 -1433016443 -1796752775 1859060276 366679303 -2095188028 -1859861038 -906791143 -1263379417 1474649829 921269121 205314125 -1442472443 -492024844 171666987 109591962 180108598 1144493566 1581851052 -555304972 -801552371 -428224311 -2069595037 -1023026690 2105134112 1092203304 -474335505 54085205 -1153604151 1184390462
REM
CELL 1.54180   50.00000   50.00000   50.00000   90.00000   90.00000   90.00000
LATT -1
SFAC C  
C      1  0.4885870000000  0.5221230000000  0.5090030000000 1.0
C      1  0.5193020000000  0.5716540000000  0.4896180000000 1.0
C      1  0.4216210000000  0.5268990000000  0.5120180000000 1.0
C      1  0.5829650000000  0.5107280000000  0.5403000000000 1.0
C      1  0.4261830000000  0.5191070000000  0.4835260000000 1.0
C      1  0.4312840000000  0.4691730000000  0.4929780000000 1.0
C      1  0.5491340000000  0.5321350000000  0.5254050000000 1.0
C      1  0.5388380000000  0.4998770000000  0.4855390000000 1.0
C      1  0.4584130000000  0.4293100000000  0.5032270000000 1.0
C      1  0.4664300000000  0.5279680000000  0.5628800000000 1.0
C      1  0.4379900000000  0.4887210000000  0.5477940000000 1.0
C      1  0.5438320000000  0.5267380000000  0.4331220000000 1.0
C      1  0.5119040000000  0.4644690000000  0.4511610000000 1.0
C      1  0.4761510000000  0.4985230000000  0.4396350000000 1.0
C      1  0.4509910000000  0.5267760000000  0.4408970000000 1.0
C      1  0.5611010000000  0.4466350000000  0.4656840000000 1.0
C      1  0.5299910000000  0.5548550000000  0.5376760000000 1.0
C      1  0.4642180000000  0.4544540000000  0.4610200000000 1.0
C      1  0.4605400000000  0.5564980000000  0.4787720000000 1.0
C      1  0.4455450000000  0.4596700000000  0.5413500000000 1.0
C      1  0.5553450000000  0.5084320000000  0.5470260000000 1.0
C      1  0.4448070000000  0.4960890000000  0.4836350000000 1.0
C      1  0.5261800000000  0.4868670000000  0.5125760000000 1.0
C      1  0.4353130000000  0.5505280000000  0.5179200000000 1.0
C      1  0.4230480000000  0.5050100000000  0.5300280000000 1.0
C      1  0.5037630000000  0.5141600000000  0.5532040000000 1.0
C      1  0.4588580000000  0.5614160000000  0.5075680000000 1.0
C      1  0.4407220000000  0.5386820000000  0.4659710000000 1.0
C      1  0.5034250000000  0.4662430000000  0.5006610000000 1.0
C      1  0.4709340000000  0.4532620000000  0.5580370000000 1.0
C      1  0.5013640000000  0.5095880000000  0.4495300000000 1.0
C      1  0.5253620000000  0.5055980000000  0.4314590000000 1.0
C      1  0.5648950000000  0.4933400000000  0.4702500000000 1.0
C      1  0.5118020000000  0.4894520000000  0.4705920000000 1.0
C      1  0.4759270000000  0.5668720000000  0.4348850000000 1.0
C      1  0.4626570000000  0.5458790000000  0.4242900000000 1.0
C      1  0.5178460000000  0.4383140000000  0.4631610000000 1.0
C      1  0.4744740000000  0.4337650000000  0.4802360000000 1.0
C      1  0.4618480000000  0.5003690000000  0.5596310000000 1.0
C      1  0.4824030000000  0.4695400000000  0.4431120000000 1.0
C      1  0.5587390000000  0.4407820000000  0.4928120000000 1.0
C      1  0.5622320000000  0.4589090000000  0.5328870000000 1.0
C      1  0.4772140000000  0.5730980000000  0.4619090000000 1.0
C      1  0.4788750000000  0.4793950000000  0.5699780000000 1.0
C      1  0.4925550000000  0.4366950000000  0.5493130000000 1.0
C      1  0.5408610000000  0.5276260000000  0.4959560000000 1.0
C      1  0.4767910000000  0.4745800000000  0.5095320000000 1.0
C      1  0.4522750000000  0.4567010000000  0.5114060000000 1.0
C      1  0.5099150000000  0.5671790000000  0.5177230000000 1.0
C      1  0.5340430000000  0.5492880000000  0.4782220000000 1.0
C      1  0.5027700000000  0.4390180000000  0.4867120000000 1.0
C      1  0.5396110000000  0.5463990000000  0.4510750000000 1.0
C      1  0.5003700000000  0.5838760000000  0.4728720000000 1.0
C      1  0.5347840000000  0.4763850000000  0.4349590000000 1.0
C      1  0.5810120000000  0.5124190000000  0.5123650000000 1.0
C      1  0.5805800000000  0.4882830000000  0.4953240000000 1.0
C      1  0.5068650000000  0.4881360000000  0.5695080000000 1.0
C      1  0.5606690000000  0.4709690000000  0.4508760000000 1.0
C      1  0.5200250000000  0.4428350000000  0.5466900000000 1.0
C      1  0.4370140000000  0.4630490000000  0.4649500000000 1.0
C      1  0.5428770000000  0.4369040000000  0.5276460000000 1.0
C      1  0.5264610000000  0.4693630000000  0.5575750000000 1.0
C      1  0.4836900000000  0.5504840000000  0.5210030000000 1.0
C      1  0.5126130000000  0.5441380000000  0.5600730000000 1.0
C      1  0.5443270000000  0.4819470000000  0.5379900000000 1.0
C      1  0.4689510000000  0.5010850000000  0.5018670000000 1.0
C      1  0.5744760000000  0.4606390000000  0.5069570000000 1.0
C      1  0.4826160000000  0.5494760000000  0.5524960000000 1.0
C      1  0.5108000000000  0.5106240000000  0.5239430000000 1.0
END
