TITL C-951342-2639-466 -2.34064115082433e-06 125000 -727.745164307094 0 0 116 (C1) n - 1
REM
REM in /home/bkarasulu/work/CARBON/AIRSS/Generating-Clusters/EDIP-Nigel-Params/with-SteepDescent/Only-C1/SD-CG/HFTN-CG
REM
REM
REM
REM
REM
REM ./C.cell (11c1c37f851c82e70ff6c80c92926a4b)
REM
REM compiler GCC version 9.2.1 20190827 (Red Hat 9.2.1-1)
REM options -cpp -mtune=generic -march=x86-64 -g -O0 -fpre-include=/usr/include/finclude/math-vector-fortran.h
REM seed -2134059886 1937122618 321667862 -96360492 -1603854818 816918298 662117024 -1433707744 -1590245008 -235296955 363724559 1804545297 1753002077 1333321439 -174655346 491291441 1679577367 -1331783976 395170937 -1457591608 -716215352 -1064827216 -1836641200 1405948232 -817800394 -114909278 -195558587 1263485685 867251631 -867946507 1650660237 1203620470 -1174939643
REM
CELL 1.54180   50.00000   50.00000   50.00000   90.00000   90.00000   90.00000
LATT -1
SFAC C  
C      1  0.4573140000000  0.4873220000000  0.4246050000000 1.0
C      1  0.5465760000000  0.4487760000000  0.5045600000000 1.0
C      1  0.4756280000000  0.5013660000000  0.4025450000000 1.0
C      1  0.5536080000000  0.5260220000000  0.4958320000000 1.0
C      1  0.4711010000000  0.4382870000000  0.5039860000000 1.0
C      1  0.5651430000000  0.5528890000000  0.4915330000000 1.0
C      1  0.4631490000000  0.4564340000000  0.5711620000000 1.0
C      1  0.5127920000000  0.4747770000000  0.4242340000000 1.0
C      1  0.4861530000000  0.4584140000000  0.5893180000000 1.0
C      1  0.5035860000000  0.5368870000000  0.5755770000000 1.0
C      1  0.5489720000000  0.5232090000000  0.5858210000000 1.0
C      1  0.5058060000000  0.4411340000000  0.5743940000000 1.0
C      1  0.4408480000000  0.5269000000000  0.4340970000000 1.0
C      1  0.4313130000000  0.5495600000000  0.5537450000000 1.0
C      1  0.4945910000000  0.4120950000000  0.4651820000000 1.0
C      1  0.5576180000000  0.4939140000000  0.5808500000000 1.0
C      1  0.4603440000000  0.5796240000000  0.5320970000000 1.0
C      1  0.4952450000000  0.5428890000000  0.5146310000000 1.0
C      1  0.5806500000000  0.4977810000000  0.5349500000000 1.0
C      1  0.4701700000000  0.5363550000000  0.4354320000000 1.0
C      1  0.5223690000000  0.4757580000000  0.5518820000000 1.0
C      1  0.4689440000000  0.4591470000000  0.4130590000000 1.0
C      1  0.4754190000000  0.5292280000000  0.5654370000000 1.0
C      1  0.4869640000000  0.5981200000000  0.4722360000000 1.0
C      1  0.5783360000000  0.5106880000000  0.4877310000000 1.0
C      1  0.5773930000000  0.4885240000000  0.5071150000000 1.0
C      1  0.4178280000000  0.4780110000000  0.4624190000000 1.0
C      1  0.4560030000000  0.4379100000000  0.4558220000000 1.0
C      1  0.4883130000000  0.5254250000000  0.4143700000000 1.0
C      1  0.4927030000000  0.4757510000000  0.4014250000000 1.0
C      1  0.4943070000000  0.4703210000000  0.4500960000000 1.0
C      1  0.4333560000000  0.4546910000000  0.4579860000000 1.0
C      1  0.5498970000000  0.4782520000000  0.5094030000000 1.0
C      1  0.4289540000000  0.5055870000000  0.4532840000000 1.0
C      1  0.5225590000000  0.5489930000000  0.5291690000000 1.0
C      1  0.5626460000000  0.4643060000000  0.4116150000000 1.0
C      1  0.4844500000000  0.4822260000000  0.5210620000000 1.0
C      1  0.5107590000000  0.4986670000000  0.6075210000000 1.0
C      1  0.5793490000000  0.4706960000000  0.4373620000000 1.0
C      1  0.5706460000000  0.5489850000000  0.5426500000000 1.0
C      1  0.5073470000000  0.5660270000000  0.4472110000000 1.0
C      1  0.4531960000000  0.5078940000000  0.4965150000000 1.0
C      1  0.5600700000000  0.4427970000000  0.4771810000000 1.0
C      1  0.4067220000000  0.4762140000000  0.4898380000000 1.0
C      1  0.5196080000000  0.4172800000000  0.4806860000000 1.0
C      1  0.4905280000000  0.4185760000000  0.5591150000000 1.0
C      1  0.5345510000000  0.5747450000000  0.5198110000000 1.0
C      1  0.4256890000000  0.4657130000000  0.5338190000000 1.0
C      1  0.5385760000000  0.4477750000000  0.4159920000000 1.0
C      1  0.5417930000000  0.4243910000000  0.4622320000000 1.0
C      1  0.4907460000000  0.4871600000000  0.5909310000000 1.0
C      1  0.4718190000000  0.4913800000000  0.4526790000000 1.0
C      1  0.5177950000000  0.4428480000000  0.4963710000000 1.0
C      1  0.4666400000000  0.5309500000000  0.4832040000000 1.0
C      1  0.4770760000000  0.5257620000000  0.5348730000000 1.0
C      1  0.5514970000000  0.4336950000000  0.5307100000000 1.0
C      1  0.3934760000000  0.4987030000000  0.5002840000000 1.0
C      1  0.5363930000000  0.4456670000000  0.5798180000000 1.0
C      1  0.4516590000000  0.4835310000000  0.5674870000000 1.0
C      1  0.5446690000000  0.5252080000000  0.5254450000000 1.0
C      1  0.5205260000000  0.5237900000000  0.5967150000000 1.0
C      1  0.5312800000000  0.4987180000000  0.4263460000000 1.0
C      1  0.5340820000000  0.4123890000000  0.5363310000000 1.0
C      1  0.5216240000000  0.5521200000000  0.5587070000000 1.0
C      1  0.5037080000000  0.4674340000000  0.4800350000000 1.0
C      1  0.4579210000000  0.4841810000000  0.4792330000000 1.0
C      1  0.5430970000000  0.4988780000000  0.4547620000000 1.0
C      1  0.4779390000000  0.5700550000000  0.5099970000000 1.0
C      1  0.5495980000000  0.5448290000000  0.5647580000000 1.0
C      1  0.4784970000000  0.5642300000000  0.4419120000000 1.0
C      1  0.5543780000000  0.5441290000000  0.4492620000000 1.0
C      1  0.5563010000000  0.4950710000000  0.4090980000000 1.0
C      1  0.4960190000000  0.4605980000000  0.5422050000000 1.0
C      1  0.5331980000000  0.4768510000000  0.5854070000000 1.0
C      1  0.5221690000000  0.5893060000000  0.4984820000000 1.0
C      1  0.5060510000000  0.4117610000000  0.5343690000000 1.0
C      1  0.4584280000000  0.5606720000000  0.4881260000000 1.0
C      1  0.5168670000000  0.5242270000000  0.4229260000000 1.0
C      1  0.5326400000000  0.4954250000000  0.5290200000000 1.0
C      1  0.4698550000000  0.5029210000000  0.5787420000000 1.0
C      1  0.4997540000000  0.4250940000000  0.4384870000000 1.0
C      1  0.5269820000000  0.4361350000000  0.4397120000000 1.0
C      1  0.5635330000000  0.4671850000000  0.4615460000000 1.0
C      1  0.4618590000000  0.5020540000000  0.5245110000000 1.0
C      1  0.4621370000000  0.5736860000000  0.5804670000000 1.0
C      1  0.5629170000000  0.5673260000000  0.5174920000000 1.0
C      1  0.5133630000000  0.5901740000000  0.4609710000000 1.0
C      1  0.4786160000000  0.4462750000000  0.4385680000000 1.0
C      1  0.4211310000000  0.4577730000000  0.5073710000000 1.0
C      1  0.4485650000000  0.4365040000000  0.5248670000000 1.0
C      1  0.4646920000000  0.5788730000000  0.4637290000000 1.0
C      1  0.4812880000000  0.5208190000000  0.4580290000000 1.0
C      1  0.4136750000000  0.5370870000000  0.4910800000000 1.0
C      1  0.4989890000000  0.4370420000000  0.5197690000000 1.0
C      1  0.5291810000000  0.5168530000000  0.4771780000000 1.0
C      1  0.4634810000000  0.4330540000000  0.5526380000000 1.0
C      1  0.5539310000000  0.4524760000000  0.5543700000000 1.0
C      1  0.4351510000000  0.5651970000000  0.5303490000000 1.0
C      1  0.5618320000000  0.5650050000000  0.4664650000000 1.0
C      1  0.5795810000000  0.5011160000000  0.4292680000000 1.0
C      1  0.4313890000000  0.5581370000000  0.5015670000000 1.0
C      1  0.4686400000000  0.4225640000000  0.4778180000000 1.0
C      1  0.4527900000000  0.5483360000000  0.5724710000000 1.0
C      1  0.5679630000000  0.5164310000000  0.4532410000000 1.0
C      1  0.4691720000000  0.5866360000000  0.5577190000000 1.0
C      1  0.4397810000000  0.4895960000000  0.5418190000000 1.0
C      1  0.4771410000000  0.4678530000000  0.4952640000000 1.0
C      1  0.5661220000000  0.4819440000000  0.5552260000000 1.0
C      1  0.5858320000000  0.5251900000000  0.5379020000000 1.0
C      1  0.5258110000000  0.5440400000000  0.4419030000000 1.0
C      1  0.4162220000000  0.5303590000000  0.4629860000000 1.0
C      1  0.5071170000000  0.4999230000000  0.5148980000000 1.0
C      1  0.5145340000000  0.4941860000000  0.4883450000000 1.0
C      1  0.4937870000000  0.5932260000000  0.5002980000000 1.0
C      1  0.3922480000000  0.5253690000000  0.5048670000000 1.0
C      1  0.5049590000000  0.5366600000000  0.4799760000000 1.0
END
