TITL C-951334-9093-708 -3.47583846555727e-07 125000 -157.659274436526 0 0 27 (C1) n - 1
REM
REM in /home/bkarasulu/work/CARBON/AIRSS/Generating-Clusters/EDIP-Nigel-Params/with-SteepDescent/Only-C1/SD-CG/HFTN-CG
REM
REM
REM
REM
REM
REM ./C.cell (11c1c37f851c82e70ff6c80c92926a4b)
REM
REM compiler GCC version 9.2.1 20190827 (Red Hat 9.2.1-1)
REM options -cpp -mtune=generic -march=x86-64 -g -O0 -fpre-include=/usr/include/finclude/math-vector-fortran.h
REM seed -1380219222 1733259613 -746551898 345830615 -363069650 2034509638 1990516477 1413228073 -515425134 -497065878 -748462198 -664665355 690284636 508884537 -2050298890 -2135527174 -116442069 896480829 413580094 -897338344 329406793 1824090368 925500222 -1853006973 646748523 1654440815 420922233 -1669182689 690232830 1821446709 391727564 -253792737 1465407517
REM
CELL 1.54180   50.00000   50.00000   50.00000   90.00000   90.00000   90.00000
LATT -1
SFAC C  
C      1  0.5487510000000  0.5155350000000  0.5059830000000 1.0
C      1  0.4557590000000  0.4821700000000  0.5597530000000 1.0
C      1  0.4837800000000  0.4551470000000  0.5886690000000 1.0
C      1  0.5174880000000  0.5037450000000  0.4522040000000 1.0
C      1  0.5028720000000  0.4623550000000  0.4737640000000 1.0
C      1  0.4649090000000  0.5494790000000  0.4434200000000 1.0
C      1  0.5370650000000  0.4979110000000  0.5235910000000 1.0
C      1  0.5125100000000  0.4832410000000  0.5613470000000 1.0
C      1  0.5650100000000  0.4969260000000  0.4613240000000 1.0
C      1  0.5129880000000  0.4907730000000  0.5348790000000 1.0
C      1  0.4525440000000  0.4636270000000  0.4809150000000 1.0
C      1  0.5658470000000  0.5051210000000  0.4868430000000 1.0
C      1  0.5312060000000  0.5350250000000  0.4972640000000 1.0
C      1  0.4636230000000  0.5408000000000  0.4692500000000 1.0
C      1  0.5435230000000  0.4960020000000  0.4452040000000 1.0
C      1  0.4774270000000  0.4533920000000  0.4774600000000 1.0
C      1  0.4637690000000  0.4740300000000  0.5847060000000 1.0
C      1  0.4591780000000  0.4898990000000  0.4837410000000 1.0
C      1  0.4652830000000  0.4901830000000  0.5362190000000 1.0
C      1  0.4829140000000  0.5322560000000  0.4882550000000 1.0
C      1  0.5014850000000  0.4763490000000  0.5855610000000 1.0
C      1  0.4904160000000  0.5420560000000  0.4371420000000 1.0
C      1  0.4879480000000  0.4958020000000  0.5216270000000 1.0
C      1  0.5098190000000  0.5426500000000  0.4806890000000 1.0
C      1  0.5063290000000  0.4898550000000  0.4757180000000 1.0
C      1  0.4843500000000  0.5021510000000  0.4923430000000 1.0
C      1  0.5132060000000  0.5335220000000  0.4521280000000 1.0
END
