TITL C-951342-2639-306 7.35737639177913e-08 125000 -474.604062199981 0 0 78 (C1) n - 1
REM
REM in /home/bkarasulu/work/CARBON/AIRSS/Generating-Clusters/EDIP-Nigel-Params/with-SteepDescent/Only-C1/SD-CG/HFTN-CG
REM
REM
REM
REM
REM
REM ./C.cell (11c1c37f851c82e70ff6c80c92926a4b)
REM
REM compiler GCC version 9.2.1 20190827 (Red Hat 9.2.1-1)
REM options -cpp -mtune=generic -march=x86-64 -g -O0 -fpre-include=/usr/include/finclude/math-vector-fortran.h
REM seed 1054612235 1133169968 -1648696796 1064845173 133319762 -992833220 -1608122533 1683714180 618065965 504991869 100307051 1919279024 444995899 -1736518704 254557341 -1154174150 -118941155 -2040508480 985003807 -568837427 1197151879 21108023 879676289 -275124596 -1966802417 1283963649 -577161499 909429496 -424565395 -414838904 148769093 1170551148 2121256565
REM
CELL 1.54180   50.00000   50.00000   50.00000   90.00000   90.00000   90.00000
LATT -1
SFAC C  
C      1  0.4608050000000  0.5649280000000  0.5027110000000 1.0
C      1  0.5294300000000  0.4383190000000  0.5383500000000 1.0
C      1  0.4531100000000  0.4791220000000  0.5406580000000 1.0
C      1  0.5055220000000  0.5249390000000  0.5571590000000 1.0
C      1  0.5533440000000  0.5539950000000  0.4842080000000 1.0
C      1  0.4701850000000  0.4783960000000  0.4333370000000 1.0
C      1  0.5133880000000  0.4230420000000  0.4702690000000 1.0
C      1  0.5201410000000  0.5686040000000  0.5310730000000 1.0
C      1  0.4824820000000  0.4398500000000  0.5007600000000 1.0
C      1  0.4754930000000  0.5129880000000  0.5155630000000 1.0
C      1  0.4338090000000  0.4408220000000  0.5031210000000 1.0
C      1  0.5489490000000  0.5263580000000  0.4379260000000 1.0
C      1  0.5099960000000  0.4953200000000  0.5961600000000 1.0
C      1  0.4602950000000  0.4792690000000  0.4856160000000 1.0
C      1  0.5289250000000  0.5239470000000  0.5139090000000 1.0
C      1  0.5288480000000  0.5398650000000  0.4245160000000 1.0
C      1  0.5458460000000  0.4859020000000  0.4665910000000 1.0
C      1  0.5141080000000  0.5647510000000  0.4657540000000 1.0
C      1  0.4827690000000  0.5252410000000  0.4410670000000 1.0
C      1  0.5342530000000  0.5772090000000  0.4820840000000 1.0
C      1  0.5484700000000  0.5001910000000  0.5134440000000 1.0
C      1  0.4940450000000  0.4640000000000  0.5150410000000 1.0
C      1  0.4443300000000  0.5044810000000  0.4812670000000 1.0
C      1  0.5287870000000  0.5336360000000  0.4840150000000 1.0
C      1  0.4694440000000  0.5506910000000  0.4497660000000 1.0
C      1  0.5668910000000  0.5352890000000  0.4628700000000 1.0
C      1  0.5675810000000  0.4348670000000  0.4727630000000 1.0
C      1  0.4926300000000  0.5657490000000  0.5450390000000 1.0
C      1  0.5237540000000  0.5839090000000  0.5073360000000 1.0
C      1  0.5808380000000  0.5111850000000  0.4771380000000 1.0
C      1  0.4908600000000  0.4675460000000  0.4493830000000 1.0
C      1  0.5489830000000  0.4857530000000  0.5392400000000 1.0
C      1  0.4859670000000  0.5688010000000  0.4664410000000 1.0
C      1  0.5749450000000  0.4841020000000  0.4648550000000 1.0
C      1  0.4385240000000  0.5133560000000  0.4520980000000 1.0
C      1  0.4648590000000  0.4963610000000  0.5644210000000 1.0
C      1  0.4956470000000  0.5277960000000  0.3941090000000 1.0
C      1  0.5370640000000  0.4889960000000  0.5887930000000 1.0
C      1  0.4930190000000  0.5492070000000  0.5679650000000 1.0
C      1  0.5032310000000  0.5303000000000  0.4193190000000 1.0
C      1  0.5097950000000  0.4766180000000  0.4943120000000 1.0
C      1  0.4743450000000  0.5838630000000  0.4871570000000 1.0
C      1  0.4454960000000  0.5228530000000  0.5230930000000 1.0
C      1  0.4664900000000  0.4251210000000  0.4499170000000 1.0
C      1  0.5483450000000  0.5018620000000  0.5648020000000 1.0
C      1  0.5744290000000  0.5092340000000  0.5046020000000 1.0
C      1  0.4948360000000  0.4996950000000  0.5706190000000 1.0
C      1  0.4825510000000  0.4404790000000  0.5557150000000 1.0
C      1  0.5021730000000  0.5199900000000  0.5275980000000 1.0
C      1  0.4428600000000  0.4545280000000  0.4806010000000 1.0
C      1  0.4481020000000  0.5413610000000  0.5459930000000 1.0
C      1  0.5044500000000  0.4545490000000  0.5431670000000 1.0
C      1  0.4280700000000  0.4958020000000  0.5297970000000 1.0
C      1  0.4610550000000  0.5054010000000  0.4332620000000 1.0
C      1  0.4929720000000  0.5150720000000  0.4678220000000 1.0
C      1  0.4444970000000  0.4392120000000  0.4573550000000 1.0
C      1  0.5355160000000  0.5292670000000  0.5609000000000 1.0
C      1  0.5806710000000  0.4596070000000  0.4803800000000 1.0
C      1  0.4661830000000  0.5613380000000  0.5317160000000 1.0
C      1  0.4557050000000  0.5231750000000  0.5663170000000 1.0
C      1  0.5513790000000  0.4530580000000  0.5028950000000 1.0
C      1  0.5045490000000  0.4189400000000  0.4981220000000 1.0
C      1  0.4713200000000  0.5249040000000  0.4877330000000 1.0
C      1  0.4704350000000  0.4830000000000  0.5156450000000 1.0
C      1  0.4905060000000  0.4849950000000  0.4730560000000 1.0
C      1  0.5251690000000  0.4210060000000  0.5169140000000 1.0
C      1  0.4583010000000  0.4478730000000  0.5433710000000 1.0
C      1  0.4424510000000  0.5433860000000  0.4598920000000 1.0
C      1  0.5347890000000  0.5125730000000  0.4604360000000 1.0
C      1  0.4570180000000  0.4340010000000  0.5171410000000 1.0
C      1  0.5405250000000  0.4304180000000  0.4676420000000 1.0
C      1  0.4410180000000  0.5490570000000  0.4888220000000 1.0
C      1  0.5528210000000  0.4563330000000  0.5336590000000 1.0
C      1  0.5384840000000  0.4788790000000  0.4939110000000 1.0
C      1  0.4878970000000  0.4400100000000  0.4627590000000 1.0
C      1  0.5395250000000  0.5445480000000  0.5342550000000 1.0
C      1  0.4216550000000  0.5020160000000  0.5012350000000 1.0
C      1  0.5120550000000  0.4768930000000  0.5612520000000 1.0
END
