TITL C-951347-9520-625 -6.05159681497217e-07 125000 -694.20927024584 0 0 113 (C1) n - 1
REM
REM in /home/bkarasulu/work/CARBON/AIRSS/Generating-Clusters/EDIP-Nigel-Params/with-SteepDescent/Only-C1/SD-CG/HFTN-CG
REM
REM
REM
REM
REM
REM ./C.cell (11c1c37f851c82e70ff6c80c92926a4b)
REM
REM compiler GCC version 9.2.1 20190827 (Red Hat 9.2.1-1)
REM options -cpp -mtune=generic -march=x86-64 -g -O0 -fpre-include=/usr/include/finclude/math-vector-fortran.h
REM seed -504217695 -1081855992 84990318 1062078193 -2025273785 1130422375 -1126241095 -2089236088 2104205132 -1385468176 -919680309 -2087347373 -1827250460 395028148 -353434906 -12950378 -1856800380 -1300601825 -561288879 1505740221 330559537 -2146794523 -1290924846 -625047486 1518603714 9453180 1172480781 -1619481336 -2105112139 -2071262430 1197041326 -1011632503 -1965463195
REM
CELL 1.54180   50.00000   50.00000   50.00000   90.00000   90.00000   90.00000
LATT -1
SFAC C  
C      1  0.4329520000000  0.4953230000000  0.4911060000000 1.0
C      1  0.5254360000000  0.5616580000000  0.4892220000000 1.0
C      1  0.4114740000000  0.5073990000000  0.4486500000000 1.0
C      1  0.4898610000000  0.4431420000000  0.4658200000000 1.0
C      1  0.5555880000000  0.5675250000000  0.4991900000000 1.0
C      1  0.4763140000000  0.5905560000000  0.5264290000000 1.0
C      1  0.4316740000000  0.4335600000000  0.4586180000000 1.0
C      1  0.4894430000000  0.4581810000000  0.5178990000000 1.0
C      1  0.4498740000000  0.5384080000000  0.5807080000000 1.0
C      1  0.4284050000000  0.5692350000000  0.4741890000000 1.0
C      1  0.4710730000000  0.5272020000000  0.5298850000000 1.0
C      1  0.4845580000000  0.5484910000000  0.5156360000000 1.0
C      1  0.5647810000000  0.5418790000000  0.4844880000000 1.0
C      1  0.5221160000000  0.5872920000000  0.5059420000000 1.0
C      1  0.5875470000000  0.4865300000000  0.5232900000000 1.0
C      1  0.5440760000000  0.4399160000000  0.4593480000000 1.0
C      1  0.4944920000000  0.5791760000000  0.5456980000000 1.0
C      1  0.4619960000000  0.4904220000000  0.4312540000000 1.0
C      1  0.5410490000000  0.5641180000000  0.5467070000000 1.0
C      1  0.5182590000000  0.3993420000000  0.4891580000000 1.0
C      1  0.4668440000000  0.4648960000000  0.5679630000000 1.0
C      1  0.5603550000000  0.4986520000000  0.5744870000000 1.0
C      1  0.5109990000000  0.4999340000000  0.5285080000000 1.0
C      1  0.5980580000000  0.5295080000000  0.5196370000000 1.0
C      1  0.4946590000000  0.4091500000000  0.5021240000000 1.0
C      1  0.4412990000000  0.5643640000000  0.4489530000000 1.0
C      1  0.5754370000000  0.5400980000000  0.4576140000000 1.0
C      1  0.5022360000000  0.4716540000000  0.4622310000000 1.0
C      1  0.5114800000000  0.5368700000000  0.5018740000000 1.0
C      1  0.5236090000000  0.5414900000000  0.5890130000000 1.0
C      1  0.4507560000000  0.5783300000000  0.5258070000000 1.0
C      1  0.4656090000000  0.5548240000000  0.4917850000000 1.0
C      1  0.4833050000000  0.4360350000000  0.4950960000000 1.0
C      1  0.4984340000000  0.5127890000000  0.4036680000000 1.0
C      1  0.5906870000000  0.4588320000000  0.5141530000000 1.0
C      1  0.4155340000000  0.4906810000000  0.5130280000000 1.0
C      1  0.4343420000000  0.4939340000000  0.4209810000000 1.0
C      1  0.4168270000000  0.4800730000000  0.4403960000000 1.0
C      1  0.4695520000000  0.5133820000000  0.4508420000000 1.0
C      1  0.4697390000000  0.4928080000000  0.5754230000000 1.0
C      1  0.4756480000000  0.5812970000000  0.4807160000000 1.0
C      1  0.5281890000000  0.5447980000000  0.4404230000000 1.0
C      1  0.5328080000000  0.4102150000000  0.5234380000000 1.0
C      1  0.5082930000000  0.5334300000000  0.4221300000000 1.0
C      1  0.5575370000000  0.4850820000000  0.5282530000000 1.0
C      1  0.5625200000000  0.5612600000000  0.5284450000000 1.0
C      1  0.5387050000000  0.4647000000000  0.5116430000000 1.0
C      1  0.4609690000000  0.4647600000000  0.4478040000000 1.0
C      1  0.4912340000000  0.4475890000000  0.5656870000000 1.0
C      1  0.4697730000000  0.5612280000000  0.4396240000000 1.0
C      1  0.5433210000000  0.5460450000000  0.5696870000000 1.0
C      1  0.4340160000000  0.4860290000000  0.5356550000000 1.0
C      1  0.5175810000000  0.4631450000000  0.5609160000000 1.0
C      1  0.5477760000000  0.4359740000000  0.5168570000000 1.0
C      1  0.4787380000000  0.5342140000000  0.4295560000000 1.0
C      1  0.5765860000000  0.5371170000000  0.5367510000000 1.0
C      1  0.4291210000000  0.5094620000000  0.5543390000000 1.0
C      1  0.5622960000000  0.4588820000000  0.4483330000000 1.0
C      1  0.5750850000000  0.4770550000000  0.4657090000000 1.0
C      1  0.5567290000000  0.5382870000000  0.4349620000000 1.0
C      1  0.5517710000000  0.4712880000000  0.4243600000000 1.0
C      1  0.5334390000000  0.4704330000000  0.4795690000000 1.0
C      1  0.5031400000000  0.4161850000000  0.4377720000000 1.0
C      1  0.5631550000000  0.4739580000000  0.5569550000000 1.0
C      1  0.4536550000000  0.4355300000000  0.5313190000000 1.0
C      1  0.4054790000000  0.5306910000000  0.4917440000000 1.0
C      1  0.5081260000000  0.5140760000000  0.4809250000000 1.0
C      1  0.4843930000000  0.4958610000000  0.4730220000000 1.0
C      1  0.3988060000000  0.5136190000000  0.5137360000000 1.0
C      1  0.4677580000000  0.4796530000000  0.5172670000000 1.0
C      1  0.4344680000000  0.5556200000000  0.5230710000000 1.0
C      1  0.4945970000000  0.5026210000000  0.5852250000000 1.0
C      1  0.5214230000000  0.5819550000000  0.5357520000000 1.0
C      1  0.5390090000000  0.3890590000000  0.5043070000000 1.0
C      1  0.5707880000000  0.4434370000000  0.5336970000000 1.0
C      1  0.5565840000000  0.5152760000000  0.4958560000000 1.0
C      1  0.5633890000000  0.5261330000000  0.5622310000000 1.0
C      1  0.5185730000000  0.5651140000000  0.4597170000000 1.0
C      1  0.4976920000000  0.5309410000000  0.5923680000000 1.0
C      1  0.5242520000000  0.4350040000000  0.4389630000000 1.0
C      1  0.5810620000000  0.5030840000000  0.4527920000000 1.0
C      1  0.4767720000000  0.5491690000000  0.5817950000000 1.0
C      1  0.5347740000000  0.5012050000000  0.4725390000000 1.0
C      1  0.4536850000000  0.4374720000000  0.5011790000000 1.0
C      1  0.4903560000000  0.5753460000000  0.4558010000000 1.0
C      1  0.5879670000000  0.4627940000000  0.4860910000000 1.0
C      1  0.4369140000000  0.4229470000000  0.4840410000000 1.0
C      1  0.4245520000000  0.5169290000000  0.4735260000000 1.0
C      1  0.5315050000000  0.5194550000000  0.5182340000000 1.0
C      1  0.4875240000000  0.5521500000000  0.5544650000000 1.0
C      1  0.4184030000000  0.5560840000000  0.4979620000000 1.0
C      1  0.5180870000000  0.4866140000000  0.5808590000000 1.0
C      1  0.4461960000000  0.5097610000000  0.5776510000000 1.0
C      1  0.5090630000000  0.4788770000000  0.4323220000000 1.0
C      1  0.4867850000000  0.4885800000000  0.4138850000000 1.0
C      1  0.4580650000000  0.4795830000000  0.4882370000000 1.0
C      1  0.5412560000000  0.4948040000000  0.5943470000000 1.0
C      1  0.4763490000000  0.4140940000000  0.4449100000000 1.0
C      1  0.5329780000000  0.5013640000000  0.4400980000000 1.0
C      1  0.5252200000000  0.4570500000000  0.4197360000000 1.0
C      1  0.4506140000000  0.5326640000000  0.4678360000000 1.0
C      1  0.5451480000000  0.4506900000000  0.5617870000000 1.0
C      1  0.5864390000000  0.5085140000000  0.5044770000000 1.0
C      1  0.4919660000000  0.5956410000000  0.5013860000000 1.0
C      1  0.5624690000000  0.5085850000000  0.4296090000000 1.0
C      1  0.4331400000000  0.4643780000000  0.4607020000000 1.0
C      1  0.4305760000000  0.5386040000000  0.5473220000000 1.0
C      1  0.4561820000000  0.4338620000000  0.4392030000000 1.0
C      1  0.4823120000000  0.4298000000000  0.5431910000000 1.0
C      1  0.4836110000000  0.5041340000000  0.5206330000000 1.0
C      1  0.5148740000000  0.4709820000000  0.5296990000000 1.0
C      1  0.4451740000000  0.4591150000000  0.5481630000000 1.0
C      1  0.5018320000000  0.4109930000000  0.5299240000000 1.0
END
