TITL C-951341-1326-554 4.12665217473817e-07 125000 -462.476981784589 0 0 75 (C1) n - 1
REM
REM in /home/bkarasulu/work/CARBON/AIRSS/Generating-Clusters/EDIP-Nigel-Params/with-SteepDescent/Only-C1/SD-CG/HFTN-CG
REM
REM
REM
REM
REM
REM ./C.cell (11c1c37f851c82e70ff6c80c92926a4b)
REM
REM compiler GCC version 9.2.1 20190827 (Red Hat 9.2.1-1)
REM options -cpp -mtune=generic -march=x86-64 -g -O0 -fpre-include=/usr/include/finclude/math-vector-fortran.h
REM seed 215228670 1609624172 -1942284342 -1737829297 -2005958524 629614474 -2137634697 -500064516 2022555465 292063415 -1961953784 2045915970 -1714031467 -1395765380 95979780 415144970 -1651173149 363126542 1373864196 1108149901 465713721 -970859838 1849347085 -882414456 2877705 -495577651 -2026162822 -1458535791 1778800205 -1549135026 651967884 1007346513 -1861771850
REM
CELL 1.54180   50.00000   50.00000   50.00000   90.00000   90.00000   90.00000
LATT -1
SFAC C  
C      1  0.4337670000000  0.4741470000000  0.5071540000000 1.0
C      1  0.5319290000000  0.5600240000000  0.5335430000000 1.0
C      1  0.4637390000000  0.5417800000000  0.5749590000000 1.0
C      1  0.5675200000000  0.5229430000000  0.5420450000000 1.0
C      1  0.4374030000000  0.5329800000000  0.5346440000000 1.0
C      1  0.4831710000000  0.4525970000000  0.5596230000000 1.0
C      1  0.5541110000000  0.4781960000000  0.5382490000000 1.0
C      1  0.4773800000000  0.4821590000000  0.4852750000000 1.0
C      1  0.5087270000000  0.5234990000000  0.5663700000000 1.0
C      1  0.5265750000000  0.4757220000000  0.4820720000000 1.0
C      1  0.4705030000000  0.4944590000000  0.5760430000000 1.0
C      1  0.5138190000000  0.5233270000000  0.5164820000000 1.0
C      1  0.4305330000000  0.5110440000000  0.5502960000000 1.0
C      1  0.4910200000000  0.4174630000000  0.5052690000000 1.0
C      1  0.4549610000000  0.4946520000000  0.5487710000000 1.0
C      1  0.5671620000000  0.4473810000000  0.5068720000000 1.0
C      1  0.4708620000000  0.4271300000000  0.5206440000000 1.0
C      1  0.4824530000000  0.4973630000000  0.4573070000000 1.0
C      1  0.4647040000000  0.4468810000000  0.5394920000000 1.0
C      1  0.5174130000000  0.4259350000000  0.5006950000000 1.0
C      1  0.4930560000000  0.5288710000000  0.4949530000000 1.0
C      1  0.4820850000000  0.5217360000000  0.5815840000000 1.0
C      1  0.5535470000000  0.5422530000000  0.5235760000000 1.0
C      1  0.4779260000000  0.5634440000000  0.5050030000000 1.0
C      1  0.5041280000000  0.5716050000000  0.4931660000000 1.0
C      1  0.4391910000000  0.5009970000000  0.4618290000000 1.0
C      1  0.4576820000000  0.5495510000000  0.5486400000000 1.0
C      1  0.4865970000000  0.5524760000000  0.4504250000000 1.0
C      1  0.5685630000000  0.4628870000000  0.4834080000000 1.0
C      1  0.5242100000000  0.4381880000000  0.4730170000000 1.0
C      1  0.4927920000000  0.4756170000000  0.5723890000000 1.0
C      1  0.4427370000000  0.5260660000000  0.4494410000000 1.0
C      1  0.5468310000000  0.5304190000000  0.4979990000000 1.0
C      1  0.5719140000000  0.4925870000000  0.4849600000000 1.0
C      1  0.5003880000000  0.4489000000000  0.4587150000000 1.0
C      1  0.5275180000000  0.5332130000000  0.4308800000000 1.0
C      1  0.5077080000000  0.4724910000000  0.5062480000000 1.0
C      1  0.5284780000000  0.5031930000000  0.4699930000000 1.0
C      1  0.5488750000000  0.4520270000000  0.5276790000000 1.0
C      1  0.4634770000000  0.4362980000000  0.4355410000000 1.0
C      1  0.4927420000000  0.4729120000000  0.4415470000000 1.0
C      1  0.4553570000000  0.5491450000000  0.4899260000000 1.0
C      1  0.4370980000000  0.5293770000000  0.5045650000000 1.0
C      1  0.5565780000000  0.5369710000000  0.4714680000000 1.0
C      1  0.4743800000000  0.4359120000000  0.4620230000000 1.0
C      1  0.4831490000000  0.5129500000000  0.4222380000000 1.0
C      1  0.4472320000000  0.4697900000000  0.5337900000000 1.0
C      1  0.5021820000000  0.5157300000000  0.4696350000000 1.0
C      1  0.5053720000000  0.4958670000000  0.5278640000000 1.0
C      1  0.4762790000000  0.5029540000000  0.5289610000000 1.0
C      1  0.4418900000000  0.4773110000000  0.4447080000000 1.0
C      1  0.5125790000000  0.4938100000000  0.5577340000000 1.0
C      1  0.5357070000000  0.5510160000000  0.4542750000000 1.0
C      1  0.5524250000000  0.5147560000000  0.5677150000000 1.0
C      1  0.4361410000000  0.4511570000000  0.4910700000000 1.0
C      1  0.5807420000000  0.5047310000000  0.5102870000000 1.0
C      1  0.4992710000000  0.4975880000000  0.4048630000000 1.0
C      1  0.4601700000000  0.5442700000000  0.4618030000000 1.0
C      1  0.5803740000000  0.4881840000000  0.5331070000000 1.0
C      1  0.5155730000000  0.4838790000000  0.4237520000000 1.0
C      1  0.5096130000000  0.5592570000000  0.4675270000000 1.0
C      1  0.5328650000000  0.5308080000000  0.5808480000000 1.0
C      1  0.5080130000000  0.5425180000000  0.5397810000000 1.0
C      1  0.5413580000000  0.4883540000000  0.5616680000000 1.0
C      1  0.4704180000000  0.5091300000000  0.5015220000000 1.0
C      1  0.4645470000000  0.4645150000000  0.4300750000000 1.0
C      1  0.5349430000000  0.5037290000000  0.4386220000000 1.0
C      1  0.4300130000000  0.5006340000000  0.4909350000000 1.0
C      1  0.5202260000000  0.4475850000000  0.5202800000000 1.0
C      1  0.5658250000000  0.5103330000000  0.4611430000000 1.0
C      1  0.5243150000000  0.5766240000000  0.5119900000000 1.0
C      1  0.4581170000000  0.4590970000000  0.4736940000000 1.0
C      1  0.4815630000000  0.5574970000000  0.5338350000000 1.0
C      1  0.4972550000000  0.5375490000000  0.4271410000000 1.0
C      1  0.5502330000000  0.4515620000000  0.4643530000000 1.0
END
