TITL C-951333-8791-721 -1.28546223360325e-06 125000 -866.465419968872 0 0 139 (C1) n - 1
REM
REM in /home/bkarasulu/work/CARBON/AIRSS/Generating-Clusters/EDIP-Nigel-Params/with-SteepDescent/Only-C1/SD-CG/HFTN-CG
REM
REM
REM
REM
REM
REM ./C.cell (11c1c37f851c82e70ff6c80c92926a4b)
REM
REM compiler GCC version 9.2.1 20190827 (Red Hat 9.2.1-1)
REM options -cpp -mtune=generic -march=x86-64 -g -O0 -fpre-include=/usr/include/finclude/math-vector-fortran.h
REM seed -704710052 1124199491 989763408 -2022889406 -803256136 744445690 883609303 -547452892 -1146727478 -765243459 1376452186 1647603245 -677700193 1456330028 -15047315 -27350144 995436779 -1828883183 1890050835 -484189057 1875010974 1026920071 -645391446 -1346526645 1669319263 -1569351188 -336434747 1991592417 -641161212 -1017894183 -941174698 698784210 -907666233
REM
CELL 1.54180   50.00000   50.00000   50.00000   90.00000   90.00000   90.00000
LATT -1
SFAC C  
C      1  0.4196390000000  0.5048110000000  0.5722190000000 1.0
C      1  0.4504870000000  0.5309710000000  0.4325060000000 1.0
C      1  0.4854400000000  0.4834730000000  0.5227580000000 1.0
C      1  0.4864900000000  0.4254330000000  0.4317920000000 1.0
C      1  0.4898980000000  0.5647020000000  0.5570570000000 1.0
C      1  0.5038300000000  0.5666320000000  0.4479700000000 1.0
C      1  0.4604120000000  0.5911810000000  0.4892270000000 1.0
C      1  0.4540940000000  0.4507570000000  0.4962380000000 1.0
C      1  0.4708120000000  0.5748610000000  0.5376940000000 1.0
C      1  0.6023330000000  0.5106840000000  0.5563010000000 1.0
C      1  0.6040220000000  0.4966170000000  0.5296370000000 1.0
C      1  0.4900150000000  0.4126870000000  0.5411990000000 1.0
C      1  0.5131710000000  0.5968400000000  0.5308600000000 1.0
C      1  0.5764250000000  0.5084280000000  0.5721240000000 1.0
C      1  0.4567640000000  0.4805670000000  0.5986650000000 1.0
C      1  0.5550510000000  0.5409180000000  0.5700460000000 1.0
C      1  0.5877980000000  0.4692960000000  0.4794790000000 1.0
C      1  0.4785750000000  0.4209660000000  0.4600820000000 1.0
C      1  0.5608880000000  0.4245690000000  0.5071940000000 1.0
C      1  0.4727910000000  0.5370110000000  0.4757560000000 1.0
C      1  0.5840030000000  0.4709110000000  0.5110490000000 1.0
C      1  0.4957680000000  0.4054360000000  0.4793980000000 1.0
C      1  0.4510250000000  0.4252830000000  0.5102650000000 1.0
C      1  0.5449380000000  0.4504510000000  0.5929910000000 1.0
C      1  0.5760580000000  0.5006070000000  0.4329580000000 1.0
C      1  0.4162110000000  0.4994200000000  0.4547190000000 1.0
C      1  0.5151950000000  0.4249090000000  0.4920550000000 1.0
C      1  0.4850800000000  0.4981160000000  0.4525160000000 1.0
C      1  0.5325660000000  0.5262620000000  0.5860800000000 1.0
C      1  0.5329880000000  0.5041480000000  0.4447900000000 1.0
C      1  0.4593540000000  0.5812740000000  0.4404760000000 1.0
C      1  0.4829300000000  0.5045770000000  0.5665540000000 1.0
C      1  0.5165080000000  0.4804320000000  0.4912660000000 1.0
C      1  0.4088180000000  0.5307930000000  0.5345260000000 1.0
C      1  0.4701170000000  0.4495890000000  0.4220290000000 1.0
C      1  0.5688100000000  0.4428020000000  0.5518120000000 1.0
C      1  0.5203890000000  0.4116560000000  0.5388610000000 1.0
C      1  0.4390990000000  0.5143820000000  0.5016770000000 1.0
C      1  0.5268400000000  0.4966140000000  0.5897850000000 1.0
C      1  0.4499830000000  0.5566580000000  0.5321860000000 1.0
C      1  0.5531300000000  0.5079830000000  0.4687750000000 1.0
C      1  0.3936420000000  0.5186420000000  0.4882020000000 1.0
C      1  0.5563360000000  0.4520950000000  0.4394680000000 1.0
C      1  0.4784250000000  0.4152860000000  0.5128220000000 1.0
C      1  0.4299030000000  0.5453330000000  0.5490050000000 1.0
C      1  0.5353930000000  0.4854230000000  0.4049580000000 1.0
C      1  0.5901740000000  0.5419490000000  0.5252130000000 1.0
C      1  0.4850930000000  0.5435050000000  0.4082810000000 1.0
C      1  0.4333490000000  0.5713010000000  0.4520990000000 1.0
C      1  0.5296580000000  0.3886920000000  0.4720520000000 1.0
C      1  0.5336490000000  0.4103320000000  0.5108270000000 1.0
C      1  0.5643350000000  0.4255540000000  0.4782930000000 1.0
C      1  0.4862070000000  0.4691270000000  0.4064800000000 1.0
C      1  0.5474600000000  0.4363330000000  0.5692540000000 1.0
C      1  0.5403170000000  0.5707700000000  0.4415650000000 1.0
C      1  0.4382520000000  0.5272900000000  0.5697300000000 1.0
C      1  0.5348690000000  0.3832190000000  0.4993310000000 1.0
C      1  0.5147440000000  0.4650820000000  0.4102630000000 1.0
C      1  0.5756430000000  0.4438880000000  0.5242880000000 1.0
C      1  0.4811190000000  0.5627080000000  0.4288830000000 1.0
C      1  0.4383100000000  0.4932750000000  0.5250700000000 1.0
C      1  0.5008710000000  0.5436260000000  0.4684770000000 1.0
C      1  0.5429340000000  0.5653520000000  0.5547130000000 1.0
C      1  0.5055890000000  0.5443420000000  0.5121280000000 1.0
C      1  0.5156510000000  0.5780520000000  0.5536540000000 1.0
C      1  0.4356920000000  0.4608440000000  0.4374740000000 1.0
C      1  0.4846160000000  0.4355030000000  0.5621350000000 1.0
C      1  0.5377890000000  0.5884770000000  0.4649140000000 1.0
C      1  0.4568290000000  0.4899120000000  0.5556090000000 1.0
C      1  0.4799190000000  0.4647680000000  0.5872770000000 1.0
C      1  0.4604960000000  0.5318780000000  0.5883460000000 1.0
C      1  0.5065880000000  0.4664800000000  0.5145710000000 1.0
C      1  0.5598400000000  0.4891740000000  0.5147200000000 1.0
C      1  0.4296990000000  0.4552170000000  0.5607350000000 1.0
C      1  0.5893480000000  0.4950710000000  0.4638000000000 1.0
C      1  0.5653280000000  0.5267600000000  0.4272210000000 1.0
C      1  0.4935840000000  0.5084750000000  0.5380400000000 1.0
C      1  0.4594270000000  0.4742360000000  0.5148970000000 1.0
C      1  0.4719050000000  0.5976970000000  0.4626610000000 1.0
C      1  0.4194320000000  0.5597840000000  0.4977820000000 1.0
C      1  0.5223030000000  0.4386130000000  0.5538190000000 1.0
C      1  0.5245470000000  0.4738480000000  0.4456940000000 1.0
C      1  0.5721160000000  0.5619890000000  0.5145640000000 1.0
C      1  0.5436870000000  0.4902330000000  0.4905650000000 1.0
C      1  0.5603280000000  0.4781510000000  0.4210810000000 1.0
C      1  0.5587800000000  0.5801970000000  0.5340650000000 1.0
C      1  0.5908910000000  0.5414370000000  0.4731190000000 1.0
C      1  0.5142160000000  0.4241460000000  0.4261690000000 1.0
C      1  0.4837380000000  0.5884970000000  0.5131020000000 1.0
C      1  0.5044850000000  0.5689710000000  0.4973080000000 1.0
C      1  0.5390910000000  0.5956870000000  0.5165280000000 1.0
C      1  0.5021510000000  0.4733380000000  0.4664390000000 1.0
C      1  0.3995630000000  0.5245400000000  0.4584380000000 1.0
C      1  0.4079680000000  0.5040300000000  0.5457920000000 1.0
C      1  0.4612480000000  0.5170280000000  0.4579700000000 1.0
C      1  0.4240420000000  0.4463870000000  0.4914450000000 1.0
C      1  0.4361720000000  0.5750410000000  0.4814690000000 1.0
C      1  0.4601180000000  0.4568780000000  0.5552780000000 1.0
C      1  0.4398210000000  0.5031590000000  0.4731560000000 1.0
C      1  0.5334410000000  0.5775050000000  0.4928420000000 1.0
C      1  0.4309830000000  0.4781630000000  0.5820460000000 1.0
C      1  0.4486930000000  0.5060130000000  0.4155660000000 1.0
C      1  0.4128420000000  0.4610540000000  0.5382930000000 1.0
C      1  0.5618310000000  0.5381820000000  0.4723420000000 1.0
C      1  0.4252280000000  0.5448730000000  0.4408660000000 1.0
C      1  0.5994440000000  0.5168230000000  0.4821520000000 1.0
C      1  0.5495920000000  0.5514840000000  0.4979640000000 1.0
C      1  0.4854750000000  0.5463380000000  0.5793130000000 1.0
C      1  0.3997880000000  0.4772270000000  0.4656190000000 1.0
C      1  0.3946480000000  0.4860600000000  0.4935390000000 1.0
C      1  0.5006200000000  0.4852440000000  0.5803560000000 1.0
C      1  0.5905010000000  0.5399700000000  0.5541090000000 1.0
C      1  0.5094610000000  0.5407860000000  0.5919270000000 1.0
C      1  0.4651550000000  0.5282820000000  0.5019800000000 1.0
C      1  0.5259800000000  0.4626090000000  0.5357970000000 1.0
C      1  0.4961530000000  0.5179400000000  0.4034990000000 1.0
C      1  0.4723450000000  0.4483720000000  0.4705120000000 1.0
C      1  0.5616700000000  0.4847290000000  0.5645240000000 1.0
C      1  0.5427610000000  0.4869800000000  0.5394890000000 1.0
C      1  0.4642720000000  0.5078660000000  0.6037050000000 1.0
C      1  0.5402310000000  0.4259070000000  0.4365660000000 1.0
C      1  0.4089740000000  0.4645390000000  0.5100610000000 1.0
C      1  0.5726380000000  0.4493440000000  0.4647550000000 1.0
C      1  0.5446820000000  0.4115870000000  0.4617360000000 1.0
C      1  0.4273540000000  0.4885640000000  0.4280340000000 1.0
C      1  0.4170910000000  0.4535310000000  0.4623300000000 1.0
C      1  0.5002660000000  0.5933010000000  0.4608790000000 1.0
C      1  0.4770820000000  0.4967260000000  0.4096840000000 1.0
C      1  0.5943510000000  0.5166990000000  0.5110010000000 1.0
C      1  0.5566330000000  0.5474300000000  0.4449350000000 1.0
C      1  0.5243150000000  0.5115820000000  0.5360870000000 1.0
C      1  0.5078600000000  0.5176250000000  0.4541240000000 1.0
C      1  0.5246440000000  0.5124740000000  0.4081310000000 1.0
C      1  0.4813690000000  0.5347590000000  0.5256350000000 1.0
C      1  0.5309560000000  0.5317880000000  0.5148290000000 1.0
C      1  0.4144350000000  0.5324320000000  0.5054510000000 1.0
C      1  0.5497100000000  0.4780330000000  0.5904080000000 1.0
C      1  0.4960920000000  0.4402240000000  0.5067740000000 1.0
C      1  0.4640070000000  0.4656230000000  0.4473300000000 1.0
END
