TITL C-951340-9809-480 -2.29110340874904e-06 125000 -281.187255916331 0 0 47 (C1) n - 1
REM
REM in /home/bkarasulu/work/CARBON/AIRSS/Generating-Clusters/EDIP-Nigel-Params/with-SteepDescent/Only-C1/SD-CG/HFTN-CG
REM
REM
REM
REM
REM
REM ./C.cell (11c1c37f851c82e70ff6c80c92926a4b)
REM
REM compiler GCC version 9.2.1 20190827 (Red Hat 9.2.1-1)
REM options -cpp -mtune=generic -march=x86-64 -g -O0 -fpre-include=/usr/include/finclude/math-vector-fortran.h
REM seed 983596756 109382898 1650304647 -790240176 1863819780 1730886459 -1871010066 1310309490 590975693 719018504 472203001 1951396611 275129004 1658173540 539095230 -810518374 889596752 140026482 -1476199476 1261145026 -1695528320 1677465778 -361122704 849473840 -1862702481 1552782841 1683350769 391096140 -447499818 -1116814811 -735050730 11873972 1883255574
REM
CELL 1.54180   50.00000   50.00000   50.00000   90.00000   90.00000   90.00000
LATT -1
SFAC C  
C      1  0.5335960000000  0.5372180000000  0.5112940000000 1.0
C      1  0.4857350000000  0.4929470000000  0.5701970000000 1.0
C      1  0.5630360000000  0.5109190000000  0.4831530000000 1.0
C      1  0.5179700000000  0.5596380000000  0.4713820000000 1.0
C      1  0.4609420000000  0.4711030000000  0.4576270000000 1.0
C      1  0.5383370000000  0.4675920000000  0.4881480000000 1.0
C      1  0.5439790000000  0.4649830000000  0.5371500000000 1.0
C      1  0.4999540000000  0.4956310000000  0.5033920000000 1.0
C      1  0.4920990000000  0.5424680000000  0.5583410000000 1.0
C      1  0.5476110000000  0.4895100000000  0.4718170000000 1.0
C      1  0.5419040000000  0.5275870000000  0.4498360000000 1.0
C      1  0.4981130000000  0.5135460000000  0.5529180000000 1.0
C      1  0.5438700000000  0.5499270000000  0.4664440000000 1.0
C      1  0.4794640000000  0.4477140000000  0.5173940000000 1.0
C      1  0.5131950000000  0.5584420000000  0.5495180000000 1.0
C      1  0.4421280000000  0.5206950000000  0.5139860000000 1.0
C      1  0.4527390000000  0.4799180000000  0.4839320000000 1.0
C      1  0.5388640000000  0.5109370000000  0.5262640000000 1.0
C      1  0.4994800000000  0.4667490000000  0.5292230000000 1.0
C      1  0.4921890000000  0.4783230000000  0.4269740000000 1.0
C      1  0.5274530000000  0.5075430000000  0.5526770000000 1.0
C      1  0.5292590000000  0.4784420000000  0.5600540000000 1.0
C      1  0.4622410000000  0.5536040000000  0.4789360000000 1.0
C      1  0.5109230000000  0.4439560000000  0.4540720000000 1.0
C      1  0.4683680000000  0.5320740000000  0.5211990000000 1.0
C      1  0.5078100000000  0.5402610000000  0.4906520000000 1.0
C      1  0.5160050000000  0.4909250000000  0.4347460000000 1.0
C      1  0.5557490000000  0.5378010000000  0.4905560000000 1.0
C      1  0.4759250000000  0.5164610000000  0.4518230000000 1.0
C      1  0.5232350000000  0.4490650000000  0.5246220000000 1.0
C      1  0.5264910000000  0.5044740000000  0.4577620000000 1.0
C      1  0.4671410000000  0.5474740000000  0.5462110000000 1.0
C      1  0.4567050000000  0.5277170000000  0.4694070000000 1.0
C      1  0.5155990000000  0.4499910000000  0.4807710000000 1.0
C      1  0.4475990000000  0.5085600000000  0.4890620000000 1.0
C      1  0.5033180000000  0.5124470000000  0.4780150000000 1.0
C      1  0.4982110000000  0.4348780000000  0.4986160000000 1.0
C      1  0.5516530000000  0.4859880000000  0.5179490000000 1.0
C      1  0.5323450000000  0.5587500000000  0.5304850000000 1.0
C      1  0.4532800000000  0.4592850000000  0.5061990000000 1.0
C      1  0.4689390000000  0.4918480000000  0.4388780000000 1.0
C      1  0.4300380000000  0.4409900000000  0.5071040000000 1.0
C      1  0.4309280000000  0.4609200000000  0.5255190000000 1.0
C      1  0.4887030000000  0.4523050000000  0.4398390000000 1.0
C      1  0.4803730000000  0.5495370000000  0.4999470000000 1.0
C      1  0.4997930000000  0.4698910000000  0.5602530000000 1.0
C      1  0.4867120000000  0.5089650000000  0.5256550000000 1.0
END
