TITL C-950535-5962-368 -7.76917280058159e-07 125000 -1036.38193981654 0 0 165 (C1) n - 1
REM
REM in /home/bkarasulu/work/CARBON/AIRSS/Generating-Clusters/EDIP-Nigel-Params/with-SteepDescent/Only-C1/SD-CG/HFTN-CG
REM
REM
REM
REM
REM
REM ./C.cell (11c1c37f851c82e70ff6c80c92926a4b)
REM
REM compiler GCC version 9.2.1 20190827 (Red Hat 9.2.1-1)
REM options -cpp -mtune=generic -march=x86-64 -g -O0 -fpre-include=/usr/include/finclude/math-vector-fortran.h
REM seed -511305173 1007070134 1762425943 17785821 1518514434 -1938851411 -1323846777 2129779860 813824234 -1223113482 1596430638 -2091920965 -1626026966 1837301310 -1156633506 -1557928499 -197537802 1025593082 927276380 -316099797 -939985367 -1639932479 -1259738704 -765118901 946187325 1854440059 1249919137 -1690734458 -826406174 812601916 -32117050 557687077 -1215393879
REM
CELL 1.54180   50.00000   50.00000   50.00000   90.00000   90.00000   90.00000
LATT -1
SFAC C  
C      1  0.4852980000000  0.5463590000000  0.5249220000000 1.0
C      1  0.6082950000000  0.5059350000000  0.5174660000000 1.0
C      1  0.5930950000000  0.5150230000000  0.5648150000000 1.0
C      1  0.4679270000000  0.6050650000000  0.4660820000000 1.0
C      1  0.4322160000000  0.4389820000000  0.4503060000000 1.0
C      1  0.4854530000000  0.4584110000000  0.4107420000000 1.0
C      1  0.4637020000000  0.5268400000000  0.5348250000000 1.0
C      1  0.4622880000000  0.5360810000000  0.4578370000000 1.0
C      1  0.4123170000000  0.5255840000000  0.4861340000000 1.0
C      1  0.4748160000000  0.5252240000000  0.4290120000000 1.0
C      1  0.5862450000000  0.4442800000000  0.4686650000000 1.0
C      1  0.5543880000000  0.5018040000000  0.4026360000000 1.0
C      1  0.4604810000000  0.4477320000000  0.4769560000000 1.0
C      1  0.4894370000000  0.5069910000000  0.6078980000000 1.0
C      1  0.4703920000000  0.4989610000000  0.3854640000000 1.0
C      1  0.5151660000000  0.4918660000000  0.4392320000000 1.0
C      1  0.4451220000000  0.4684880000000  0.4906240000000 1.0
C      1  0.4413900000000  0.4839420000000  0.4206420000000 1.0
C      1  0.4476360000000  0.5871880000000  0.5560920000000 1.0
C      1  0.4405930000000  0.4069190000000  0.5214300000000 1.0
C      1  0.4624530000000  0.4360320000000  0.5842190000000 1.0
C      1  0.5483050000000  0.4235450000000  0.5520040000000 1.0
C      1  0.5364150000000  0.4856120000000  0.6018000000000 1.0
C      1  0.5161420000000  0.5419360000000  0.6124160000000 1.0
C      1  0.4027750000000  0.4401600000000  0.4955070000000 1.0
C      1  0.5506580000000  0.5817430000000  0.5334180000000 1.0
C      1  0.5175370000000  0.5279130000000  0.4655830000000 1.0
C      1  0.4461090000000  0.5889680000000  0.5069210000000 1.0
C      1  0.5615020000000  0.4846450000000  0.5882690000000 1.0
C      1  0.4326520000000  0.5676410000000  0.4667090000000 1.0
C      1  0.5867290000000  0.5427540000000  0.5572700000000 1.0
C      1  0.4200430000000  0.4681230000000  0.5321160000000 1.0
C      1  0.4266150000000  0.4999710000000  0.5987780000000 1.0
C      1  0.4730120000000  0.4775850000000  0.5604870000000 1.0
C      1  0.5618040000000  0.5500990000000  0.5719230000000 1.0
C      1  0.4660620000000  0.4123240000000  0.5655920000000 1.0
C      1  0.5613900000000  0.4949440000000  0.5282150000000 1.0
C      1  0.5617050000000  0.5715780000000  0.4327350000000 1.0
C      1  0.5466660000000  0.5232540000000  0.5742370000000 1.0
C      1  0.4923110000000  0.5104500000000  0.4755550000000 1.0
C      1  0.5191800000000  0.5792190000000  0.5723510000000 1.0
C      1  0.5943730000000  0.5306160000000  0.5053690000000 1.0
C      1  0.4352190000000  0.5119850000000  0.4154360000000 1.0
C      1  0.5903930000000  0.4971620000000  0.5402730000000 1.0
C      1  0.5031470000000  0.5294220000000  0.3735600000000 1.0
C      1  0.4955860000000  0.4858010000000  0.4602260000000 1.0
C      1  0.4814340000000  0.4467600000000  0.4374710000000 1.0
C      1  0.4963890000000  0.4072070000000  0.5638950000000 1.0
C      1  0.5209830000000  0.5299230000000  0.5869090000000 1.0
C      1  0.5082380000000  0.4111190000000  0.4597840000000 1.0
C      1  0.4498820000000  0.4644390000000  0.5762400000000 1.0
C      1  0.6173790000000  0.4850460000000  0.5015560000000 1.0
C      1  0.4989840000000  0.5674880000000  0.4555410000000 1.0
C      1  0.5049360000000  0.5647380000000  0.5944860000000 1.0
C      1  0.5688480000000  0.5458770000000  0.4245030000000 1.0
C      1  0.4944980000000  0.4200940000000  0.5326550000000 1.0
C      1  0.4367780000000  0.5442870000000  0.5373690000000 1.0
C      1  0.5938980000000  0.4694530000000  0.4970100000000 1.0
C      1  0.4926860000000  0.4133060000000  0.4854500000000 1.0
C      1  0.5611230000000  0.5851350000000  0.4571190000000 1.0
C      1  0.4579300000000  0.4269200000000  0.4387070000000 1.0
C      1  0.4337200000000  0.5625520000000  0.5133640000000 1.0
C      1  0.5824870000000  0.4557220000000  0.5216380000000 1.0
C      1  0.5366110000000  0.5957120000000  0.4646940000000 1.0
C      1  0.4841750000000  0.5951560000000  0.5077260000000 1.0
C      1  0.3954810000000  0.4680830000000  0.4919030000000 1.0
C      1  0.4974340000000  0.5268340000000  0.6266110000000 1.0
C      1  0.4718950000000  0.4730540000000  0.4505170000000 1.0
C      1  0.5370840000000  0.4557840000000  0.4689580000000 1.0
C      1  0.5529600000000  0.4133910000000  0.4906990000000 1.0
C      1  0.4715550000000  0.4660420000000  0.5325800000000 1.0
C      1  0.5960780000000  0.4686560000000  0.4583230000000 1.0
C      1  0.4161580000000  0.4137170000000  0.5333370000000 1.0
C      1  0.4246600000000  0.5512910000000  0.4887240000000 1.0
C      1  0.5356250000000  0.5044030000000  0.4573440000000 1.0
C      1  0.5467470000000  0.4523220000000  0.5529230000000 1.0
C      1  0.4524830000000  0.5505040000000  0.5854810000000 1.0
C      1  0.5912570000000  0.4681040000000  0.5480530000000 1.0
C      1  0.4631300000000  0.4169230000000  0.5364370000000 1.0
C      1  0.4501880000000  0.4790520000000  0.5176340000000 1.0
C      1  0.5134320000000  0.4533910000000  0.4013390000000 1.0
C      1  0.4461700000000  0.4855050000000  0.4661280000000 1.0
C      1  0.4043150000000  0.4864610000000  0.4527700000000 1.0
C      1  0.4665840000000  0.4002980000000  0.4492650000000 1.0
C      1  0.5591420000000  0.4579190000000  0.4043800000000 1.0
C      1  0.4630710000000  0.4757700000000  0.4021130000000 1.0
C      1  0.4335130000000  0.5556460000000  0.4408080000000 1.0
C      1  0.4942610000000  0.4525340000000  0.5184800000000 1.0
C      1  0.5485090000000  0.5292880000000  0.4106960000000 1.0
C      1  0.4737320000000  0.5475790000000  0.4065830000000 1.0
C      1  0.5227750000000  0.5486060000000  0.4877380000000 1.0
C      1  0.5540170000000  0.5500680000000  0.4921120000000 1.0
C      1  0.4448420000000  0.5926890000000  0.4771060000000 1.0
C      1  0.4112750000000  0.4928130000000  0.5757720000000 1.0
C      1  0.4984900000000  0.5899130000000  0.5555970000000 1.0
C      1  0.4662460000000  0.3991910000000  0.4792910000000 1.0
C      1  0.5696890000000  0.5232680000000  0.4889910000000 1.0
C      1  0.5084600000000  0.4204110000000  0.5854650000000 1.0
C      1  0.4128850000000  0.5264900000000  0.5365730000000 1.0
C      1  0.5013760000000  0.5491920000000  0.3940860000000 1.0
C      1  0.5310100000000  0.5985620000000  0.5229840000000 1.0
C      1  0.5820150000000  0.5455060000000  0.5285360000000 1.0
C      1  0.5591910000000  0.4379150000000  0.4767820000000 1.0
C      1  0.4643810000000  0.5068880000000  0.5100930000000 1.0
C      1  0.4220730000000  0.4260550000000  0.4769280000000 1.0
C      1  0.4918480000000  0.6058430000000  0.4815520000000 1.0
C      1  0.4535450000000  0.5131800000000  0.4781630000000 1.0
C      1  0.6074080000000  0.5507160000000  0.4872060000000 1.0
C      1  0.4728200000000  0.5885020000000  0.5688910000000 1.0
C      1  0.5165520000000  0.4757790000000  0.5151240000000 1.0
C      1  0.5333700000000  0.4153010000000  0.5103180000000 1.0
C      1  0.5171850000000  0.5482030000000  0.4436690000000 1.0
C      1  0.5069330000000  0.4042100000000  0.5100500000000 1.0
C      1  0.5524650000000  0.4638810000000  0.5256250000000 1.0
C      1  0.5326310000000  0.5347520000000  0.5312380000000 1.0
C      1  0.4745820000000  0.5682590000000  0.5897550000000 1.0
C      1  0.4756960000000  0.5641770000000  0.5028010000000 1.0
C      1  0.5041120000000  0.6003520000000  0.5294910000000 1.0
C      1  0.5691880000000  0.4636060000000  0.5687080000000 1.0
C      1  0.4863480000000  0.4420500000000  0.4908430000000 1.0
C      1  0.5546070000000  0.5539620000000  0.5222810000000 1.0
C      1  0.5462190000000  0.5741200000000  0.5617830000000 1.0
C      1  0.5178160000000  0.4898250000000  0.5420200000000 1.0
C      1  0.5599120000000  0.4971570000000  0.4972650000000 1.0
C      1  0.5198390000000  0.4653510000000  0.5581060000000 1.0
C      1  0.5677810000000  0.4815220000000  0.4187430000000 1.0
C      1  0.5251910000000  0.4350080000000  0.4209780000000 1.0
C      1  0.5918820000000  0.4842320000000  0.4345280000000 1.0
C      1  0.4987800000000  0.5053710000000  0.3884850000000 1.0
C      1  0.5096370000000  0.5338090000000  0.5130470000000 1.0
C      1  0.5082280000000  0.4862860000000  0.5988550000000 1.0
C      1  0.4979510000000  0.5051670000000  0.5054420000000 1.0
C      1  0.4229730000000  0.4697040000000  0.5622760000000 1.0
C      1  0.3999120000000  0.4846440000000  0.5158860000000 1.0
C      1  0.4492560000000  0.4826660000000  0.5999460000000 1.0
C      1  0.3831310000000  0.4764200000000  0.4684110000000 1.0
C      1  0.5357040000000  0.4698440000000  0.3907400000000 1.0
C      1  0.5024030000000  0.5114470000000  0.4192440000000 1.0
C      1  0.4908210000000  0.4416810000000  0.5910020000000 1.0
C      1  0.4423650000000  0.4106670000000  0.4922470000000 1.0
C      1  0.4636770000000  0.5095070000000  0.5916830000000 1.0
C      1  0.4548630000000  0.5233200000000  0.3957570000000 1.0
C      1  0.5192320000000  0.5368490000000  0.4163360000000 1.0
C      1  0.4083790000000  0.5122210000000  0.5119500000000 1.0
C      1  0.4980170000000  0.4676580000000  0.5780630000000 1.0
C      1  0.5396950000000  0.4847320000000  0.4786940000000 1.0
C      1  0.4228770000000  0.4678140000000  0.4377410000000 1.0
C      1  0.5746140000000  0.5696390000000  0.4786680000000 1.0
C      1  0.4133430000000  0.5137440000000  0.4591650000000 1.0
C      1  0.4040110000000  0.5136570000000  0.5592690000000 1.0
C      1  0.5400240000000  0.5102740000000  0.5449840000000 1.0
C      1  0.5907090000000  0.5351250000000  0.4400250000000 1.0
C      1  0.5125780000000  0.5846640000000  0.4752270000000 1.0
C      1  0.4698120000000  0.5084390000000  0.5609230000000 1.0
C      1  0.6026560000000  0.5531100000000  0.4591120000000 1.0
C      1  0.4936000000000  0.3949170000000  0.4418230000000 1.0
C      1  0.6013020000000  0.5101320000000  0.4353210000000 1.0
C      1  0.4108960000000  0.4396580000000  0.5235680000000 1.0
C      1  0.5784460000000  0.5074700000000  0.5888820000000 1.0
C      1  0.4811150000000  0.5531390000000  0.4736470000000 1.0
C      1  0.5532130000000  0.4342260000000  0.4184570000000 1.0
C      1  0.4389400000000  0.5609050000000  0.5623860000000 1.0
C      1  0.4243460000000  0.5285570000000  0.4368110000000 1.0
C      1  0.5517090000000  0.4081500000000  0.5295740000000 1.0
C      1  0.5126440000000  0.4381930000000  0.4482140000000 1.0
END
