TITL C-950525-1983-125 -1.17184408788317e-06 125000 -952.960060485026 0 0 153 (C1) n - 1
REM
REM in /home/bkarasulu/work/CARBON/AIRSS/Generating-Clusters/EDIP-Nigel-Params/with-SteepDescent/Only-C1/SD-CG/HFTN-CG
REM
REM
REM
REM
REM
REM ./C.cell (11c1c37f851c82e70ff6c80c92926a4b)
REM
REM compiler GCC version 9.2.1 20190827 (Red Hat 9.2.1-1)
REM options -cpp -mtune=generic -march=x86-64 -g -O0 -fpre-include=/usr/include/finclude/math-vector-fortran.h
REM seed 1222437885 -1559273087 -143020757 -2131317553 562620745 865637831 1256912460 908553302 -189833805 -484964204 2113492028 -1963446571 -524955889 -1853490990 425702676 665571454 1454692646 -1217228642 390912449 828552903 -425471606 -670042662 -517025795 1482469813 -1554853391 -773991841 -1148561182 1654841054 -396831662 -530070498 322005415 -1658784567 1770507516
REM
CELL 1.54180   50.00000   50.00000   50.00000   90.00000   90.00000   90.00000
LATT -1
SFAC C  
C      1  0.5615310000000  0.4492650000000  0.4520970000000 1.0
C      1  0.5315090000000  0.4149770000000  0.4755110000000 1.0
C      1  0.4834360000000  0.5482540000000  0.4474550000000 1.0
C      1  0.4029930000000  0.5340550000000  0.4594210000000 1.0
C      1  0.4410070000000  0.5763590000000  0.5113020000000 1.0
C      1  0.5180000000000  0.5886820000000  0.5378280000000 1.0
C      1  0.5120230000000  0.5902490000000  0.5059230000000 1.0
C      1  0.4752690000000  0.5365170000000  0.4945930000000 1.0
C      1  0.4728220000000  0.5545800000000  0.5722710000000 1.0
C      1  0.5672020000000  0.5648540000000  0.4841690000000 1.0
C      1  0.4474100000000  0.5196870000000  0.4555890000000 1.0
C      1  0.5108930000000  0.4696340000000  0.4038230000000 1.0
C      1  0.5100550000000  0.5454870000000  0.5422870000000 1.0
C      1  0.4492330000000  0.4686250000000  0.5985400000000 1.0
C      1  0.5305420000000  0.5442710000000  0.5198800000000 1.0
C      1  0.5535100000000  0.5211120000000  0.4672130000000 1.0
C      1  0.5790440000000  0.5406640000000  0.5312230000000 1.0
C      1  0.5423200000000  0.5633660000000  0.4151890000000 1.0
C      1  0.5144650000000  0.5458870000000  0.4441980000000 1.0
C      1  0.5163620000000  0.4016190000000  0.4974750000000 1.0
C      1  0.5015850000000  0.4368520000000  0.5832520000000 1.0
C      1  0.4791230000000  0.5282310000000  0.5864790000000 1.0
C      1  0.5160830000000  0.4980040000000  0.4450350000000 1.0
C      1  0.4550060000000  0.4781130000000  0.4271640000000 1.0
C      1  0.4326980000000  0.5368170000000  0.5965550000000 1.0
C      1  0.5026460000000  0.5198950000000  0.4041930000000 1.0
C      1  0.5722510000000  0.4697280000000  0.5781300000000 1.0
C      1  0.4906140000000  0.4996000000000  0.4571020000000 1.0
C      1  0.4395170000000  0.4603320000000  0.5715840000000 1.0
C      1  0.4577370000000  0.5840040000000  0.4440320000000 1.0
C      1  0.4469950000000  0.5612340000000  0.5595200000000 1.0
C      1  0.5467670000000  0.4062860000000  0.5325620000000 1.0
C      1  0.4901040000000  0.5083590000000  0.5632920000000 1.0
C      1  0.5409380000000  0.5623000000000  0.5798610000000 1.0
C      1  0.5657640000000  0.5299100000000  0.4395040000000 1.0
C      1  0.6176820000000  0.4594410000000  0.5103450000000 1.0
C      1  0.5263230000000  0.4729750000000  0.4804650000000 1.0
C      1  0.4923730000000  0.4121590000000  0.5393510000000 1.0
C      1  0.5456500000000  0.4389410000000  0.5999290000000 1.0
C      1  0.4742820000000  0.4344040000000  0.4122400000000 1.0
C      1  0.4423490000000  0.4943520000000  0.5454700000000 1.0
C      1  0.5658560000000  0.5680310000000  0.5330310000000 1.0
C      1  0.4509260000000  0.4366690000000  0.5570090000000 1.0
C      1  0.4950290000000  0.4934060000000  0.3924640000000 1.0
C      1  0.4456010000000  0.5525230000000  0.5306700000000 1.0
C      1  0.5842590000000  0.4838690000000  0.5568960000000 1.0
C      1  0.5575380000000  0.4516750000000  0.5353570000000 1.0
C      1  0.5513270000000  0.5706840000000  0.5075440000000 1.0
C      1  0.5236510000000  0.4901490000000  0.5272280000000 1.0
C      1  0.5428170000000  0.5353450000000  0.3929480000000 1.0
C      1  0.4255120000000  0.5659590000000  0.4888940000000 1.0
C      1  0.5399280000000  0.4666510000000  0.4089480000000 1.0
C      1  0.5299520000000  0.4344010000000  0.5764780000000 1.0
C      1  0.3980190000000  0.4908990000000  0.5473390000000 1.0
C      1  0.4370010000000  0.4533550000000  0.4309920000000 1.0
C      1  0.5482630000000  0.5166370000000  0.5614830000000 1.0
C      1  0.5574260000000  0.4882440000000  0.4176320000000 1.0
C      1  0.5131890000000  0.5629460000000  0.5888960000000 1.0
C      1  0.5016330000000  0.5063770000000  0.5147900000000 1.0
C      1  0.4444490000000  0.4947480000000  0.6058500000000 1.0
C      1  0.5524690000000  0.5239530000000  0.5302870000000 1.0
C      1  0.4576920000000  0.4196130000000  0.4557600000000 1.0
C      1  0.5959110000000  0.5394830000000  0.5066830000000 1.0
C      1  0.4870950000000  0.4056580000000  0.4922850000000 1.0
C      1  0.4540540000000  0.5204680000000  0.6025920000000 1.0
C      1  0.5420790000000  0.4566500000000  0.4996280000000 1.0
C      1  0.3979070000000  0.5070000000000  0.4694010000000 1.0
C      1  0.5483870000000  0.5176110000000  0.4179370000000 1.0
C      1  0.5306400000000  0.5429560000000  0.4717320000000 1.0
C      1  0.5140830000000  0.5322570000000  0.4958680000000 1.0
C      1  0.4740110000000  0.4588060000000  0.5161790000000 1.0
C      1  0.4380020000000  0.5460270000000  0.4163130000000 1.0
C      1  0.5515750000000  0.4668200000000  0.5971380000000 1.0
C      1  0.5630390000000  0.4798440000000  0.4464840000000 1.0
C      1  0.4862520000000  0.5968490000000  0.5167450000000 1.0
C      1  0.4258050000000  0.4405600000000  0.5083800000000 1.0
C      1  0.4529480000000  0.4726970000000  0.4725980000000 1.0
C      1  0.4854410000000  0.4617550000000  0.5441510000000 1.0
C      1  0.5088610000000  0.5732940000000  0.4796020000000 1.0
C      1  0.5912380000000  0.4597280000000  0.5071160000000 1.0
C      1  0.4664540000000  0.5855880000000  0.4989860000000 1.0
C      1  0.5201440000000  0.4143110000000  0.5239210000000 1.0
C      1  0.5598880000000  0.5733110000000  0.4588580000000 1.0
C      1  0.5221150000000  0.4964770000000  0.5658530000000 1.0
C      1  0.5821500000000  0.5049990000000  0.4822210000000 1.0
C      1  0.5944050000000  0.5319670000000  0.5542300000000 1.0
C      1  0.5080790000000  0.5890330000000  0.4529220000000 1.0
C      1  0.5251070000000  0.4832320000000  0.5946180000000 1.0
C      1  0.5737660000000  0.4757960000000  0.5286660000000 1.0
C      1  0.5464750000000  0.5334920000000  0.5861760000000 1.0
C      1  0.5198380000000  0.5204530000000  0.4280890000000 1.0
C      1  0.5430440000000  0.5733970000000  0.5510500000000 1.0
C      1  0.5002310000000  0.4436400000000  0.4119200000000 1.0
C      1  0.5041040000000  0.5368820000000  0.6023370000000 1.0
C      1  0.4269080000000  0.5150120000000  0.4131050000000 1.0
C      1  0.4009220000000  0.5162920000000  0.5348590000000 1.0
C      1  0.4363950000000  0.4825880000000  0.5181970000000 1.0
C      1  0.4704520000000  0.5396490000000  0.5228960000000 1.0
C      1  0.4358490000000  0.4111780000000  0.4711010000000 1.0
C      1  0.5785520000000  0.4322920000000  0.5015720000000 1.0
C      1  0.4786390000000  0.4729770000000  0.4572830000000 1.0
C      1  0.4106420000000  0.4859620000000  0.4538160000000 1.0
C      1  0.5359500000000  0.4556900000000  0.5571560000000 1.0
C      1  0.6035960000000  0.5149300000000  0.4967240000000 1.0
C      1  0.5270080000000  0.5181430000000  0.6034820000000 1.0
C      1  0.5632940000000  0.5592250000000  0.4351850000000 1.0
C      1  0.4714170000000  0.4866310000000  0.5561880000000 1.0
C      1  0.4213890000000  0.5354270000000  0.4923070000000 1.0
C      1  0.4647910000000  0.5620440000000  0.4249370000000 1.0
C      1  0.5392960000000  0.4926240000000  0.4617740000000 1.0
C      1  0.4496300000000  0.5150240000000  0.3959470000000 1.0
C      1  0.4487370000000  0.5205550000000  0.4858060000000 1.0
C      1  0.5524820000000  0.4954440000000  0.5177100000000 1.0
C      1  0.4839700000000  0.4103190000000  0.4625200000000 1.0
C      1  0.4523860000000  0.4916830000000  0.4951160000000 1.0
C      1  0.4709370000000  0.4108510000000  0.5185910000000 1.0
C      1  0.4233660000000  0.4349800000000  0.4792570000000 1.0
C      1  0.5187490000000  0.4437410000000  0.5151050000000 1.0
C      1  0.4277470000000  0.5239490000000  0.5456030000000 1.0
C      1  0.4338470000000  0.4987420000000  0.4375000000000 1.0
C      1  0.5943740000000  0.5610370000000  0.4890490000000 1.0
C      1  0.5094210000000  0.4271200000000  0.4582000000000 1.0
C      1  0.5147760000000  0.4630990000000  0.5375820000000 1.0
C      1  0.5008830000000  0.4622980000000  0.5979900000000 1.0
C      1  0.5448140000000  0.4433450000000  0.4273410000000 1.0
C      1  0.4744590000000  0.5209100000000  0.4471300000000 1.0
C      1  0.4259750000000  0.5435840000000  0.5704920000000 1.0
C      1  0.4988200000000  0.5661210000000  0.5623260000000 1.0
C      1  0.4521840000000  0.4351370000000  0.5243990000000 1.0
C      1  0.4935380000000  0.4432780000000  0.4988000000000 1.0
C      1  0.5019960000000  0.4556790000000  0.4718410000000 1.0
C      1  0.4283910000000  0.4601310000000  0.4606640000000 1.0
C      1  0.5198520000000  0.5792780000000  0.4268890000000 1.0
C      1  0.5782260000000  0.5113610000000  0.5647140000000 1.0
C      1  0.5677620000000  0.4245110000000  0.5291000000000 1.0
C      1  0.5544640000000  0.4356820000000  0.4804910000000 1.0
C      1  0.4649240000000  0.4906220000000  0.3999690000000 1.0
C      1  0.5186590000000  0.4300180000000  0.4298380000000 1.0
C      1  0.4794530000000  0.4875770000000  0.5050320000000 1.0
C      1  0.4789610000000  0.5634180000000  0.4801800000000 1.0
C      1  0.4826550000000  0.4342350000000  0.5587760000000 1.0
C      1  0.4001280000000  0.5185590000000  0.5059660000000 1.0
C      1  0.4298730000000  0.5435290000000  0.4478240000000 1.0
C      1  0.4527400000000  0.4293480000000  0.4288920000000 1.0
C      1  0.4814160000000  0.5979770000000  0.4507350000000 1.0
C      1  0.4748550000000  0.4629080000000  0.6071910000000 1.0
C      1  0.4391420000000  0.5679630000000  0.4620470000000 1.0
C      1  0.4145310000000  0.4653940000000  0.5145970000000 1.0
C      1  0.5923040000000  0.5173610000000  0.4386630000000 1.0
C      1  0.4911100000000  0.5245660000000  0.5372620000000 1.0
C      1  0.5877680000000  0.4947850000000  0.4555340000000 1.0
C      1  0.4144440000000  0.4730580000000  0.5620950000000 1.0
C      1  0.5183710000000  0.5229050000000  0.3814300000000 1.0
END
