TITL C-951338-5626-658 3.37831156050713e-07 125000 -170.665329990397 0 0 29 (C1) n - 1
REM
REM in /home/bkarasulu/work/CARBON/AIRSS/Generating-Clusters/EDIP-Nigel-Params/with-SteepDescent/Only-C1/SD-CG/HFTN-CG
REM
REM
REM
REM
REM
REM ./C.cell (11c1c37f851c82e70ff6c80c92926a4b)
REM
REM compiler GCC version 9.2.1 20190827 (Red Hat 9.2.1-1)
REM options -cpp -mtune=generic -march=x86-64 -g -O0 -fpre-include=/usr/include/finclude/math-vector-fortran.h
REM seed 1377680776 443200784 -2139019551 -385708550 1891646557 1279823495 -573712849 850314339 -1180305426 1124351270 -1087009434 809765760 1687178312 -774222831 -1275710609 -2085212605 830364517 -733192065 -2083364989 -691990724 -862541805 262443578 -10668635 -1172372829 1037722015 1146301621 1703464550 -883474734 -887666703 635925161 207423116 1169777293 275927817
REM
CELL 1.54180   50.00000   50.00000   50.00000   90.00000   90.00000   90.00000
LATT -1
SFAC C  
C      1  0.5066510000000  0.4764170000000  0.5351130000000 1.0
C      1  0.5006490000000  0.5244700000000  0.5029500000000 1.0
C      1  0.5348060000000  0.4513940000000  0.5061080000000 1.0
C      1  0.5582790000000  0.4629810000000  0.4995660000000 1.0
C      1  0.4542760000000  0.5198490000000  0.5376690000000 1.0
C      1  0.4490000000000  0.4655150000000  0.5083020000000 1.0
C      1  0.5309330000000  0.4993540000000  0.4819520000000 1.0
C      1  0.5271040000000  0.4907390000000  0.4522780000000 1.0
C      1  0.5570380000000  0.5041080000000  0.5244430000000 1.0
C      1  0.4802320000000  0.4810160000000  0.5470200000000 1.0
C      1  0.5040300000000  0.4827890000000  0.4893260000000 1.0
C      1  0.5042980000000  0.4714650000000  0.4593290000000 1.0
C      1  0.5103050000000  0.5371330000000  0.4598990000000 1.0
C      1  0.5231180000000  0.5276490000000  0.4852090000000 1.0
C      1  0.4828320000000  0.4923070000000  0.4522640000000 1.0
C      1  0.5543230000000  0.4906590000000  0.4990990000000 1.0
C      1  0.4680600000000  0.4943550000000  0.4799760000000 1.0
C      1  0.4561400000000  0.5211030000000  0.4889980000000 1.0
C      1  0.5096310000000  0.4624750000000  0.5102440000000 1.0
C      1  0.4784720000000  0.5396210000000  0.4907370000000 1.0
C      1  0.5300000000000  0.5233660000000  0.5437060000000 1.0
C      1  0.4785450000000  0.5108880000000  0.5482960000000 1.0
C      1  0.4857770000000  0.5505230000000  0.4656180000000 1.0
C      1  0.4491150000000  0.4731410000000  0.4827760000000 1.0
C      1  0.4593720000000  0.4692390000000  0.5325940000000 1.0
C      1  0.5050210000000  0.5135480000000  0.5312220000000 1.0
C      1  0.5523910000000  0.5309680000000  0.5292410000000 1.0
C      1  0.5070980000000  0.5122600000000  0.4426150000000 1.0
C      1  0.4425050000000  0.5206670000000  0.5134490000000 1.0
END
