TITL C-950528-5794-450 -2.24981700220062e-06 125000 -1002.97621124045 0 0 162 (C1) n - 1
REM
REM in /home/bkarasulu/work/CARBON/AIRSS/Generating-Clusters/EDIP-Nigel-Params/with-SteepDescent/Only-C1/SD-CG/HFTN-CG
REM
REM
REM
REM
REM
REM ./C.cell (11c1c37f851c82e70ff6c80c92926a4b)
REM
REM compiler GCC version 9.2.1 20190827 (Red Hat 9.2.1-1)
REM options -cpp -mtune=generic -march=x86-64 -g -O0 -fpre-include=/usr/include/finclude/math-vector-fortran.h
REM seed 793513594 1940552697 77065578 1683845189 -226967543 1855650017 -639645997 1881292453 1800859371 -2016542538 320655490 1644128753 1001945174 -1124227561 889556967 -2132349470 1349672293 -743594411 667925014 -2062352509 513766823 -1501026480 72114559 1826918627 1072886847 -919246991 1671289502 296996637 -1184387307 -562970696 -1642977936 59959625 691018002
REM
CELL 1.54180   50.00000   50.00000   50.00000   90.00000   90.00000   90.00000
LATT -1
SFAC C  
C      1  0.4451250000000  0.4429010000000  0.5265410000000 1.0
C      1  0.5054330000000  0.4241760000000  0.4230830000000 1.0
C      1  0.5641550000000  0.5705010000000  0.5626030000000 1.0
C      1  0.4972070000000  0.5948400000000  0.5366910000000 1.0
C      1  0.5234440000000  0.5256690000000  0.3813470000000 1.0
C      1  0.5597200000000  0.5942290000000  0.5011930000000 1.0
C      1  0.4816380000000  0.4584170000000  0.4965450000000 1.0
C      1  0.5801300000000  0.4748300000000  0.5374760000000 1.0
C      1  0.4561630000000  0.4960620000000  0.5302350000000 1.0
C      1  0.5028680000000  0.4765170000000  0.5888650000000 1.0
C      1  0.5474920000000  0.5473290000000  0.4251950000000 1.0
C      1  0.4365260000000  0.5146540000000  0.5827210000000 1.0
C      1  0.4522060000000  0.5320100000000  0.4778290000000 1.0
C      1  0.4887900000000  0.5522430000000  0.4055340000000 1.0
C      1  0.4442240000000  0.4593020000000  0.5516730000000 1.0
C      1  0.5420150000000  0.4588660000000  0.6095080000000 1.0
C      1  0.5586610000000  0.4968590000000  0.4833810000000 1.0
C      1  0.4957270000000  0.5568460000000  0.4667720000000 1.0
C      1  0.4396830000000  0.4776110000000  0.4854370000000 1.0
C      1  0.4624080000000  0.4022620000000  0.4832250000000 1.0
C      1  0.5738520000000  0.4813140000000  0.4510750000000 1.0
C      1  0.4207740000000  0.4751940000000  0.5542960000000 1.0
C      1  0.5756440000000  0.4474750000000  0.5781650000000 1.0
C      1  0.5744180000000  0.5442040000000  0.5054040000000 1.0
C      1  0.4851050000000  0.3821780000000  0.5211050000000 1.0
C      1  0.4967590000000  0.5981790000000  0.4839260000000 1.0
C      1  0.5470770000000  0.5652740000000  0.5223840000000 1.0
C      1  0.5377240000000  0.4624610000000  0.5361180000000 1.0
C      1  0.5166050000000  0.4694030000000  0.6129130000000 1.0
C      1  0.4369480000000  0.5008870000000  0.4153020000000 1.0
C      1  0.4873090000000  0.4607800000000  0.3951320000000 1.0
C      1  0.5922470000000  0.5223340000000  0.5446400000000 1.0
C      1  0.4618270000000  0.4544500000000  0.5747740000000 1.0
C      1  0.5382970000000  0.4577530000000  0.4777530000000 1.0
C      1  0.4866940000000  0.5299800000000  0.5109720000000 1.0
C      1  0.4649930000000  0.5076830000000  0.5878700000000 1.0
C      1  0.5045160000000  0.4235770000000  0.4726770000000 1.0
C      1  0.5193450000000  0.5576210000000  0.4866450000000 1.0
C      1  0.5406480000000  0.4771220000000  0.5013740000000 1.0
C      1  0.4107360000000  0.5400930000000  0.5478550000000 1.0
C      1  0.3974920000000  0.5087160000000  0.4917760000000 1.0
C      1  0.4859410000000  0.4913620000000  0.4635790000000 1.0
C      1  0.5205920000000  0.4361510000000  0.5194140000000 1.0
C      1  0.4955370000000  0.3972770000000  0.5430500000000 1.0
C      1  0.5252220000000  0.5984870000000  0.5412440000000 1.0
C      1  0.5152730000000  0.5353540000000  0.5080330000000 1.0
C      1  0.4535090000000  0.4632110000000  0.4338480000000 1.0
C      1  0.4913490000000  0.4461550000000  0.5222990000000 1.0
C      1  0.4848270000000  0.4724410000000  0.5418860000000 1.0
C      1  0.4893050000000  0.5208390000000  0.5540910000000 1.0
C      1  0.5049450000000  0.5769280000000  0.4456060000000 1.0
C      1  0.4733060000000  0.4781750000000  0.5901100000000 1.0
C      1  0.4656030000000  0.5050450000000  0.4080330000000 1.0
C      1  0.4286010000000  0.4713930000000  0.4178100000000 1.0
C      1  0.5905760000000  0.4998190000000  0.5251900000000 1.0
C      1  0.5342520000000  0.4901030000000  0.4247010000000 1.0
C      1  0.4359540000000  0.5058020000000  0.4466730000000 1.0
C      1  0.4816070000000  0.5588460000000  0.5754490000000 1.0
C      1  0.5810290000000  0.5712750000000  0.5399660000000 1.0
C      1  0.5240690000000  0.5209070000000  0.5991450000000 1.0
C      1  0.5650500000000  0.5783200000000  0.4766270000000 1.0
C      1  0.4615690000000  0.3979410000000  0.5125760000000 1.0
C      1  0.5696570000000  0.4512750000000  0.4478960000000 1.0
C      1  0.4552670000000  0.4331210000000  0.4414400000000 1.0
C      1  0.5358360000000  0.5455700000000  0.5896540000000 1.0
C      1  0.4328560000000  0.5404980000000  0.5673140000000 1.0
C      1  0.5172730000000  0.5839410000000  0.5010420000000 1.0
C      1  0.4838810000000  0.5725870000000  0.4247250000000 1.0
C      1  0.4584820000000  0.5648430000000  0.4394760000000 1.0
C      1  0.4235550000000  0.5449850000000  0.4753500000000 1.0
C      1  0.5503590000000  0.4131010000000  0.4797220000000 1.0
C      1  0.4920250000000  0.3983340000000  0.4800650000000 1.0
C      1  0.4786940000000  0.4202950000000  0.4316420000000 1.0
C      1  0.5287540000000  0.5422120000000  0.5339860000000 1.0
C      1  0.5504740000000  0.4404570000000  0.4285180000000 1.0
C      1  0.4040930000000  0.4509840000000  0.5000230000000 1.0
C      1  0.5772280000000  0.4734280000000  0.5664820000000 1.0
C      1  0.5446350000000  0.5181440000000  0.5410290000000 1.0
C      1  0.4491710000000  0.4274940000000  0.4710820000000 1.0
C      1  0.5797620000000  0.5132950000000  0.4994610000000 1.0
C      1  0.4694820000000  0.5860970000000  0.4863120000000 1.0
C      1  0.4064360000000  0.5139300000000  0.5384730000000 1.0
C      1  0.4186860000000  0.5337880000000  0.4252320000000 1.0
C      1  0.4134950000000  0.4815960000000  0.5006770000000 1.0
C      1  0.5314880000000  0.4201530000000  0.4377610000000 1.0
C      1  0.4654750000000  0.5357150000000  0.4064170000000 1.0
C      1  0.4229560000000  0.4916210000000  0.5296870000000 1.0
C      1  0.4700550000000  0.4223820000000  0.5315850000000 1.0
C      1  0.4257540000000  0.5749460000000  0.4779730000000 1.0
C      1  0.5041860000000  0.6033060000000  0.4574150000000 1.0
C      1  0.5092480000000  0.4473150000000  0.4059810000000 1.0
C      1  0.4589620000000  0.5686660000000  0.5595730000000 1.0
C      1  0.5620440000000  0.5009520000000  0.4316560000000 1.0
C      1  0.5213090000000  0.4066140000000  0.5298930000000 1.0
C      1  0.5413760000000  0.4958800000000  0.5988000000000 1.0
C      1  0.4891940000000  0.4874460000000  0.4921180000000 1.0
C      1  0.5091220000000  0.4620870000000  0.5622010000000 1.0
C      1  0.5667810000000  0.5208180000000  0.5610330000000 1.0
C      1  0.5313360000000  0.4243900000000  0.5732190000000 1.0
C      1  0.4043110000000  0.4718840000000  0.4323530000000 1.0
C      1  0.5093680000000  0.5082650000000  0.4564490000000 1.0
C      1  0.5878240000000  0.5362280000000  0.4588820000000 1.0
C      1  0.4698570000000  0.5865250000000  0.5374820000000 1.0
C      1  0.5776470000000  0.4496230000000  0.5233030000000 1.0
C      1  0.5411090000000  0.6084150000000  0.5184130000000 1.0
C      1  0.5631680000000  0.5285470000000  0.4419890000000 1.0
C      1  0.4270520000000  0.5803610000000  0.5078430000000 1.0
C      1  0.4774170000000  0.5423820000000  0.5988370000000 1.0
C      1  0.4501300000000  0.5839720000000  0.4631270000000 1.0
C      1  0.4598900000000  0.5219020000000  0.5467830000000 1.0
C      1  0.4537350000000  0.4588740000000  0.5018790000000 1.0
C      1  0.4506250000000  0.5483710000000  0.5277380000000 1.0
C      1  0.5228870000000  0.5703440000000  0.5832910000000 1.0
C      1  0.5869530000000  0.4481360000000  0.4956140000000 1.0
C      1  0.5094260000000  0.5081490000000  0.4134630000000 1.0
C      1  0.4771030000000  0.4302020000000  0.5742900000000 1.0
C      1  0.5247520000000  0.4684500000000  0.4498830000000 1.0
C      1  0.5173880000000  0.4976840000000  0.4986590000000 1.0
C      1  0.5487010000000  0.4452600000000  0.5853100000000 1.0
C      1  0.4207080000000  0.5528350000000  0.5221570000000 1.0
C      1  0.5352040000000  0.4604460000000  0.4125890000000 1.0
C      1  0.5621590000000  0.5452980000000  0.5773490000000 1.0
C      1  0.5931510000000  0.5479210000000  0.5284990000000 1.0
C      1  0.5057170000000  0.5468240000000  0.5579150000000 1.0
C      1  0.5438750000000  0.4123430000000  0.5490180000000 1.0
C      1  0.5653780000000  0.4970890000000  0.5795250000000 1.0
C      1  0.5320510000000  0.5123880000000  0.4752570000000 1.0
C      1  0.5437570000000  0.5593000000000  0.4677350000000 1.0
C      1  0.4949080000000  0.4664340000000  0.4505990000000 1.0
C      1  0.5291280000000  0.4936170000000  0.5407630000000 1.0
C      1  0.4662560000000  0.5366270000000  0.4509080000000 1.0
C      1  0.4543340000000  0.4844980000000  0.4590790000000 1.0
C      1  0.4182780000000  0.4326210000000  0.5189150000000 1.0
C      1  0.5994240000000  0.4874970000000  0.4651210000000 1.0
C      1  0.5038750000000  0.4339380000000  0.5658750000000 1.0
C      1  0.4550080000000  0.5897220000000  0.5122080000000 1.0
C      1  0.5415110000000  0.4005270000000  0.4558800000000 1.0
C      1  0.4106010000000  0.4893660000000  0.4539110000000 1.0
C      1  0.5341910000000  0.5678460000000  0.4410220000000 1.0
C      1  0.4206330000000  0.4924770000000  0.5763540000000 1.0
C      1  0.4114790000000  0.5343610000000  0.4994750000000 1.0
C      1  0.4203590000000  0.4331750000000  0.4806720000000 1.0
C      1  0.5637340000000  0.4286260000000  0.5364450000000 1.0
C      1  0.4056560000000  0.5368100000000  0.4523260000000 1.0
C      1  0.4412800000000  0.5512030000000  0.4175560000000 1.0
C      1  0.4671940000000  0.5490950000000  0.4995730000000 1.0
C      1  0.5378460000000  0.5825240000000  0.5622480000000 1.0
C      1  0.5037030000000  0.5067170000000  0.3850350000000 1.0
C      1  0.6031690000000  0.4684850000000  0.4854220000000 1.0
C      1  0.5058090000000  0.3848510000000  0.5015920000000 1.0
C      1  0.5281810000000  0.4316580000000  0.4884740000000 1.0
C      1  0.4958910000000  0.5218970000000  0.6062380000000 1.0
C      1  0.5004330000000  0.4984540000000  0.5389420000000 1.0
C      1  0.5995180000000  0.5144800000000  0.4766730000000 1.0
C      1  0.3934530000000  0.5108880000000  0.4623140000000 1.0
C      1  0.4978880000000  0.5313110000000  0.4428370000000 1.0
C      1  0.4849000000000  0.4446200000000  0.4699730000000 1.0
C      1  0.5703500000000  0.4358180000000  0.4741400000000 1.0
C      1  0.5860250000000  0.5579450000000  0.4807160000000 1.0
C      1  0.5367410000000  0.5398200000000  0.4006400000000 1.0
C      1  0.4684690000000  0.5061200000000  0.5032890000000 1.0
C      1  0.4783030000000  0.4770510000000  0.4168990000000 1.0
END
