TITL C-950528-5794-634 -1.76571979114289e-06 125000 -676.220316212688 0 0 109 (C1) n - 1
REM
REM in /home/bkarasulu/work/CARBON/AIRSS/Generating-Clusters/EDIP-Nigel-Params/with-SteepDescent/Only-C1/SD-CG/HFTN-CG
REM
REM
REM
REM
REM
REM ./C.cell (11c1c37f851c82e70ff6c80c92926a4b)
REM
REM compiler GCC version 9.2.1 20190827 (Red Hat 9.2.1-1)
REM options -cpp -mtune=generic -march=x86-64 -g -O0 -fpre-include=/usr/include/finclude/math-vector-fortran.h
REM seed -739428161 -1101203065 -481115952 1065488411 1181149008 -648296510 1754423787 -784109464 628408493 1137025928 310312719 -2084599944 -1690499010 1878777084 853125389 791787473 -847476883 -414739584 1772465906 1429161049 1465954328 1262399475 -152999957 1022040105 1886007287 -1496894162 -821022124 -742270490 -9738153 901789349 -1098968102 1265389784 1690129701
REM
CELL 1.54180   50.00000   50.00000   50.00000   90.00000   90.00000   90.00000
LATT -1
SFAC C  
C      1  0.4488240000000  0.5500410000000  0.5351500000000 1.0
C      1  0.5307480000000  0.4146420000000  0.5262170000000 1.0
C      1  0.5245210000000  0.4862210000000  0.4585370000000 1.0
C      1  0.4601750000000  0.5299240000000  0.4920190000000 1.0
C      1  0.4336210000000  0.5323330000000  0.4636750000000 1.0
C      1  0.5404630000000  0.4861110000000  0.4848850000000 1.0
C      1  0.4584510000000  0.5288830000000  0.4393850000000 1.0
C      1  0.5411760000000  0.5317170000000  0.5879690000000 1.0
C      1  0.5642330000000  0.5280450000000  0.5407950000000 1.0
C      1  0.4787020000000  0.4288400000000  0.4416890000000 1.0
C      1  0.4243060000000  0.5607260000000  0.4654230000000 1.0
C      1  0.4868890000000  0.5703400000000  0.4591450000000 1.0
C      1  0.5469550000000  0.4849400000000  0.5661410000000 1.0
C      1  0.5114340000000  0.5238920000000  0.5788930000000 1.0
C      1  0.4345590000000  0.4473460000000  0.5154260000000 1.0
C      1  0.5123580000000  0.4579130000000  0.4563490000000 1.0
C      1  0.4951220000000  0.4527250000000  0.5787310000000 1.0
C      1  0.4336850000000  0.5024640000000  0.4043640000000 1.0
C      1  0.4441690000000  0.4437850000000  0.4886020000000 1.0
C      1  0.5947330000000  0.4828110000000  0.5095080000000 1.0
C      1  0.4568590000000  0.5165390000000  0.4094070000000 1.0
C      1  0.5279560000000  0.5548520000000  0.4389520000000 1.0
C      1  0.5713900000000  0.5280840000000  0.4550330000000 1.0
C      1  0.4665980000000  0.4960360000000  0.5805300000000 1.0
C      1  0.5304900000000  0.4338060000000  0.4625880000000 1.0
C      1  0.4835930000000  0.4993370000000  0.4173790000000 1.0
C      1  0.5475980000000  0.4844320000000  0.4278110000000 1.0
C      1  0.4924580000000  0.4946160000000  0.4931540000000 1.0
C      1  0.5732120000000  0.4528730000000  0.4528990000000 1.0
C      1  0.4171910000000  0.4856820000000  0.4892520000000 1.0
C      1  0.5045110000000  0.5437890000000  0.4246780000000 1.0
C      1  0.5310170000000  0.5624150000000  0.5482760000000 1.0
C      1  0.5467350000000  0.5321420000000  0.4403660000000 1.0
C      1  0.5184310000000  0.4873550000000  0.5525470000000 1.0
C      1  0.4289490000000  0.4919270000000  0.5374580000000 1.0
C      1  0.4654800000000  0.5254330000000  0.5740060000000 1.0
C      1  0.5007970000000  0.5593110000000  0.5539890000000 1.0
C      1  0.5678410000000  0.4993420000000  0.5477610000000 1.0
C      1  0.4656120000000  0.5267630000000  0.5439430000000 1.0
C      1  0.5828510000000  0.5474140000000  0.4729690000000 1.0
C      1  0.5578900000000  0.4393170000000  0.4722620000000 1.0
C      1  0.5955960000000  0.4995420000000  0.4866720000000 1.0
C      1  0.5106830000000  0.5330670000000  0.4815270000000 1.0
C      1  0.4583310000000  0.4986660000000  0.5306220000000 1.0
C      1  0.5283820000000  0.5610130000000  0.5170570000000 1.0
C      1  0.4735870000000  0.4749350000000  0.5415990000000 1.0
C      1  0.5015090000000  0.4485580000000  0.4289430000000 1.0
C      1  0.5183210000000  0.4904940000000  0.5056540000000 1.0
C      1  0.4817650000000  0.4216530000000  0.5439090000000 1.0
C      1  0.4794960000000  0.5511320000000  0.4382780000000 1.0
C      1  0.4272020000000  0.4809770000000  0.4464240000000 1.0
C      1  0.4882600000000  0.5428080000000  0.5828190000000 1.0
C      1  0.4626720000000  0.4212200000000  0.5216330000000 1.0
C      1  0.5508580000000  0.5443170000000  0.5612540000000 1.0
C      1  0.5170280000000  0.5717780000000  0.4606500000000 1.0
C      1  0.5472440000000  0.4537820000000  0.5673380000000 1.0
C      1  0.4420550000000  0.4810430000000  0.5716010000000 1.0
C      1  0.5803660000000  0.5430370000000  0.5200510000000 1.0
C      1  0.5729120000000  0.5678930000000  0.5040390000000 1.0
C      1  0.4746410000000  0.5019410000000  0.4473070000000 1.0
C      1  0.4861670000000  0.5793960000000  0.5371210000000 1.0
C      1  0.4149570000000  0.5296200000000  0.5102420000000 1.0
C      1  0.4188460000000  0.4876900000000  0.4209380000000 1.0
C      1  0.4935800000000  0.5340230000000  0.5350350000000 1.0
C      1  0.5463270000000  0.4992940000000  0.5923550000000 1.0
C      1  0.5349220000000  0.5852570000000  0.4780290000000 1.0
C      1  0.5132360000000  0.5159350000000  0.5497000000000 1.0
C      1  0.4167930000000  0.5148340000000  0.4853660000000 1.0
C      1  0.5199450000000  0.4398340000000  0.5674440000000 1.0
C      1  0.5090220000000  0.5161180000000  0.4155540000000 1.0
C      1  0.5134980000000  0.4136790000000  0.4768040000000 1.0
C      1  0.4886310000000  0.5433210000000  0.5000960000000 1.0
C      1  0.5766140000000  0.5006980000000  0.4635160000000 1.0
C      1  0.5205480000000  0.4725570000000  0.5273190000000 1.0
C      1  0.5560020000000  0.5125380000000  0.5000450000000 1.0
C      1  0.4558790000000  0.4761070000000  0.4512140000000 1.0
C      1  0.4988700000000  0.5709290000000  0.5111630000000 1.0
C      1  0.4125910000000  0.5151710000000  0.5341810000000 1.0
C      1  0.5316720000000  0.5326060000000  0.5032400000000 1.0
C      1  0.4631640000000  0.4996160000000  0.5001090000000 1.0
C      1  0.5231750000000  0.4049570000000  0.5014310000000 1.0
C      1  0.5512690000000  0.4592030000000  0.4928110000000 1.0
C      1  0.4347790000000  0.5718760000000  0.4920780000000 1.0
C      1  0.5686170000000  0.4888970000000  0.5202560000000 1.0
C      1  0.5575420000000  0.4193720000000  0.5334580000000 1.0
C      1  0.4893600000000  0.4539500000000  0.4766430000000 1.0
C      1  0.4909460000000  0.4796950000000  0.5660930000000 1.0
C      1  0.5109630000000  0.4255210000000  0.5436330000000 1.0
C      1  0.4100430000000  0.4712120000000  0.4661890000000 1.0
C      1  0.4628430000000  0.4545170000000  0.4303070000000 1.0
C      1  0.4392410000000  0.5460880000000  0.5080750000000 1.0
C      1  0.5703280000000  0.4794090000000  0.4446420000000 1.0
C      1  0.5366100000000  0.5105230000000  0.4242660000000 1.0
C      1  0.5457490000000  0.4563670000000  0.5226170000000 1.0
C      1  0.4840670000000  0.4692290000000  0.4127100000000 1.0
C      1  0.5912230000000  0.5289950000000  0.4948130000000 1.0
C      1  0.5008260000000  0.5058560000000  0.4668260000000 1.0
C      1  0.4417130000000  0.5809300000000  0.4546860000000 1.0
C      1  0.4617810000000  0.4669870000000  0.4795220000000 1.0
C      1  0.4519710000000  0.4581070000000  0.5545040000000 1.0
C      1  0.5661150000000  0.4392960000000  0.5511530000000 1.0
C      1  0.4710780000000  0.4378170000000  0.5668780000000 1.0
C      1  0.5180160000000  0.5022340000000  0.5988690000000 1.0
C      1  0.4848550000000  0.4249750000000  0.4723020000000 1.0
C      1  0.5465800000000  0.5793070000000  0.5029240000000 1.0
C      1  0.4612080000000  0.4196380000000  0.4918840000000 1.0
C      1  0.4646920000000  0.5844160000000  0.4709780000000 1.0
C      1  0.4208050000000  0.4728610000000  0.5158340000000 1.0
C      1  0.4588460000000  0.5755210000000  0.5386080000000 1.0
END
