TITL C-950524-1808-446 -4.15602277906122e-07 125000 -1233.03989031124 0 0 195 (C1) n - 1
REM
REM in /home/bkarasulu/work/CARBON/AIRSS/Generating-Clusters/EDIP-Nigel-Params/with-SteepDescent/Only-C1/SD-CG/HFTN-CG
REM
REM
REM
REM
REM
REM ./C.cell (11c1c37f851c82e70ff6c80c92926a4b)
REM
REM compiler GCC version 9.2.1 20190827 (Red Hat 9.2.1-1)
REM options -cpp -mtune=generic -march=x86-64 -g -O0 -fpre-include=/usr/include/finclude/math-vector-fortran.h
REM seed 2094483693 -1495217005 -1645772979 1265305241 1159575954 744347932 1251285745 3990765 494937418 300863584 -1592506872 1127251134 -718451135 -2982293 1688749069 -726505877 925825097 2085528414 1937132274 723428573 -74018441 -1495500957 740754988 1546456887 885759415 62651818 803337637 757145922 913708457 -613616341 -1706494239 1850345375 -1589761392
REM
CELL 1.54180   50.00000   50.00000   50.00000   90.00000   90.00000   90.00000
LATT -1
SFAC C  
C      1  0.4534310000000  0.5155090000000  0.4003630000000 1.0
C      1  0.5112060000000  0.4204470000000  0.5466290000000 1.0
C      1  0.4368320000000  0.4293180000000  0.4255860000000 1.0
C      1  0.5690070000000  0.5062380000000  0.5033160000000 1.0
C      1  0.5330710000000  0.4731860000000  0.5188360000000 1.0
C      1  0.5300420000000  0.5244090000000  0.5214090000000 1.0
C      1  0.4984630000000  0.4733320000000  0.6306460000000 1.0
C      1  0.4363090000000  0.5512470000000  0.5632210000000 1.0
C      1  0.4915020000000  0.5789910000000  0.4698580000000 1.0
C      1  0.5126080000000  0.3750030000000  0.4775470000000 1.0
C      1  0.4330670000000  0.5417360000000  0.4387170000000 1.0
C      1  0.5034090000000  0.4348750000000  0.4127060000000 1.0
C      1  0.4054660000000  0.4135510000000  0.5099350000000 1.0
C      1  0.6018890000000  0.5452600000000  0.5363540000000 1.0
C      1  0.5496400000000  0.4456040000000  0.5881260000000 1.0
C      1  0.4760950000000  0.4941380000000  0.4718110000000 1.0
C      1  0.5905100000000  0.5463030000000  0.5637010000000 1.0
C      1  0.5330680000000  0.5460070000000  0.4421050000000 1.0
C      1  0.4340030000000  0.5969820000000  0.4996960000000 1.0
C      1  0.4029510000000  0.4966890000000  0.4888580000000 1.0
C      1  0.5486030000000  0.6074520000000  0.5198520000000 1.0
C      1  0.5933540000000  0.4991290000000  0.4504220000000 1.0
C      1  0.5151680000000  0.4982970000000  0.5164320000000 1.0
C      1  0.5014960000000  0.5404050000000  0.5964950000000 1.0
C      1  0.4911480000000  0.4936880000000  0.5380910000000 1.0
C      1  0.5556640000000  0.4465840000000  0.5583560000000 1.0
C      1  0.4757800000000  0.3771440000000  0.5059920000000 1.0
C      1  0.5174880000000  0.4548640000000  0.5021140000000 1.0
C      1  0.5209490000000  0.4631800000000  0.6177590000000 1.0
C      1  0.4270630000000  0.4652870000000  0.5194890000000 1.0
C      1  0.5818140000000  0.4894110000000  0.5582840000000 1.0
C      1  0.5327490000000  0.4639510000000  0.5482060000000 1.0
C      1  0.5526170000000  0.5436920000000  0.4681150000000 1.0
C      1  0.4526380000000  0.5505760000000  0.4859430000000 1.0
C      1  0.4153630000000  0.4512410000000  0.5643680000000 1.0
C      1  0.5438820000000  0.4812760000000  0.6140860000000 1.0
C      1  0.3876410000000  0.5167690000000  0.4721580000000 1.0
C      1  0.4812130000000  0.5357880000000  0.4453580000000 1.0
C      1  0.5388500000000  0.5568920000000  0.3965530000000 1.0
C      1  0.5547740000000  0.5775900000000  0.5540330000000 1.0
C      1  0.5051670000000  0.5103500000000  0.4084290000000 1.0
C      1  0.3808540000000  0.4550190000000  0.5288220000000 1.0
C      1  0.5105430000000  0.6031700000000  0.5576180000000 1.0
C      1  0.5491200000000  0.4719370000000  0.4756380000000 1.0
C      1  0.4008920000000  0.5059040000000  0.5172560000000 1.0
C      1  0.5006050000000  0.6194340000000  0.4933640000000 1.0
C      1  0.4732000000000  0.3997180000000  0.5242090000000 1.0
C      1  0.4513210000000  0.5393070000000  0.5878730000000 1.0
C      1  0.5143000000000  0.5668430000000  0.4077980000000 1.0
C      1  0.4614700000000  0.4610980000000  0.5822370000000 1.0
C      1  0.4176930000000  0.5320240000000  0.5526870000000 1.0
C      1  0.5188010000000  0.5032140000000  0.4554470000000 1.0
C      1  0.4288140000000  0.4674070000000  0.4580640000000 1.0
C      1  0.4482890000000  0.5863430000000  0.4506000000000 1.0
C      1  0.5822120000000  0.4224590000000  0.4787450000000 1.0
C      1  0.5448140000000  0.5290000000000  0.5759500000000 1.0
C      1  0.4526830000000  0.4104870000000  0.5715690000000 1.0
C      1  0.5409500000000  0.5630900000000  0.4881100000000 1.0
C      1  0.5862040000000  0.5733700000000  0.4826360000000 1.0
C      1  0.4317490000000  0.4663320000000  0.5854970000000 1.0
C      1  0.4266590000000  0.4388400000000  0.4734020000000 1.0
C      1  0.4623510000000  0.4198690000000  0.4189060000000 1.0
C      1  0.6019610000000  0.4485530000000  0.4583080000000 1.0
C      1  0.5218750000000  0.5758970000000  0.4639130000000 1.0
C      1  0.5547880000000  0.4717640000000  0.3951130000000 1.0
C      1  0.6040250000000  0.5019410000000  0.5467270000000 1.0
C      1  0.4805280000000  0.5503620000000  0.4718780000000 1.0
C      1  0.4802040000000  0.4094120000000  0.4688600000000 1.0
C      1  0.4818710000000  0.5265190000000  0.3976690000000 1.0
C      1  0.4845530000000  0.4160200000000  0.4385080000000 1.0
C      1  0.4837300000000  0.5284490000000  0.5120930000000 1.0
C      1  0.4354750000000  0.5763960000000  0.5456700000000 1.0
C      1  0.5742280000000  0.5648210000000  0.4347470000000 1.0
C      1  0.4543320000000  0.4969830000000  0.4927760000000 1.0
C      1  0.6117750000000  0.4668200000000  0.5125940000000 1.0
C      1  0.4217800000000  0.4512300000000  0.4197000000000 1.0
C      1  0.5085110000000  0.4161500000000  0.4835410000000 1.0
C      1  0.5312070000000  0.4890750000000  0.5626640000000 1.0
C      1  0.5372490000000  0.4005900000000  0.4626770000000 1.0
C      1  0.4668340000000  0.5992130000000  0.5429460000000 1.0
C      1  0.4867510000000  0.4626410000000  0.5385910000000 1.0
C      1  0.5556720000000  0.4191360000000  0.5464030000000 1.0
C      1  0.5070560000000  0.5320600000000  0.5682700000000 1.0
C      1  0.5031730000000  0.5041040000000  0.4804890000000 1.0
C      1  0.5485480000000  0.4663990000000  0.4225450000000 1.0
C      1  0.5527650000000  0.5002610000000  0.3941980000000 1.0
C      1  0.4965740000000  0.4820760000000  0.4160080000000 1.0
C      1  0.4835640000000  0.3802050000000  0.4786960000000 1.0
C      1  0.4296060000000  0.5349370000000  0.4688490000000 1.0
C      1  0.5812620000000  0.5516530000000  0.4621050000000 1.0
C      1  0.5636430000000  0.3983040000000  0.4768050000000 1.0
C      1  0.4300610000000  0.5053590000000  0.5551090000000 1.0
C      1  0.5157680000000  0.4607290000000  0.4247000000000 1.0
C      1  0.4964360000000  0.4236800000000  0.5915840000000 1.0
C      1  0.4016120000000  0.5440680000000  0.4775100000000 1.0
C      1  0.4987900000000  0.5859800000000  0.5766100000000 1.0
C      1  0.5630940000000  0.5169040000000  0.4163090000000 1.0
C      1  0.5995830000000  0.4758870000000  0.4669560000000 1.0
C      1  0.4545980000000  0.5620970000000  0.4341240000000 1.0
C      1  0.5541180000000  0.5463220000000  0.4201710000000 1.0
C      1  0.4233060000000  0.4773070000000  0.4087240000000 1.0
C      1  0.5991480000000  0.5113510000000  0.4979780000000 1.0
C      1  0.4758410000000  0.5760810000000  0.5632640000000 1.0
C      1  0.4777330000000  0.4915180000000  0.5893800000000 1.0
C      1  0.4079820000000  0.5324630000000  0.5251710000000 1.0
C      1  0.3991930000000  0.4575980000000  0.5068670000000 1.0
C      1  0.4883550000000  0.5562890000000  0.3976360000000 1.0
C      1  0.5577430000000  0.5207100000000  0.5276460000000 1.0
C      1  0.4531820000000  0.4259140000000  0.4858260000000 1.0
C      1  0.5244350000000  0.3867200000000  0.5016830000000 1.0
C      1  0.4691730000000  0.4687910000000  0.4146660000000 1.0
C      1  0.5975210000000  0.5244200000000  0.4676920000000 1.0
C      1  0.5270820000000  0.5114670000000  0.3864920000000 1.0
C      1  0.4134940000000  0.4877310000000  0.5364330000000 1.0
C      1  0.5201560000000  0.4435280000000  0.5961750000000 1.0
C      1  0.5525820000000  0.3935360000000  0.5035510000000 1.0
C      1  0.5707240000000  0.5971320000000  0.4724730000000 1.0
C      1  0.5108720000000  0.5184880000000  0.6144920000000 1.0
C      1  0.5325140000000  0.5374430000000  0.3774950000000 1.0
C      1  0.4791550000000  0.5441100000000  0.5547580000000 1.0
C      1  0.5606860000000  0.4768420000000  0.5039230000000 1.0
C      1  0.4418570000000  0.5155100000000  0.4292340000000 1.0
C      1  0.5085170000000  0.4495750000000  0.5539300000000 1.0
C      1  0.4570230000000  0.5628710000000  0.5159880000000 1.0
C      1  0.4673010000000  0.4311410000000  0.5904240000000 1.0
C      1  0.5107470000000  0.5248600000000  0.4371540000000 1.0
C      1  0.4725720000000  0.3957730000000  0.5554120000000 1.0
C      1  0.6101810000000  0.4847060000000  0.4918660000000 1.0
C      1  0.4339490000000  0.5816130000000  0.4751690000000 1.0
C      1  0.4499630000000  0.4850050000000  0.3971970000000 1.0
C      1  0.5629170000000  0.5538960000000  0.5704940000000 1.0
C      1  0.5551400000000  0.5167260000000  0.4791250000000 1.0
C      1  0.3939260000000  0.4683410000000  0.5502400000000 1.0
C      1  0.4824320000000  0.5520080000000  0.5269910000000 1.0
C      1  0.4582420000000  0.5169320000000  0.5140600000000 1.0
C      1  0.4683460000000  0.5738910000000  0.4095470000000 1.0
C      1  0.4871420000000  0.5942280000000  0.4945240000000 1.0
C      1  0.5008090000000  0.6305700000000  0.5191870000000 1.0
C      1  0.4759440000000  0.4409490000000  0.4031050000000 1.0
C      1  0.5736150000000  0.5939230000000  0.5256440000000 1.0
C      1  0.4617300000000  0.4582480000000  0.5528710000000 1.0
C      1  0.4287280000000  0.4956420000000  0.5833830000000 1.0
C      1  0.5571190000000  0.4395360000000  0.4341100000000 1.0
C      1  0.4990550000000  0.5334600000000  0.4886370000000 1.0
C      1  0.5843390000000  0.4341380000000  0.4415830000000 1.0
C      1  0.5318150000000  0.5983050000000  0.4463220000000 1.0
C      1  0.4172970000000  0.5809100000000  0.5197740000000 1.0
C      1  0.5342480000000  0.4029640000000  0.5537160000000 1.0
C      1  0.4308900000000  0.5027420000000  0.4755980000000 1.0
C      1  0.5797130000000  0.4614740000000  0.5484250000000 1.0
C      1  0.4258480000000  0.4072980000000  0.5277770000000 1.0
C      1  0.4040500000000  0.5551180000000  0.5077040000000 1.0
C      1  0.5212440000000  0.4640740000000  0.4759520000000 1.0
C      1  0.5477380000000  0.6066370000000  0.4898840000000 1.0
C      1  0.4501840000000  0.4149980000000  0.5146190000000 1.0
C      1  0.5350560000000  0.4275090000000  0.4500980000000 1.0
C      1  0.5231280000000  0.5457820000000  0.5026390000000 1.0
C      1  0.5250700000000  0.6184510000000  0.4761080000000 1.0
C      1  0.4594900000000  0.5121740000000  0.5446490000000 1.0
C      1  0.5329250000000  0.5933820000000  0.5419350000000 1.0
C      1  0.4658380000000  0.5105740000000  0.4482800000000 1.0
C      1  0.5730230000000  0.5473140000000  0.5286040000000 1.0
C      1  0.5695720000000  0.5701280000000  0.5080290000000 1.0
C      1  0.4910550000000  0.4467020000000  0.5117020000000 1.0
C      1  0.5381130000000  0.5099180000000  0.6068660000000 1.0
C      1  0.5640530000000  0.4660290000000  0.6015590000000 1.0
C      1  0.5471090000000  0.4969910000000  0.4605090000000 1.0
C      1  0.4974700000000  0.4167490000000  0.5191540000000 1.0
C      1  0.3982470000000  0.4899620000000  0.4505490000000 1.0
C      1  0.5624760000000  0.5918670000000  0.4440620000000 1.0
C      1  0.5557170000000  0.5062890000000  0.5563710000000 1.0
C      1  0.5112660000000  0.4476070000000  0.4536830000000 1.0
C      1  0.5661960000000  0.4955540000000  0.4368750000000 1.0
C      1  0.5812970000000  0.4312050000000  0.5071770000000 1.0
C      1  0.4983980000000  0.4037200000000  0.5688200000000 1.0
C      1  0.4506560000000  0.4712270000000  0.5032980000000 1.0
C      1  0.4783610000000  0.4642540000000  0.4649910000000 1.0
C      1  0.4908180000000  0.6187630000000  0.5429860000000 1.0
C      1  0.4571610000000  0.4640410000000  0.4438450000000 1.0
C      1  0.5144150000000  0.5931030000000  0.4207150000000 1.0
C      1  0.4757090000000  0.5971160000000  0.4512950000000 1.0
C      1  0.4684910000000  0.4514980000000  0.4911930000000 1.0
C      1  0.4370340000000  0.4473620000000  0.5412510000000 1.0
C      1  0.4029210000000  0.4339100000000  0.4906620000000 1.0
C      1  0.4848070000000  0.5966720000000  0.4229160000000 1.0
C      1  0.4522700000000  0.5097620000000  0.5933450000000 1.0
C      1  0.6108860000000  0.5195130000000  0.5259400000000 1.0
C      1  0.5844010000000  0.4588890000000  0.5178280000000 1.0
C      1  0.4749330000000  0.5501150000000  0.5990190000000 1.0
C      1  0.5600080000000  0.4170240000000  0.5185580000000 1.0
C      1  0.5028550000000  0.5010900000000  0.5657120000000 1.0
C      1  0.4622780000000  0.5920320000000  0.5120820000000 1.0
C      1  0.4910480000000  0.4958720000000  0.6159300000000 1.0
C      1  0.4255770000000  0.4144170000000  0.5574220000000 1.0
C      1  0.4172560000000  0.4976770000000  0.4285730000000 1.0
END
