TITL C-950533-5798-19 2.01655790959425e-06 125000 -1249.20262306361 0 0 199 (C1) n - 1
REM
REM in /home/bkarasulu/work/CARBON/AIRSS/Generating-Clusters/EDIP-Nigel-Params/with-SteepDescent/Only-C1/SD-CG/HFTN-CG
REM
REM
REM
REM
REM
REM ./C.cell (11c1c37f851c82e70ff6c80c92926a4b)
REM
REM compiler GCC version 9.2.1 20190827 (Red Hat 9.2.1-1)
REM options -cpp -mtune=generic -march=x86-64 -g -O0 -fpre-include=/usr/include/finclude/math-vector-fortran.h
REM seed 901934550 -488374380 691860798 -678353099 1285956251 -1954929521 -1226048319 -1902186522 101160939 -1851911184 200788002 -2086257907 -1992307254 -197123862 1279605660 -854384654 612093779 -2075088582 -146135378 1654485673 636869414 -1119126588 95875500 257142150 -1196432367 -2047884088 135541996 521151146 -91660824 -176242196 1137018972 -641008578 4126805
REM
CELL 1.54180   50.00000   50.00000   50.00000   90.00000   90.00000   90.00000
LATT -1
SFAC C  
C      1  0.4199730000000  0.4398050000000  0.4604330000000 1.0
C      1  0.4714770000000  0.4336690000000  0.5764960000000 1.0
C      1  0.5405990000000  0.5424020000000  0.5264870000000 1.0
C      1  0.5602100000000  0.4470910000000  0.4221610000000 1.0
C      1  0.5764200000000  0.4715270000000  0.4284980000000 1.0
C      1  0.4559780000000  0.5641390000000  0.4049970000000 1.0
C      1  0.3989250000000  0.5692510000000  0.5206200000000 1.0
C      1  0.4937880000000  0.4502220000000  0.3932780000000 1.0
C      1  0.5680070000000  0.5022980000000  0.4261180000000 1.0
C      1  0.5628290000000  0.6092240000000  0.4837240000000 1.0
C      1  0.6061360000000  0.5364100000000  0.4670920000000 1.0
C      1  0.4668020000000  0.4875640000000  0.4476450000000 1.0
C      1  0.5670660000000  0.5645670000000  0.4491360000000 1.0
C      1  0.6109070000000  0.5252770000000  0.4949910000000 1.0
C      1  0.5739220000000  0.6008910000000  0.5297320000000 1.0
C      1  0.5216660000000  0.5213390000000  0.6151020000000 1.0
C      1  0.3716110000000  0.5230300000000  0.5027770000000 1.0
C      1  0.5298360000000  0.5659080000000  0.5728330000000 1.0
C      1  0.5176280000000  0.5517510000000  0.4395530000000 1.0
C      1  0.5904640000000  0.4575380000000  0.5001280000000 1.0
C      1  0.5405780000000  0.5029510000000  0.4405740000000 1.0
C      1  0.6040150000000  0.5487610000000  0.5096770000000 1.0
C      1  0.5480400000000  0.6104500000000  0.5333030000000 1.0
C      1  0.5778160000000  0.4595950000000  0.5682600000000 1.0
C      1  0.5332820000000  0.5685400000000  0.5129250000000 1.0
C      1  0.5608210000000  0.5102580000000  0.4858010000000 1.0
C      1  0.6138520000000  0.4582480000000  0.5375420000000 1.0
C      1  0.6061900000000  0.4994030000000  0.5233290000000 1.0
C      1  0.5308740000000  0.3977530000000  0.5192710000000 1.0
C      1  0.4512100000000  0.4584380000000  0.4916130000000 1.0
C      1  0.3882370000000  0.5208380000000  0.5268220000000 1.0
C      1  0.4350260000000  0.4141740000000  0.5316780000000 1.0
C      1  0.5096400000000  0.5167110000000  0.4736560000000 1.0
C      1  0.4154610000000  0.4330050000000  0.4889720000000 1.0
C      1  0.4641480000000  0.5213230000000  0.3970100000000 1.0
C      1  0.5002390000000  0.4560740000000  0.5466280000000 1.0
C      1  0.4547030000000  0.4825770000000  0.5378590000000 1.0
C      1  0.3883510000000  0.5347410000000  0.4817730000000 1.0
C      1  0.5068020000000  0.4493890000000  0.4425120000000 1.0
C      1  0.4913340000000  0.4419840000000  0.4719230000000 1.0
C      1  0.5721610000000  0.4099080000000  0.4993920000000 1.0
C      1  0.4287160000000  0.4399550000000  0.5441810000000 1.0
C      1  0.5065400000000  0.5626180000000  0.5924150000000 1.0
C      1  0.5009830000000  0.5760160000000  0.4452810000000 1.0
C      1  0.5287350000000  0.5676440000000  0.4839120000000 1.0
C      1  0.5120710000000  0.4228500000000  0.4274870000000 1.0
C      1  0.5052320000000  0.4881680000000  0.4799140000000 1.0
C      1  0.5374000000000  0.5030350000000  0.3896210000000 1.0
C      1  0.5250460000000  0.4192620000000  0.5646350000000 1.0
C      1  0.4303090000000  0.4817790000000  0.4921940000000 1.0
C      1  0.5512900000000  0.4743890000000  0.5692150000000 1.0
C      1  0.4581550000000  0.3799510000000  0.4638610000000 1.0
C      1  0.4522490000000  0.5012840000000  0.4815950000000 1.0
C      1  0.4643110000000  0.4613690000000  0.5175980000000 1.0
C      1  0.4585600000000  0.5894190000000  0.5291510000000 1.0
C      1  0.5170260000000  0.4333920000000  0.3996300000000 1.0
C      1  0.4598640000000  0.5542440000000  0.6039000000000 1.0
C      1  0.5557450000000  0.5458350000000  0.4036870000000 1.0
C      1  0.4300550000000  0.5368510000000  0.5034630000000 1.0
C      1  0.5481110000000  0.4666930000000  0.4680660000000 1.0
C      1  0.3952000000000  0.4462960000000  0.5048260000000 1.0
C      1  0.5924440000000  0.5581270000000  0.5562400000000 1.0
C      1  0.5299310000000  0.3983880000000  0.4686970000000 1.0
C      1  0.4450660000000  0.5384330000000  0.4135170000000 1.0
C      1  0.5654130000000  0.4728740000000  0.5126390000000 1.0
C      1  0.4909660000000  0.3794070000000  0.4956740000000 1.0
C      1  0.4854930000000  0.5536910000000  0.5542780000000 1.0
C      1  0.5453070000000  0.6058630000000  0.4619140000000 1.0
C      1  0.4389790000000  0.4880770000000  0.6065390000000 1.0
C      1  0.4769430000000  0.4359340000000  0.6037630000000 1.0
C      1  0.4999130000000  0.6090470000000  0.4856050000000 1.0
C      1  0.4476100000000  0.5414090000000  0.5301010000000 1.0
C      1  0.5054300000000  0.4831450000000  0.5078740000000 1.0
C      1  0.5604690000000  0.5913110000000  0.4430090000000 1.0
C      1  0.4898830000000  0.4832380000000  0.6164220000000 1.0
C      1  0.5413880000000  0.4504190000000  0.3993110000000 1.0
C      1  0.5329660000000  0.4340620000000  0.5046150000000 1.0
C      1  0.5767650000000  0.4716210000000  0.4588090000000 1.0
C      1  0.5161710000000  0.5211970000000  0.4003910000000 1.0
C      1  0.4612900000000  0.5506090000000  0.5749320000000 1.0
C      1  0.3826650000000  0.4701690000000  0.4919810000000 1.0
C      1  0.5887750000000  0.5685800000000  0.4947590000000 1.0
C      1  0.4784030000000  0.4742060000000  0.5597990000000 1.0
C      1  0.4632410000000  0.5754350000000  0.4808250000000 1.0
C      1  0.5743020000000  0.5432550000000  0.5735000000000 1.0
C      1  0.4532620000000  0.4482060000000  0.4103470000000 1.0
C      1  0.5144600000000  0.5234030000000  0.5244920000000 1.0
C      1  0.4452980000000  0.4764640000000  0.4110120000000 1.0
C      1  0.5620880000000  0.5010110000000  0.5589760000000 1.0
C      1  0.4645430000000  0.5144910000000  0.5308830000000 1.0
C      1  0.4954580000000  0.4565370000000  0.6057770000000 1.0
C      1  0.4473220000000  0.4510300000000  0.5676900000000 1.0
C      1  0.5248240000000  0.5937880000000  0.5288960000000 1.0
C      1  0.5303680000000  0.4716950000000  0.4423580000000 1.0
C      1  0.4402910000000  0.5262300000000  0.4749320000000 1.0
C      1  0.5251050000000  0.5490250000000  0.4088600000000 1.0
C      1  0.4576620000000  0.5809340000000  0.4301720000000 1.0
C      1  0.4042330000000  0.4830250000000  0.4747930000000 1.0
C      1  0.5036880000000  0.4382480000000  0.4996520000000 1.0
C      1  0.5723650000000  0.4196470000000  0.5308050000000 1.0
C      1  0.4191510000000  0.5164690000000  0.4434280000000 1.0
C      1  0.4570840000000  0.5379380000000  0.4508980000000 1.0
C      1  0.5859280000000  0.4462410000000  0.5427290000000 1.0
C      1  0.4828960000000  0.3883720000000  0.4504270000000 1.0
C      1  0.4287290000000  0.5711300000000  0.4449040000000 1.0
C      1  0.5176450000000  0.4936230000000  0.6221250000000 1.0
C      1  0.5956760000000  0.5402430000000  0.5347240000000 1.0
C      1  0.4568950000000  0.5208770000000  0.5747200000000 1.0
C      1  0.5727710000000  0.5579690000000  0.4224680000000 1.0
C      1  0.4153990000000  0.5427740000000  0.5605440000000 1.0
C      1  0.4921650000000  0.4787900000000  0.3890780000000 1.0
C      1  0.3738530000000  0.4867940000000  0.5152320000000 1.0
C      1  0.4329840000000  0.4635780000000  0.5905370000000 1.0
C      1  0.4109540000000  0.5915230000000  0.5327400000000 1.0
C      1  0.4719560000000  0.5113840000000  0.5025710000000 1.0
C      1  0.4641600000000  0.3695330000000  0.4904310000000 1.0
C      1  0.5462220000000  0.4387110000000  0.4775990000000 1.0
C      1  0.5726970000000  0.4261700000000  0.4700870000000 1.0
C      1  0.4722560000000  0.5658240000000  0.4536030000000 1.0
C      1  0.5407620000000  0.5512760000000  0.4606950000000 1.0
C      1  0.5143820000000  0.5091530000000  0.4271840000000 1.0
C      1  0.5356400000000  0.4765850000000  0.6040840000000 1.0
C      1  0.5009170000000  0.5365940000000  0.6039120000000 1.0
C      1  0.5020380000000  0.3907950000000  0.5204670000000 1.0
C      1  0.6143270000000  0.4710870000000  0.5104830000000 1.0
C      1  0.5469780000000  0.4850600000000  0.4930970000000 1.0
C      1  0.4595220000000  0.4282080000000  0.4301530000000 1.0
C      1  0.4839870000000  0.4645490000000  0.4278500000000 1.0
C      1  0.3996500000000  0.5122170000000  0.4654280000000 1.0
C      1  0.5234430000000  0.4504700000000  0.6046550000000 1.0
C      1  0.5336870000000  0.4308080000000  0.5881390000000 1.0
C      1  0.5038700000000  0.5696610000000  0.3985320000000 1.0
C      1  0.4306990000000  0.5722510000000  0.4753630000000 1.0
C      1  0.4352050000000  0.5892240000000  0.5462440000000 1.0
C      1  0.5360890000000  0.4081150000000  0.4413380000000 1.0
C      1  0.4750730000000  0.6120590000000  0.5224550000000 1.0
C      1  0.5792400000000  0.5952020000000  0.5018800000000 1.0
C      1  0.5262220000000  0.4938460000000  0.5246780000000 1.0
C      1  0.4854190000000  0.4056360000000  0.5390860000000 1.0
C      1  0.4368740000000  0.4216250000000  0.4457740000000 1.0
C      1  0.4952210000000  0.5301910000000  0.4981500000000 1.0
C      1  0.5185860000000  0.5033010000000  0.5810810000000 1.0
C      1  0.5404490000000  0.5211870000000  0.4668720000000 1.0
C      1  0.5463720000000  0.5445480000000  0.5600590000000 1.0
C      1  0.5460270000000  0.4539030000000  0.5254540000000 1.0
C      1  0.5820540000000  0.5145560000000  0.5768230000000 1.0
C      1  0.5032580000000  0.6104420000000  0.5144900000000 1.0
C      1  0.5371450000000  0.5159750000000  0.5620110000000 1.0
C      1  0.3938510000000  0.5470340000000  0.5401150000000 1.0
C      1  0.4711910000000  0.6038830000000  0.4846140000000 1.0
C      1  0.4582470000000  0.4014020000000  0.5398010000000 1.0
C      1  0.4998950000000  0.5257400000000  0.4458230000000 1.0
C      1  0.4905640000000  0.5844260000000  0.5764580000000 1.0
C      1  0.5933490000000  0.5169720000000  0.4493370000000 1.0
C      1  0.4742880000000  0.5318680000000  0.6134200000000 1.0
C      1  0.5467340000000  0.3950040000000  0.4938010000000 1.0
C      1  0.5917600000000  0.4494950000000  0.4716860000000 1.0
C      1  0.4824870000000  0.4726220000000  0.4712000000000 1.0
C      1  0.4096410000000  0.5570220000000  0.4942400000000 1.0
C      1  0.5033390000000  0.3877060000000  0.4709550000000 1.0
C      1  0.4671760000000  0.5021100000000  0.6075680000000 1.0
C      1  0.4669440000000  0.4925580000000  0.3982500000000 1.0
C      1  0.4893360000000  0.5021300000000  0.5695640000000 1.0
C      1  0.5912570000000  0.5618990000000  0.4671910000000 1.0
C      1  0.4570860000000  0.4072100000000  0.4895140000000 1.0
C      1  0.4238340000000  0.4879330000000  0.5220790000000 1.0
C      1  0.4279570000000  0.5166830000000  0.5687120000000 1.0
C      1  0.4149890000000  0.5152050000000  0.5172450000000 1.0
C      1  0.5438110000000  0.4128990000000  0.5415130000000 1.0
C      1  0.4309780000000  0.4120080000000  0.5025590000000 1.0
C      1  0.4946480000000  0.5882040000000  0.4192940000000 1.0
C      1  0.5835360000000  0.4986590000000  0.4694070000000 1.0
C      1  0.5275300000000  0.4764530000000  0.4024760000000 1.0
C      1  0.4838190000000  0.4102990000000  0.4305850000000 1.0
C      1  0.4366890000000  0.5627040000000  0.5610370000000 1.0
C      1  0.5147120000000  0.5863560000000  0.5563290000000 1.0
C      1  0.5845970000000  0.5838020000000  0.5488780000000 1.0
C      1  0.4960020000000  0.4266540000000  0.5576680000000 1.0
C      1  0.4698810000000  0.5622980000000  0.5278660000000 1.0
C      1  0.4613870000000  0.4330670000000  0.4735470000000 1.0
C      1  0.6169510000000  0.4835240000000  0.5528600000000 1.0
C      1  0.4025900000000  0.4505650000000  0.5336130000000 1.0
C      1  0.3967130000000  0.4789460000000  0.5350500000000 1.0
C      1  0.4129450000000  0.4671990000000  0.4511110000000 1.0
C      1  0.5743590000000  0.4995560000000  0.5285620000000 1.0
C      1  0.5620160000000  0.4221870000000  0.4397180000000 1.0
C      1  0.5981140000000  0.4802690000000  0.5746660000000 1.0
C      1  0.4729370000000  0.5166830000000  0.4399950000000 1.0
C      1  0.4266020000000  0.4867190000000  0.4327530000000 1.0
C      1  0.5660110000000  0.5268360000000  0.5136570000000 1.0
C      1  0.5299740000000  0.4686810000000  0.5457100000000 1.0
C      1  0.4195290000000  0.5447820000000  0.4301740000000 1.0
C      1  0.4907130000000  0.5234230000000  0.5458960000000 1.0
C      1  0.4809220000000  0.5581120000000  0.5005830000000 1.0
C      1  0.4180620000000  0.4991090000000  0.5888930000000 1.0
C      1  0.5623060000000  0.5163660000000  0.3995910000000 1.0
C      1  0.4931600000000  0.4585760000000  0.5175410000000 1.0
C      1  0.4798410000000  0.5555400000000  0.3906520000000 1.0
C      1  0.5187760000000  0.5918510000000  0.4691690000000 1.0
END
