TITL C-950524-1808-719 -5.58733643694078e-07 125000 -112.612598695804 0 0 21 (C1) n - 1
REM
REM in /home/bkarasulu/work/CARBON/AIRSS/Generating-Clusters/EDIP-Nigel-Params/with-SteepDescent/Only-C1/SD-CG/HFTN-CG
REM
REM
REM
REM
REM
REM ./C.cell (11c1c37f851c82e70ff6c80c92926a4b)
REM
REM compiler GCC version 9.2.1 20190827 (Red Hat 9.2.1-1)
REM options -cpp -mtune=generic -march=x86-64 -g -O0 -fpre-include=/usr/include/finclude/math-vector-fortran.h
REM seed -1925829657 23024284 -802447869 -152363821 -669240307 -822068966 -210763561 256794326 -955981702 170356242 944895201 1865664851 819793996 -1124772749 -918292361 915191366 851642960 -646841712 1133306545 8384514 -960115930 -1192552264 15682743 -821706220 776771525 -587086322 1279603341 334608833 497020647 -1385121149 1759435444 -580827816 -403404985
REM
CELL 1.54180   50.00000   50.00000   50.00000   90.00000   90.00000   90.00000
LATT -1
SFAC C  
C      1  0.4690550000000  0.4520240000000  0.5193800000000 1.0
C      1  0.4961340000000  0.5012270000000  0.4561800000000 1.0
C      1  0.4875790000000  0.5411750000000  0.5182660000000 1.0
C      1  0.4707660000000  0.5005710000000  0.4673010000000 1.0
C      1  0.5408860000000  0.4905570000000  0.5160240000000 1.0
C      1  0.5365760000000  0.5528500000000  0.5108840000000 1.0
C      1  0.4621200000000  0.5145410000000  0.4943770000000 1.0
C      1  0.4689330000000  0.5251500000000  0.5307680000000 1.0
C      1  0.4553660000000  0.4761520000000  0.5277780000000 1.0
C      1  0.5181160000000  0.5043850000000  0.5033340000000 1.0
C      1  0.4833820000000  0.4624090000000  0.4966150000000 1.0
C      1  0.4619430000000  0.4736650000000  0.4782540000000 1.0
C      1  0.4764650000000  0.4973210000000  0.5323240000000 1.0
C      1  0.5164070000000  0.5034570000000  0.4406340000000 1.0
C      1  0.5671120000000  0.5012570000000  0.5064420000000 1.0
C      1  0.5139190000000  0.5336460000000  0.5090350000000 1.0
C      1  0.5455110000000  0.4635650000000  0.5040270000000 1.0
C      1  0.4456440000000  0.4877650000000  0.5015170000000 1.0
C      1  0.5697140000000  0.4754300000000  0.4942770000000 1.0
C      1  0.4908300000000  0.4917750000000  0.5054390000000 1.0
C      1  0.5235420000000  0.5510810000000  0.4871440000000 1.0
END
