TITL C-951338-5626-262 2.19463222469872e-06 125000 -783.236509636882 0 0 127 (C1) n - 1
REM
REM in /home/bkarasulu/work/CARBON/AIRSS/Generating-Clusters/EDIP-Nigel-Params/with-SteepDescent/Only-C1/SD-CG/HFTN-CG
REM
REM
REM
REM
REM
REM ./C.cell (11c1c37f851c82e70ff6c80c92926a4b)
REM
REM compiler GCC version 9.2.1 20190827 (Red Hat 9.2.1-1)
REM options -cpp -mtune=generic -march=x86-64 -g -O0 -fpre-include=/usr/include/finclude/math-vector-fortran.h
REM seed -1388749204 -1929659224 -1581117514 -904713817 640745573 -542609969 -1690775429 50175087 1149341031 1689183435 548307696 -1378320534 -1374548664 -1908074907 2121814355 1938708031 967145581 763851049 570518630 -759991456 -1625756311 642027438 -981241383 -149335629 -1490266468 -621578748 1460754538 -29777111 1673648894 -85529257 -59173967 1067763696 -1479792547
REM
CELL 1.54180   50.00000   50.00000   50.00000   90.00000   90.00000   90.00000
LATT -1
SFAC C  
C      1  0.5477060000000  0.5640870000000  0.4532590000000 1.0
C      1  0.5102230000000  0.5958900000000  0.4839780000000 1.0
C      1  0.5811750000000  0.4707590000000  0.4329360000000 1.0
C      1  0.5835660000000  0.5106240000000  0.5387620000000 1.0
C      1  0.4642920000000  0.5370670000000  0.5800520000000 1.0
C      1  0.4760080000000  0.4388420000000  0.5724830000000 1.0
C      1  0.5365860000000  0.5800110000000  0.4763980000000 1.0
C      1  0.4572310000000  0.4022060000000  0.5318660000000 1.0
C      1  0.5165410000000  0.4701410000000  0.5805840000000 1.0
C      1  0.5314120000000  0.4718790000000  0.4588550000000 1.0
C      1  0.4308800000000  0.4576240000000  0.5764700000000 1.0
C      1  0.4782670000000  0.4247240000000  0.5315220000000 1.0
C      1  0.4986820000000  0.5090070000000  0.4947340000000 1.0
C      1  0.5804780000000  0.4836430000000  0.4583590000000 1.0
C      1  0.4420140000000  0.4609830000000  0.4675970000000 1.0
C      1  0.5439470000000  0.5470280000000  0.5633560000000 1.0
C      1  0.4028210000000  0.5239210000000  0.4850260000000 1.0
C      1  0.5958530000000  0.4869050000000  0.5290640000000 1.0
C      1  0.4738930000000  0.4731130000000  0.5155190000000 1.0
C      1  0.5928580000000  0.5234870000000  0.4907040000000 1.0
C      1  0.5574150000000  0.5080020000000  0.5264760000000 1.0
C      1  0.4478240000000  0.5911650000000  0.5394400000000 1.0
C      1  0.4926740000000  0.5418970000000  0.5814150000000 1.0
C      1  0.5263320000000  0.5130980000000  0.4062480000000 1.0
C      1  0.5550300000000  0.5771960000000  0.4993090000000 1.0
C      1  0.5327360000000  0.4576030000000  0.4168080000000 1.0
C      1  0.4712680000000  0.4320640000000  0.4842030000000 1.0
C      1  0.4579120000000  0.5106520000000  0.4059120000000 1.0
C      1  0.5099710000000  0.5185960000000  0.5831500000000 1.0
C      1  0.4698780000000  0.5167000000000  0.4908590000000 1.0
C      1  0.4663370000000  0.5489750000000  0.4906370000000 1.0
C      1  0.4772560000000  0.5477190000000  0.4406620000000 1.0
C      1  0.5921890000000  0.4713430000000  0.4819820000000 1.0
C      1  0.4278680000000  0.5471800000000  0.5410710000000 1.0
C      1  0.5109630000000  0.4969710000000  0.4488840000000 1.0
C      1  0.5235060000000  0.5293300000000  0.4306210000000 1.0
C      1  0.5443190000000  0.5144780000000  0.4790320000000 1.0
C      1  0.5051640000000  0.4452020000000  0.5692610000000 1.0
C      1  0.5089310000000  0.5734880000000  0.4236380000000 1.0
C      1  0.4802040000000  0.4885750000000  0.4481640000000 1.0
C      1  0.4851740000000  0.5583560000000  0.4673140000000 1.0
C      1  0.5212650000000  0.4972240000000  0.5463530000000 1.0
C      1  0.4716620000000  0.5468380000000  0.5431640000000 1.0
C      1  0.4449750000000  0.4117180000000  0.5053960000000 1.0
C      1  0.5595450000000  0.5216920000000  0.4532580000000 1.0
C      1  0.5270580000000  0.4216600000000  0.5300700000000 1.0
C      1  0.5244950000000  0.5373420000000  0.5210070000000 1.0
C      1  0.5262600000000  0.4276060000000  0.5586100000000 1.0
C      1  0.5145170000000  0.4556620000000  0.4767010000000 1.0
C      1  0.5013510000000  0.4706480000000  0.5156330000000 1.0
C      1  0.4528990000000  0.5111890000000  0.5844160000000 1.0
C      1  0.5112540000000  0.5990920000000  0.5139930000000 1.0
C      1  0.4180120000000  0.4814450000000  0.5638930000000 1.0
C      1  0.4511380000000  0.4509330000000  0.4407970000000 1.0
C      1  0.5020770000000  0.4128690000000  0.5183060000000 1.0
C      1  0.4262760000000  0.4484280000000  0.5312020000000 1.0
C      1  0.4932260000000  0.4103180000000  0.4893170000000 1.0
C      1  0.4649610000000  0.4447250000000  0.5121710000000 1.0
C      1  0.5567800000000  0.4319020000000  0.4769770000000 1.0
C      1  0.4834780000000  0.5648470000000  0.4194100000000 1.0
C      1  0.4843410000000  0.5876330000000  0.4714840000000 1.0
C      1  0.5710300000000  0.5512550000000  0.5060730000000 1.0
C      1  0.5373130000000  0.5208770000000  0.5727110000000 1.0
C      1  0.4371120000000  0.5686940000000  0.5265900000000 1.0
C      1  0.5075780000000  0.4922550000000  0.4057370000000 1.0
C      1  0.5630050000000  0.4618590000000  0.5624420000000 1.0
C      1  0.4279740000000  0.4996210000000  0.5177510000000 1.0
C      1  0.5544090000000  0.4416630000000  0.4512570000000 1.0
C      1  0.5734730000000  0.4655250000000  0.5336760000000 1.0
C      1  0.5530720000000  0.5059930000000  0.4190430000000 1.0
C      1  0.4600610000000  0.5007190000000  0.5164580000000 1.0
C      1  0.5313240000000  0.5577260000000  0.4295540000000 1.0
C      1  0.4179760000000  0.4763480000000  0.5345130000000 1.0
C      1  0.5532360000000  0.4209930000000  0.5197640000000 1.0
C      1  0.4598740000000  0.4615660000000  0.5811880000000 1.0
C      1  0.4859520000000  0.4552980000000  0.4669450000000 1.0
C      1  0.5790320000000  0.5568530000000  0.5335340000000 1.0
C      1  0.5752670000000  0.4394010000000  0.5187980000000 1.0
C      1  0.5987330000000  0.4946130000000  0.4999660000000 1.0
C      1  0.4522730000000  0.5323140000000  0.4463170000000 1.0
C      1  0.5053560000000  0.5148210000000  0.5247340000000 1.0
C      1  0.4844000000000  0.5898770000000  0.5259670000000 1.0
C      1  0.4168140000000  0.4999220000000  0.4891750000000 1.0
C      1  0.4538200000000  0.4184890000000  0.5609220000000 1.0
C      1  0.4466560000000  0.5790030000000  0.4745650000000 1.0
C      1  0.4854560000000  0.4471870000000  0.4357270000000 1.0
C      1  0.5436350000000  0.4813360000000  0.5736330000000 1.0
C      1  0.5124120000000  0.5492990000000  0.4749920000000 1.0
C      1  0.5371730000000  0.5798900000000  0.5228350000000 1.0
C      1  0.4819490000000  0.5605950000000  0.5155940000000 1.0
C      1  0.4703870000000  0.4883400000000  0.5841890000000 1.0
C      1  0.4615350000000  0.5825780000000  0.5621020000000 1.0
C      1  0.4985640000000  0.4922250000000  0.5838990000000 1.0
C      1  0.4770590000000  0.5182270000000  0.5358990000000 1.0
C      1  0.5255300000000  0.4752420000000  0.5278520000000 1.0
C      1  0.5020830000000  0.5614630000000  0.5627680000000 1.0
C      1  0.5508700000000  0.4851290000000  0.4794280000000 1.0
C      1  0.5052010000000  0.4663020000000  0.4172530000000 1.0
C      1  0.5553820000000  0.4770290000000  0.4225810000000 1.0
C      1  0.5150310000000  0.4082970000000  0.4678710000000 1.0
C      1  0.4599830000000  0.5069870000000  0.4638550000000 1.0
C      1  0.5740020000000  0.4495400000000  0.4922080000000 1.0
C      1  0.4252780000000  0.4939840000000  0.4358140000000 1.0
C      1  0.5544300000000  0.5655090000000  0.5448400000000 1.0
C      1  0.4197990000000  0.5232360000000  0.5317950000000 1.0
C      1  0.4270640000000  0.5057270000000  0.5753450000000 1.0
C      1  0.4288600000000  0.5698510000000  0.4994690000000 1.0
C      1  0.5515860000000  0.4366960000000  0.5666360000000 1.0
C      1  0.4229420000000  0.5435550000000  0.4852090000000 1.0
C      1  0.4886870000000  0.5855770000000  0.5559720000000 1.0
C      1  0.4288540000000  0.4350740000000  0.5573510000000 1.0
C      1  0.4239990000000  0.4460790000000  0.4828620000000 1.0
C      1  0.4375610000000  0.5194020000000  0.4236950000000 1.0
C      1  0.5277920000000  0.4294200000000  0.4866860000000 1.0
C      1  0.5155920000000  0.5183130000000  0.4728400000000 1.0
C      1  0.5105080000000  0.4199690000000  0.4413230000000 1.0
C      1  0.4236990000000  0.4322050000000  0.5069170000000 1.0
C      1  0.4412170000000  0.4715320000000  0.4223170000000 1.0
C      1  0.5516030000000  0.4803230000000  0.5153000000000 1.0
C      1  0.4350180000000  0.5521520000000  0.4598100000000 1.0
C      1  0.4343720000000  0.4901870000000  0.4654880000000 1.0
C      1  0.5760920000000  0.5567600000000  0.4551720000000 1.0
C      1  0.4662680000000  0.4864320000000  0.4189370000000 1.0
C      1  0.5356140000000  0.4321430000000  0.4314370000000 1.0
C      1  0.5496550000000  0.5287070000000  0.5073760000000 1.0
C      1  0.5111290000000  0.5568530000000  0.5054400000000 1.0
C      1  0.5874310000000  0.5306570000000  0.4628380000000 1.0
END
