TITL C-951346-9544-350 2.8201794222984e-07 125000 -711.096280669405 0 0 113 (C1) n - 1
REM
REM in /home/bkarasulu/work/CARBON/AIRSS/Generating-Clusters/EDIP-Nigel-Params/with-SteepDescent/Only-C1/SD-CG/HFTN-CG
REM
REM
REM
REM
REM
REM ./C.cell (11c1c37f851c82e70ff6c80c92926a4b)
REM
REM compiler GCC version 9.2.1 20190827 (Red Hat 9.2.1-1)
REM options -cpp -mtune=generic -march=x86-64 -g -O0 -fpre-include=/usr/include/finclude/math-vector-fortran.h
REM seed 1832925411 -1792673305 -2038329585 -799670287 601261265 1351958632 -33412093 -1349690241 -739381066 475177331 868010523 -582872760 -406701674 1688257315 -1943925408 -1509565217 239621036 1569920094 2105320945 -1991847182 -323975551 -2139459793 -1118463959 -1151126406 1486549535 -1616838576 538881979 749493761 -1171068419 -808646233 -1187296543 1889386645 -864487293
REM
CELL 1.54180   50.00000   50.00000   50.00000   90.00000   90.00000   90.00000
LATT -1
SFAC C  
C      1  0.5528480000000  0.5357180000000  0.4505430000000 1.0
C      1  0.5685930000000  0.4517760000000  0.5447600000000 1.0
C      1  0.4126770000000  0.4838440000000  0.4818090000000 1.0
C      1  0.5411850000000  0.4344900000000  0.4571240000000 1.0
C      1  0.5325200000000  0.4572930000000  0.5807030000000 1.0
C      1  0.4654210000000  0.5343180000000  0.5048140000000 1.0
C      1  0.4512410000000  0.5125270000000  0.4877080000000 1.0
C      1  0.5694650000000  0.5635520000000  0.5249540000000 1.0
C      1  0.5117310000000  0.4391770000000  0.5708840000000 1.0
C      1  0.5362100000000  0.5261670000000  0.4741880000000 1.0
C      1  0.5418510000000  0.5431470000000  0.4976840000000 1.0
C      1  0.5800230000000  0.5258190000000  0.5595550000000 1.0
C      1  0.4100440000000  0.5208870000000  0.5142240000000 1.0
C      1  0.5199500000000  0.5800040000000  0.5210500000000 1.0
C      1  0.5928600000000  0.5272770000000  0.4818140000000 1.0
C      1  0.4908120000000  0.5455630000000  0.4875930000000 1.0
C      1  0.5114700000000  0.4963180000000  0.5094000000000 1.0
C      1  0.5064330000000  0.5257740000000  0.4723550000000 1.0
C      1  0.4298820000000  0.4923740000000  0.5528710000000 1.0
C      1  0.4908930000000  0.4809830000000  0.5826810000000 1.0
C      1  0.5884040000000  0.4885240000000  0.5132760000000 1.0
C      1  0.4855290000000  0.4526730000000  0.5743710000000 1.0
C      1  0.5185860000000  0.5658440000000  0.4404320000000 1.0
C      1  0.4802330000000  0.4180980000000  0.4594480000000 1.0
C      1  0.4652010000000  0.4808810000000  0.4248560000000 1.0
C      1  0.4440530000000  0.5414390000000  0.5475200000000 1.0
C      1  0.4690890000000  0.4182520000000  0.5414370000000 1.0
C      1  0.4598760000000  0.4840580000000  0.4936710000000 1.0
C      1  0.4780650000000  0.4931910000000  0.5389700000000 1.0
C      1  0.5357850000000  0.5065570000000  0.5689690000000 1.0
C      1  0.4303460000000  0.5168650000000  0.5363040000000 1.0
C      1  0.4862750000000  0.4982870000000  0.4139930000000 1.0
C      1  0.5653140000000  0.5423870000000  0.5768500000000 1.0
C      1  0.5011500000000  0.5742670000000  0.4632270000000 1.0
C      1  0.5379670000000  0.5348730000000  0.5777420000000 1.0
C      1  0.5686580000000  0.5616420000000  0.4946650000000 1.0
C      1  0.5452410000000  0.4148380000000  0.4797790000000 1.0
C      1  0.4277320000000  0.5557370000000  0.4587810000000 1.0
C      1  0.4458660000000  0.4937540000000  0.4444760000000 1.0
C      1  0.5918130000000  0.5175450000000  0.5084980000000 1.0
C      1  0.5781670000000  0.4789580000000  0.5391070000000 1.0
C      1  0.4348660000000  0.4730640000000  0.4653930000000 1.0
C      1  0.4771830000000  0.4469970000000  0.5189790000000 1.0
C      1  0.5210030000000  0.4846240000000  0.5830230000000 1.0
C      1  0.4974210000000  0.4103610000000  0.5038890000000 1.0
C      1  0.4723130000000  0.5004050000000  0.5687370000000 1.0
C      1  0.4244870000000  0.5129080000000  0.4352060000000 1.0
C      1  0.5516030000000  0.5804860000000  0.4769920000000 1.0
C      1  0.4616400000000  0.4350090000000  0.4450030000000 1.0
C      1  0.4201600000000  0.5124490000000  0.4863040000000 1.0
C      1  0.5132570000000  0.5394610000000  0.4260370000000 1.0
C      1  0.4562310000000  0.5520790000000  0.4510000000000 1.0
C      1  0.4929550000000  0.5733270000000  0.5314910000000 1.0
C      1  0.4580970000000  0.5841160000000  0.4860640000000 1.0
C      1  0.3990300000000  0.5468400000000  0.5137410000000 1.0
C      1  0.4373260000000  0.5287430000000  0.4155870000000 1.0
C      1  0.4626740000000  0.5145410000000  0.4593000000000 1.0
C      1  0.5526180000000  0.5128450000000  0.5272100000000 1.0
C      1  0.4141630000000  0.5286050000000  0.4597680000000 1.0
C      1  0.5477290000000  0.5669270000000  0.4496490000000 1.0
C      1  0.5398440000000  0.5636560000000  0.5370460000000 1.0
C      1  0.5447700000000  0.4979240000000  0.4765740000000 1.0
C      1  0.5521160000000  0.4351980000000  0.5259640000000 1.0
C      1  0.5800340000000  0.5214090000000  0.4571380000000 1.0
C      1  0.5230870000000  0.4552090000000  0.4709690000000 1.0
C      1  0.4940800000000  0.5552570000000  0.5548660000000 1.0
C      1  0.5195920000000  0.5557030000000  0.5690260000000 1.0
C      1  0.5835270000000  0.5367520000000  0.5313000000000 1.0
C      1  0.5714660000000  0.4933840000000  0.4630730000000 1.0
C      1  0.5637720000000  0.4291220000000  0.4984220000000 1.0
C      1  0.5050400000000  0.4816390000000  0.5341110000000 1.0
C      1  0.4927280000000  0.4530010000000  0.4696570000000 1.0
C      1  0.4633820000000  0.4441110000000  0.5553570000000 1.0
C      1  0.4212720000000  0.5634000000000  0.5095700000000 1.0
C      1  0.4965010000000  0.4103810000000  0.5331750000000 1.0
C      1  0.5335720000000  0.4921750000000  0.4294130000000 1.0
C      1  0.4917900000000  0.5030450000000  0.4611940000000 1.0
C      1  0.4719030000000  0.5752560000000  0.4613940000000 1.0
C      1  0.5254090000000  0.5706820000000  0.4932440000000 1.0
C      1  0.4371630000000  0.4662650000000  0.5400890000000 1.0
C      1  0.4407120000000  0.4432420000000  0.4647400000000 1.0
C      1  0.4612870000000  0.5411570000000  0.4240850000000 1.0
C      1  0.5579730000000  0.4525750000000  0.5703370000000 1.0
C      1  0.5733760000000  0.4521020000000  0.4829870000000 1.0
C      1  0.4483500000000  0.4309450000000  0.4903800000000 1.0
C      1  0.5248450000000  0.4843230000000  0.4587080000000 1.0
C      1  0.4701980000000  0.5387250000000  0.5635410000000 1.0
C      1  0.4053510000000  0.4691840000000  0.5041190000000 1.0
C      1  0.4451740000000  0.4947660000000  0.5758890000000 1.0
C      1  0.4679030000000  0.5724640000000  0.5135480000000 1.0
C      1  0.5303630000000  0.5326700000000  0.5340460000000 1.0
C      1  0.5927620000000  0.4695400000000  0.4932670000000 1.0
C      1  0.5407700000000  0.4891140000000  0.5051400000000 1.0
C      1  0.5115060000000  0.4857310000000  0.4119040000000 1.0
C      1  0.5072480000000  0.4537400000000  0.5234010000000 1.0
C      1  0.5667100000000  0.4500420000000  0.4543840000000 1.0
C      1  0.4173450000000  0.4526330000000  0.5227360000000 1.0
C      1  0.5633420000000  0.5015080000000  0.5545720000000 1.0
C      1  0.4609490000000  0.4737500000000  0.5224100000000 1.0
C      1  0.4433520000000  0.5640150000000  0.5285210000000 1.0
C      1  0.5313580000000  0.4576430000000  0.5018960000000 1.0
C      1  0.4865290000000  0.5259180000000  0.4236840000000 1.0
C      1  0.5173350000000  0.4309300000000  0.5422740000000 1.0
C      1  0.4742290000000  0.4171090000000  0.4871870000000 1.0
C      1  0.4296780000000  0.5737540000000  0.4833630000000 1.0
C      1  0.5218780000000  0.4049880000000  0.4917410000000 1.0
C      1  0.5660200000000  0.4757280000000  0.4402200000000 1.0
C      1  0.4875630000000  0.4814960000000  0.4827460000000 1.0
C      1  0.4795030000000  0.5223370000000  0.5295990000000 1.0
C      1  0.5065740000000  0.5248630000000  0.5164650000000 1.0
C      1  0.5376720000000  0.5225160000000  0.4278820000000 1.0
C      1  0.4295140000000  0.4304690000000  0.5111370000000 1.0
C      1  0.4773700000000  0.4569870000000  0.4350500000000 1.0
END
