TITL C-950527-2551-555 -7.74783254453426e-06 125000 -1070.42047858247 0 0 170 (C1) n - 1
REM
REM in /home/bkarasulu/work/CARBON/AIRSS/Generating-Clusters/EDIP-Nigel-Params/with-SteepDescent/Only-C1/SD-CG/HFTN-CG
REM
REM
REM
REM
REM
REM ./C.cell (11c1c37f851c82e70ff6c80c92926a4b)
REM
REM compiler GCC version 9.2.1 20190827 (Red Hat 9.2.1-1)
REM options -cpp -mtune=generic -march=x86-64 -g -O0 -fpre-include=/usr/include/finclude/math-vector-fortran.h
REM seed 1926877692 -353782175 -140262320 489345097 -1902973861 1775404077 -1164247257 -1429391779 1840510949 1277965679 -1103284437 1163523947 -1359815929 -1476615587 449304249 -306601710 433097164 1733480766 -1490446449 -1425905693 1053358622 -858316364 528936633 1393076105 908746133 -1893951925 609303896 -956314209 1358829636 1315126851 -144021373 -1462847609 -1018678504
REM
CELL 1.54180   50.00000   50.00000   50.00000   90.00000   90.00000   90.00000
LATT -1
SFAC C  
C      1  0.4928440000000  0.5529030000000  0.5344090000000 1.0
C      1  0.4438490000000  0.4275670000000  0.4304500000000 1.0
C      1  0.4099510000000  0.4976710000000  0.5544670000000 1.0
C      1  0.4467700000000  0.5286750000000  0.5811850000000 1.0
C      1  0.5229930000000  0.5737940000000  0.4120020000000 1.0
C      1  0.5737940000000  0.4254140000000  0.4501960000000 1.0
C      1  0.4297900000000  0.5132450000000  0.5205080000000 1.0
C      1  0.6077180000000  0.5334740000000  0.5071220000000 1.0
C      1  0.4633110000000  0.4390090000000  0.4104550000000 1.0
C      1  0.6059580000000  0.5680020000000  0.5407990000000 1.0
C      1  0.5165140000000  0.5322020000000  0.4255640000000 1.0
C      1  0.5490490000000  0.4281560000000  0.5579340000000 1.0
C      1  0.5584010000000  0.5534020000000  0.5734590000000 1.0
C      1  0.4808640000000  0.4950030000000  0.5722160000000 1.0
C      1  0.4249950000000  0.4572110000000  0.5444620000000 1.0
C      1  0.5060930000000  0.5468890000000  0.5047810000000 1.0
C      1  0.5552520000000  0.5777090000000  0.4716320000000 1.0
C      1  0.5207340000000  0.4173410000000  0.4564380000000 1.0
C      1  0.4574620000000  0.5846990000000  0.5559800000000 1.0
C      1  0.4249140000000  0.5454990000000  0.5669730000000 1.0
C      1  0.4520290000000  0.5755690000000  0.4849700000000 1.0
C      1  0.3984080000000  0.5020840000000  0.4886650000000 1.0
C      1  0.5161380000000  0.4547130000000  0.5217300000000 1.0
C      1  0.3932090000000  0.5357930000000  0.5270130000000 1.0
C      1  0.5684460000000  0.5789110000000  0.5675340000000 1.0
C      1  0.5566180000000  0.5083040000000  0.5854600000000 1.0
C      1  0.4999440000000  0.5039350000000  0.4400000000000 1.0
C      1  0.4480200000000  0.3996570000000  0.4905690000000 1.0
C      1  0.5045120000000  0.4676510000000  0.4983340000000 1.0
C      1  0.4191160000000  0.4289950000000  0.5089500000000 1.0
C      1  0.5931150000000  0.4909680000000  0.5454560000000 1.0
C      1  0.4561600000000  0.4600600000000  0.5069560000000 1.0
C      1  0.5017280000000  0.5868870000000  0.4878790000000 1.0
C      1  0.4695780000000  0.4791410000000  0.5247590000000 1.0
C      1  0.5676940000000  0.5595590000000  0.4923980000000 1.0
C      1  0.4922610000000  0.4942720000000  0.5075350000000 1.0
C      1  0.5061260000000  0.4898890000000  0.5539780000000 1.0
C      1  0.4739060000000  0.5027100000000  0.4576400000000 1.0
C      1  0.5645260000000  0.5711820000000  0.4444000000000 1.0
C      1  0.5328700000000  0.5665130000000  0.5249550000000 1.0
C      1  0.5277380000000  0.5866380000000  0.4749670000000 1.0
C      1  0.4364920000000  0.5283740000000  0.4751160000000 1.0
C      1  0.5893290000000  0.5197470000000  0.5505460000000 1.0
C      1  0.4916930000000  0.4300490000000  0.4162120000000 1.0
C      1  0.4359980000000  0.4651280000000  0.5702810000000 1.0
C      1  0.5941080000000  0.4832610000000  0.4527870000000 1.0
C      1  0.5617810000000  0.5700800000000  0.5196210000000 1.0
C      1  0.5613940000000  0.5124010000000  0.5100390000000 1.0
C      1  0.5729740000000  0.5280600000000  0.5725630000000 1.0
C      1  0.4938850000000  0.4652220000000  0.5412050000000 1.0
C      1  0.5686800000000  0.4729100000000  0.4385020000000 1.0
C      1  0.4555650000000  0.5492370000000  0.4357770000000 1.0
C      1  0.3963730000000  0.4586030000000  0.4800030000000 1.0
C      1  0.5852050000000  0.4282520000000  0.4874400000000 1.0
C      1  0.4430840000000  0.5122180000000  0.4026460000000 1.0
C      1  0.4836450000000  0.5098000000000  0.4842370000000 1.0
C      1  0.4826510000000  0.4371040000000  0.5895170000000 1.0
C      1  0.5290520000000  0.4423010000000  0.4426320000000 1.0
C      1  0.5385430000000  0.4884410000000  0.5503340000000 1.0
C      1  0.5771600000000  0.5320890000000  0.4158340000000 1.0
C      1  0.5740080000000  0.4454330000000  0.4260750000000 1.0
C      1  0.5954090000000  0.5351090000000  0.4611700000000 1.0
C      1  0.6039750000000  0.5403840000000  0.5349940000000 1.0
C      1  0.5267410000000  0.5422870000000  0.5449080000000 1.0
C      1  0.4527590000000  0.5233130000000  0.4511730000000 1.0
C      1  0.4207370000000  0.4874350000000  0.5811250000000 1.0
C      1  0.5386200000000  0.4838320000000  0.4764510000000 1.0
C      1  0.4584130000000  0.4758660000000  0.4590760000000 1.0
C      1  0.4981500000000  0.5932760000000  0.5173090000000 1.0
C      1  0.4648130000000  0.4927600000000  0.3956140000000 1.0
C      1  0.5259500000000  0.5077330000000  0.4630520000000 1.0
C      1  0.4784220000000  0.5669860000000  0.4456710000000 1.0
C      1  0.4456530000000  0.5405550000000  0.5210300000000 1.0
C      1  0.4286670000000  0.5636170000000  0.4410120000000 1.0
C      1  0.5270930000000  0.4849100000000  0.4046980000000 1.0
C      1  0.3984080000000  0.4499140000000  0.5081490000000 1.0
C      1  0.4403760000000  0.4411780000000  0.5252900000000 1.0
C      1  0.4425540000000  0.4756910000000  0.4847590000000 1.0
C      1  0.5424320000000  0.5179520000000  0.4388200000000 1.0
C      1  0.5526070000000  0.4951740000000  0.4203610000000 1.0
C      1  0.5340720000000  0.4645640000000  0.5872440000000 1.0
C      1  0.4292300000000  0.4194350000000  0.4829550000000 1.0
C      1  0.4462110000000  0.4954930000000  0.5404470000000 1.0
C      1  0.5323310000000  0.5209770000000  0.5942890000000 1.0
C      1  0.5256620000000  0.5531120000000  0.4511260000000 1.0
C      1  0.3888380000000  0.5120160000000  0.5128680000000 1.0
C      1  0.5211030000000  0.5912170000000  0.5354390000000 1.0
C      1  0.4066380000000  0.5443650000000  0.4468540000000 1.0
C      1  0.4613580000000  0.4689960000000  0.4140580000000 1.0
C      1  0.5260430000000  0.5347460000000  0.4787870000000 1.0
C      1  0.5034940000000  0.4796640000000  0.4222680000000 1.0
C      1  0.5303620000000  0.4381300000000  0.5771710000000 1.0
C      1  0.4582330000000  0.4244650000000  0.4569100000000 1.0
C      1  0.4105720000000  0.5178780000000  0.4391040000000 1.0
C      1  0.6048610000000  0.4862800000000  0.5194900000000 1.0
C      1  0.4827720000000  0.5375670000000  0.4885170000000 1.0
C      1  0.5469180000000  0.4099520000000  0.5145500000000 1.0
C      1  0.6078220000000  0.4471950000000  0.4874680000000 1.0
C      1  0.6087300000000  0.4628250000000  0.4646970000000 1.0
C      1  0.4396150000000  0.4737830000000  0.4338650000000 1.0
C      1  0.5085110000000  0.5127820000000  0.5312320000000 1.0
C      1  0.5775300000000  0.4693040000000  0.5583630000000 1.0
C      1  0.5471300000000  0.5795280000000  0.4243520000000 1.0
C      1  0.5039780000000  0.4272760000000  0.5724440000000 1.0
C      1  0.5714820000000  0.4266200000000  0.5151200000000 1.0
C      1  0.5335020000000  0.5492410000000  0.5874660000000 1.0
C      1  0.4080670000000  0.4413300000000  0.4597380000000 1.0
C      1  0.4227410000000  0.4480500000000  0.4355460000000 1.0
C      1  0.4765420000000  0.3999750000000  0.4559320000000 1.0
C      1  0.4726120000000  0.3949860000000  0.5043720000000 1.0
C      1  0.4868100000000  0.4615970000000  0.6064070000000 1.0
C      1  0.4378020000000  0.5050540000000  0.5975490000000 1.0
C      1  0.5932790000000  0.5069800000000  0.4705680000000 1.0
C      1  0.4771750000000  0.5828330000000  0.4705830000000 1.0
C      1  0.5770840000000  0.5448990000000  0.4406610000000 1.0
C      1  0.5192660000000  0.4242950000000  0.5125950000000 1.0
C      1  0.4703200000000  0.5339130000000  0.5373030000000 1.0
C      1  0.5598140000000  0.4788230000000  0.5818490000000 1.0
C      1  0.5143590000000  0.5074760000000  0.3894100000000 1.0
C      1  0.5481130000000  0.4333800000000  0.4214480000000 1.0
C      1  0.4739880000000  0.5868150000000  0.5320400000000 1.0
C      1  0.4660840000000  0.4665300000000  0.5733550000000 1.0
C      1  0.4771980000000  0.4507570000000  0.4583130000000 1.0
C      1  0.4059790000000  0.5569800000000  0.5107650000000 1.0
C      1  0.4910300000000  0.4466150000000  0.4834040000000 1.0
C      1  0.4057550000000  0.5594360000000  0.4813390000000 1.0
C      1  0.4244070000000  0.5727900000000  0.5247840000000 1.0
C      1  0.4640110000000  0.4929770000000  0.6077790000000 1.0
C      1  0.5353700000000  0.4059870000000  0.5433090000000 1.0
C      1  0.5969250000000  0.5521200000000  0.4860780000000 1.0
C      1  0.4048230000000  0.5280390000000  0.5534370000000 1.0
C      1  0.5228980000000  0.5566390000000  0.3902410000000 1.0
C      1  0.4988320000000  0.4067930000000  0.4371600000000 1.0
C      1  0.5313910000000  0.5305380000000  0.3901310000000 1.0
C      1  0.5072440000000  0.4212170000000  0.4836850000000 1.0
C      1  0.5037310000000  0.4081250000000  0.5492440000000 1.0
C      1  0.4574840000000  0.4218460000000  0.5382580000000 1.0
C      1  0.5716330000000  0.5087330000000  0.4030390000000 1.0
C      1  0.4595330000000  0.5369600000000  0.4081940000000 1.0
C      1  0.4911480000000  0.3962190000000  0.4821680000000 1.0
C      1  0.4329900000000  0.5696360000000  0.5514480000000 1.0
C      1  0.4544170000000  0.5461780000000  0.4923910000000 1.0
C      1  0.4868780000000  0.5132850000000  0.3987870000000 1.0
C      1  0.5523190000000  0.5342950000000  0.4917560000000 1.0
C      1  0.3840470000000  0.4828270000000  0.4742390000000 1.0
C      1  0.4809690000000  0.4099680000000  0.5290840000000 1.0
C      1  0.5937640000000  0.5079760000000  0.5016420000000 1.0
C      1  0.5123610000000  0.4762270000000  0.6025470000000 1.0
C      1  0.5479690000000  0.4620540000000  0.4591590000000 1.0
C      1  0.4280950000000  0.5032370000000  0.4910270000000 1.0
C      1  0.4713900000000  0.5390320000000  0.5970200000000 1.0
C      1  0.5112100000000  0.5654510000000  0.5792290000000 1.0
C      1  0.5472810000000  0.5165700000000  0.5387970000000 1.0
C      1  0.5156630000000  0.5879000000000  0.5629170000000 1.0
C      1  0.5639440000000  0.4476780000000  0.5396330000000 1.0
C      1  0.5009550000000  0.4524780000000  0.4344670000000 1.0
C      1  0.5002810000000  0.5729360000000  0.4289490000000 1.0
C      1  0.6106800000000  0.4606320000000  0.5112130000000 1.0
C      1  0.5430690000000  0.4682240000000  0.5274320000000 1.0
C      1  0.4265380000000  0.4999800000000  0.4243300000000 1.0
C      1  0.5794870000000  0.5766670000000  0.5419370000000 1.0
C      1  0.5101840000000  0.5051220000000  0.6032690000000 1.0
C      1  0.5512090000000  0.4853690000000  0.5029340000000 1.0
C      1  0.5608360000000  0.4390620000000  0.4737180000000 1.0
C      1  0.4852630000000  0.5643520000000  0.5918120000000 1.0
C      1  0.4837970000000  0.5154360000000  0.6103190000000 1.0
C      1  0.4682930000000  0.5836450000000  0.5814500000000 1.0
C      1  0.4003870000000  0.4671510000000  0.5327080000000 1.0
C      1  0.4619950000000  0.5143580000000  0.5582270000000 1.0
C      1  0.4264910000000  0.5771840000000  0.4685850000000 1.0
END
