TITL C-951341-1326-43 1.34749260260727e-06 125000 -320.605586306153 0 0 54 (C1) n - 1
REM
REM in /home/bkarasulu/work/CARBON/AIRSS/Generating-Clusters/EDIP-Nigel-Params/with-SteepDescent/Only-C1/SD-CG/HFTN-CG
REM
REM
REM
REM
REM
REM ./C.cell (11c1c37f851c82e70ff6c80c92926a4b)
REM
REM compiler GCC version 9.2.1 20190827 (Red Hat 9.2.1-1)
REM options -cpp -mtune=generic -march=x86-64 -g -O0 -fpre-include=/usr/include/finclude/math-vector-fortran.h
REM seed 1742428181 -944388166 -2008530779 2007717545 -1136844807 1058729229 -1743699768 8351066 -1666992536 -514551947 237687164 -1431628012 378283819 -1312655290 -1008130805 -1786590706 1886547315 670417625 1694797152 -2003479961 1005900523 547321246 1533447190 -834071140 1847386095 -304525806 1702920708 -2132507151 -382034414 -21639608 -565557193 576545721 1030968395
REM
CELL 1.54180   50.00000   50.00000   50.00000   90.00000   90.00000   90.00000
LATT -1
SFAC C  
C      1  0.4522110000000  0.5438700000000  0.4547760000000 1.0
C      1  0.5085690000000  0.4532810000000  0.4796810000000 1.0
C      1  0.5038600000000  0.5366830000000  0.5287660000000 1.0
C      1  0.5233520000000  0.4708890000000  0.5003940000000 1.0
C      1  0.4823230000000  0.4913560000000  0.5236270000000 1.0
C      1  0.4465200000000  0.5125190000000  0.5654170000000 1.0
C      1  0.5406770000000  0.5270380000000  0.4544460000000 1.0
C      1  0.4943790000000  0.4442500000000  0.5288980000000 1.0
C      1  0.4925070000000  0.5255250000000  0.4731040000000 1.0
C      1  0.5597700000000  0.5327100000000  0.4883690000000 1.0
C      1  0.4237450000000  0.5040200000000  0.5235250000000 1.0
C      1  0.5208770000000  0.4721450000000  0.4316240000000 1.0
C      1  0.4513670000000  0.4810430000000  0.4564900000000 1.0
C      1  0.5450340000000  0.5459200000000  0.5109690000000 1.0
C      1  0.4450170000000  0.4700910000000  0.5471960000000 1.0
C      1  0.4370370000000  0.4875310000000  0.5043620000000 1.0
C      1  0.5264450000000  0.5643570000000  0.4992530000000 1.0
C      1  0.4404130000000  0.5481070000000  0.4919420000000 1.0
C      1  0.4912000000000  0.4998510000000  0.4586260000000 1.0
C      1  0.4317500000000  0.4950620000000  0.5493300000000 1.0
C      1  0.4582460000000  0.4733260000000  0.5210180000000 1.0
C      1  0.4944730000000  0.5095370000000  0.5749560000000 1.0
C      1  0.4596700000000  0.5401740000000  0.5156500000000 1.0
C      1  0.5156260000000  0.4566580000000  0.4528930000000 1.0
C      1  0.5535710000000  0.4655080000000  0.5030080000000 1.0
C      1  0.4459840000000  0.4991980000000  0.4790060000000 1.0
C      1  0.5079560000000  0.4527220000000  0.5703030000000 1.0
C      1  0.5015220000000  0.5536220000000  0.5065680000000 1.0
C      1  0.5228620000000  0.5220570000000  0.4289270000000 1.0
C      1  0.5664670000000  0.4889050000000  0.5167690000000 1.0
C      1  0.4795390000000  0.4476520000000  0.4837840000000 1.0
C      1  0.5223830000000  0.4975920000000  0.4902810000000 1.0
C      1  0.5744410000000  0.5070950000000  0.4941650000000 1.0
C      1  0.5327260000000  0.4951410000000  0.4216880000000 1.0
C      1  0.4710450000000  0.4936100000000  0.4390390000000 1.0
C      1  0.5308310000000  0.5283760000000  0.5306650000000 1.0
C      1  0.4921380000000  0.5247540000000  0.4291130000000 1.0
C      1  0.5381990000000  0.5177360000000  0.5554800000000 1.0
C      1  0.4812710000000  0.5427370000000  0.4517570000000 1.0
C      1  0.4727870000000  0.5209250000000  0.5614420000000 1.0
C      1  0.5577800000000  0.5029810000000  0.4488170000000 1.0
C      1  0.4915900000000  0.4364600000000  0.5558210000000 1.0
C      1  0.4790640000000  0.5210190000000  0.5325360000000 1.0
C      1  0.5659530000000  0.4628090000000  0.4774820000000 1.0
C      1  0.5195730000000  0.4733650000000  0.5549200000000 1.0
C      1  0.4603700000000  0.4557300000000  0.4647670000000 1.0
C      1  0.5202770000000  0.4998640000000  0.5681880000000 1.0
C      1  0.5224460000000  0.5249600000000  0.4805910000000 1.0
C      1  0.5719670000000  0.4896260000000  0.4705170000000 1.0
C      1  0.4704460000000  0.4465360000000  0.5118090000000 1.0
C      1  0.5061530000000  0.4719280000000  0.5271680000000 1.0
C      1  0.5848480000000  0.4827190000000  0.5351510000000 1.0
C      1  0.4362100000000  0.5260800000000  0.4719920000000 1.0
C      1  0.4745360000000  0.5623520000000  0.5029300000000 1.0
END
