TITL C-950523-3027-193 -2.58864402053732e-06 125000 -882.266321359527 0 0 141 (C1) n - 1
REM
REM in /home/bkarasulu/work/CARBON/AIRSS/Generating-Clusters/EDIP-Nigel-Params/with-SteepDescent/Only-C1/SD-CG/HFTN-CG
REM
REM
REM
REM
REM
REM ./C.cell (11c1c37f851c82e70ff6c80c92926a4b)
REM
REM compiler GCC version 9.2.1 20190827 (Red Hat 9.2.1-1)
REM options -cpp -mtune=generic -march=x86-64 -g -O0 -fpre-include=/usr/include/finclude/math-vector-fortran.h
REM seed -1959307030 308406994 -1981849931 1448633976 1727049788 903394770 -1929477295 -1959525909 1262655113 -730156227 -1811636962 579964503 1477212339 1971085629 479378622 -1874661765 1850860708 -997828815 205076969 -573131662 -2084019716 223586900 -824264477 -1640186222 -1555397213 1605336989 858684716 -1397971512 -1452406098 -1767699342 -627102078 -405240711 -416436939
REM
CELL 1.54180   50.00000   50.00000   50.00000   90.00000   90.00000   90.00000
LATT -1
SFAC C  
C      1  0.5617330000000  0.4995500000000  0.5651340000000 1.0
C      1  0.5430830000000  0.5047300000000  0.5169710000000 1.0
C      1  0.4737730000000  0.5545670000000  0.5137160000000 1.0
C      1  0.4608610000000  0.5973830000000  0.4652190000000 1.0
C      1  0.5734890000000  0.4533000000000  0.4524100000000 1.0
C      1  0.4183590000000  0.5371530000000  0.5537340000000 1.0
C      1  0.5197160000000  0.5206430000000  0.5119870000000 1.0
C      1  0.5690470000000  0.5360210000000  0.4799890000000 1.0
C      1  0.4994310000000  0.4508980000000  0.4782610000000 1.0
C      1  0.4118910000000  0.4603480000000  0.5023270000000 1.0
C      1  0.5283270000000  0.5926080000000  0.5286830000000 1.0
C      1  0.5346600000000  0.4243240000000  0.4566650000000 1.0
C      1  0.5441120000000  0.4296320000000  0.5705040000000 1.0
C      1  0.5284140000000  0.5935230000000  0.4990630000000 1.0
C      1  0.4343440000000  0.5417180000000  0.4571540000000 1.0
C      1  0.4817300000000  0.5635870000000  0.4856200000000 1.0
C      1  0.5804190000000  0.5424930000000  0.5484020000000 1.0
C      1  0.4537250000000  0.4305580000000  0.5381540000000 1.0
C      1  0.4777480000000  0.5581350000000  0.4390120000000 1.0
C      1  0.4550510000000  0.4538910000000  0.4404710000000 1.0
C      1  0.5150000000000  0.4392430000000  0.5758240000000 1.0
C      1  0.4745560000000  0.5895440000000  0.5400540000000 1.0
C      1  0.4797550000000  0.4745460000000  0.4051430000000 1.0
C      1  0.4869030000000  0.5206720000000  0.4170020000000 1.0
C      1  0.5056370000000  0.4028250000000  0.4927430000000 1.0
C      1  0.3981420000000  0.4829920000000  0.4894030000000 1.0
C      1  0.4611510000000  0.5620680000000  0.5496840000000 1.0
C      1  0.4315570000000  0.5630050000000  0.5513030000000 1.0
C      1  0.5028550000000  0.5575070000000  0.5300160000000 1.0
C      1  0.5362220000000  0.4702900000000  0.4003700000000 1.0
C      1  0.4230320000000  0.4417590000000  0.4794360000000 1.0
C      1  0.4514790000000  0.4822410000000  0.4915650000000 1.0
C      1  0.5038880000000  0.4781620000000  0.5131330000000 1.0
C      1  0.5592560000000  0.4691630000000  0.5566580000000 1.0
C      1  0.5254210000000  0.5027010000000  0.4720430000000 1.0
C      1  0.5450040000000  0.5437020000000  0.4134060000000 1.0
C      1  0.4953460000000  0.4988280000000  0.3992640000000 1.0
C      1  0.4609420000000  0.4219700000000  0.5111720000000 1.0
C      1  0.4887020000000  0.5053660000000  0.5953370000000 1.0
C      1  0.4791210000000  0.5174870000000  0.4651450000000 1.0
C      1  0.5134410000000  0.5203710000000  0.5969530000000 1.0
C      1  0.4628160000000  0.5973720000000  0.5139140000000 1.0
C      1  0.5122890000000  0.5290920000000  0.4312090000000 1.0
C      1  0.4821160000000  0.4916180000000  0.4500640000000 1.0
C      1  0.5839490000000  0.4813190000000  0.4592180000000 1.0
C      1  0.5071330000000  0.6053990000000  0.4815980000000 1.0
C      1  0.4651950000000  0.5463510000000  0.4636040000000 1.0
C      1  0.5568640000000  0.5067920000000  0.4702760000000 1.0
C      1  0.4396400000000  0.5811680000000  0.5049950000000 1.0
C      1  0.3972670000000  0.4835010000000  0.5451820000000 1.0
C      1  0.4949570000000  0.4507950000000  0.4146570000000 1.0
C      1  0.5328330000000  0.4625350000000  0.5426980000000 1.0
C      1  0.4787290000000  0.5889070000000  0.4419650000000 1.0
C      1  0.4384580000000  0.5286480000000  0.4291370000000 1.0
C      1  0.4834100000000  0.4140930000000  0.4499210000000 1.0
C      1  0.4214130000000  0.5676850000000  0.4566280000000 1.0
C      1  0.5034330000000  0.5940800000000  0.5432720000000 1.0
C      1  0.4937350000000  0.4510570000000  0.5105620000000 1.0
C      1  0.4936650000000  0.4046710000000  0.5412260000000 1.0
C      1  0.5219600000000  0.4467780000000  0.4065460000000 1.0
C      1  0.5073090000000  0.5971360000000  0.4523300000000 1.0
C      1  0.4552370000000  0.5306600000000  0.5057480000000 1.0
C      1  0.4734310000000  0.4178660000000  0.5567570000000 1.0
C      1  0.4628060000000  0.4805900000000  0.4296170000000 1.0
C      1  0.5203490000000  0.5577450000000  0.4269180000000 1.0
C      1  0.5151980000000  0.5442510000000  0.5809840000000 1.0
C      1  0.4719870000000  0.4585370000000  0.5874940000000 1.0
C      1  0.4366320000000  0.5826980000000  0.4749300000000 1.0
C      1  0.5084930000000  0.5260360000000  0.4627630000000 1.0
C      1  0.5278900000000  0.4682490000000  0.4381710000000 1.0
C      1  0.5452440000000  0.4605260000000  0.4930540000000 1.0
C      1  0.4922930000000  0.4761900000000  0.5977000000000 1.0
C      1  0.5182830000000  0.4627470000000  0.5927020000000 1.0
C      1  0.5512390000000  0.5798140000000  0.5429860000000 1.0
C      1  0.5668280000000  0.5596170000000  0.5291730000000 1.0
C      1  0.5373360000000  0.4196960000000  0.5222640000000 1.0
C      1  0.5877020000000  0.4823260000000  0.4889550000000 1.0
C      1  0.5032510000000  0.5399900000000  0.5551800000000 1.0
C      1  0.5239530000000  0.4958270000000  0.4039550000000 1.0
C      1  0.4930120000000  0.5051490000000  0.5137260000000 1.0
C      1  0.4673050000000  0.4554110000000  0.4826160000000 1.0
C      1  0.4448440000000  0.4607160000000  0.5935580000000 1.0
C      1  0.5570880000000  0.4175280000000  0.5440540000000 1.0
C      1  0.5318540000000  0.3970740000000  0.5047430000000 1.0
C      1  0.4465030000000  0.4581300000000  0.5438270000000 1.0
C      1  0.4508670000000  0.4302190000000  0.4844330000000 1.0
C      1  0.5934260000000  0.5070440000000  0.5030030000000 1.0
C      1  0.5698910000000  0.5529480000000  0.4556720000000 1.0
C      1  0.4161560000000  0.4887150000000  0.5654220000000 1.0
C      1  0.5237650000000  0.5487530000000  0.5055060000000 1.0
C      1  0.5738790000000  0.4605570000000  0.5039430000000 1.0
C      1  0.5659720000000  0.5352820000000  0.4326500000000 1.0
C      1  0.5813720000000  0.4279660000000  0.4688700000000 1.0
C      1  0.5498560000000  0.5175160000000  0.5853810000000 1.0
C      1  0.4856200000000  0.4353570000000  0.5766220000000 1.0
C      1  0.4411420000000  0.4777420000000  0.5217280000000 1.0
C      1  0.4321290000000  0.4641970000000  0.5687750000000 1.0
C      1  0.4650270000000  0.5183050000000  0.5820730000000 1.0
C      1  0.4344410000000  0.5126450000000  0.5603230000000 1.0
C      1  0.5648260000000  0.5069740000000  0.4411830000000 1.0
C      1  0.5236480000000  0.5719410000000  0.4533300000000 1.0
C      1  0.4068630000000  0.5468430000000  0.5184920000000 1.0
C      1  0.5530090000000  0.5821010000000  0.4882030000000 1.0
C      1  0.5085400000000  0.4790200000000  0.4595600000000 1.0
C      1  0.5326690000000  0.4765730000000  0.5161400000000 1.0
C      1  0.5714470000000  0.5169870000000  0.5205680000000 1.0
C      1  0.5448130000000  0.4659910000000  0.6022360000000 1.0
C      1  0.5580590000000  0.4082690000000  0.4652600000000 1.0
C      1  0.5600320000000  0.4524320000000  0.5819760000000 1.0
C      1  0.4195580000000  0.4833210000000  0.4475000000000 1.0
C      1  0.5142100000000  0.4358770000000  0.5327010000000 1.0
C      1  0.5508210000000  0.5739090000000  0.5704950000000 1.0
C      1  0.4597290000000  0.4108110000000  0.4647420000000 1.0
C      1  0.4760460000000  0.4351830000000  0.4311190000000 1.0
C      1  0.5795470000000  0.4600510000000  0.5354250000000 1.0
C      1  0.5063700000000  0.4215110000000  0.4684830000000 1.0
C      1  0.4219710000000  0.4937370000000  0.4750000000000 1.0
C      1  0.5526970000000  0.5770570000000  0.4592690000000 1.0
C      1  0.5855880000000  0.4341810000000  0.4974440000000 1.0
C      1  0.4644450000000  0.5403810000000  0.4176720000000 1.0
C      1  0.4795190000000  0.5948040000000  0.4881350000000 1.0
C      1  0.4373070000000  0.4976710000000  0.4277340000000 1.0
C      1  0.4193760000000  0.5233040000000  0.4761640000000 1.0
C      1  0.5444080000000  0.4523580000000  0.4598270000000 1.0
C      1  0.5547870000000  0.5549920000000  0.5019350000000 1.0
C      1  0.4201730000000  0.5719760000000  0.5254210000000 1.0
C      1  0.5106710000000  0.5536530000000  0.4775890000000 1.0
C      1  0.4471510000000  0.5053580000000  0.5336920000000 1.0
C      1  0.4758640000000  0.5093130000000  0.5382200000000 1.0
C      1  0.3905580000000  0.4678210000000  0.5231890000000 1.0
C      1  0.4707260000000  0.5078350000000  0.4924520000000 1.0
C      1  0.5382890000000  0.5194240000000  0.3995570000000 1.0
C      1  0.4273910000000  0.4543210000000  0.4514910000000 1.0
C      1  0.5823330000000  0.4305340000000  0.5356020000000 1.0
C      1  0.4858560000000  0.4076410000000  0.5138550000000 1.0
C      1  0.5439960000000  0.5474990000000  0.5796790000000 1.0
C      1  0.5811570000000  0.5134240000000  0.5489200000000 1.0
C      1  0.5518540000000  0.3904560000000  0.4861950000000 1.0
C      1  0.4248690000000  0.5289690000000  0.5039280000000 1.0
C      1  0.5964880000000  0.5301620000000  0.4879160000000 1.0
C      1  0.4755460000000  0.5322180000000  0.5572930000000 1.0
END
