TITL C-950528-5794-133 -9.87678929408625e-08 125000 -721.015966574502 0 0 117 (C1) n - 1
REM
REM in /home/bkarasulu/work/CARBON/AIRSS/Generating-Clusters/EDIP-Nigel-Params/with-SteepDescent/Only-C1/SD-CG/HFTN-CG
REM
REM
REM
REM
REM
REM ./C.cell (11c1c37f851c82e70ff6c80c92926a4b)
REM
REM compiler GCC version 9.2.1 20190827 (Red Hat 9.2.1-1)
REM options -cpp -mtune=generic -march=x86-64 -g -O0 -fpre-include=/usr/include/finclude/math-vector-fortran.h
REM seed 1837109207 75959891 373666584 711742637 -2121560675 -1054671685 257850142 144489320 -142053838 1138894774 -696896446 392003560 95420380 493827541 1241529126 -1120076041 -402997647 776584671 -762080114 -760724620 -1785157182 -1472381060 -531109203 -1508249590 -738731314 -1500055466 186818890 991274012 -233954886 1813788036 1206299366 -1879370726 -271862
REM
CELL 1.54180   50.00000   50.00000   50.00000   90.00000   90.00000   90.00000
LATT -1
SFAC C  
C      1  0.5328700000000  0.5683820000000  0.5577050000000 1.0
C      1  0.5792180000000  0.4973560000000  0.5416080000000 1.0
C      1  0.4428440000000  0.4742270000000  0.5158140000000 1.0
C      1  0.5096830000000  0.4776360000000  0.3875910000000 1.0
C      1  0.5959230000000  0.5030630000000  0.4912640000000 1.0
C      1  0.4714370000000  0.4507640000000  0.4443960000000 1.0
C      1  0.5527160000000  0.4266060000000  0.4660120000000 1.0
C      1  0.5209460000000  0.4526020000000  0.4288840000000 1.0
C      1  0.4561440000000  0.4906090000000  0.5931270000000 1.0
C      1  0.5502290000000  0.4379920000000  0.5252130000000 1.0
C      1  0.4852340000000  0.5073560000000  0.4593950000000 1.0
C      1  0.4636130000000  0.5139520000000  0.5539860000000 1.0
C      1  0.5812180000000  0.5257310000000  0.5530340000000 1.0
C      1  0.4878830000000  0.5498780000000  0.5866400000000 1.0
C      1  0.4541870000000  0.4130260000000  0.4754160000000 1.0
C      1  0.5558620000000  0.5638910000000  0.4635180000000 1.0
C      1  0.4563440000000  0.4326710000000  0.4970550000000 1.0
C      1  0.4602680000000  0.5645390000000  0.5424180000000 1.0
C      1  0.5167120000000  0.5007050000000  0.4559780000000 1.0
C      1  0.5428520000000  0.4666010000000  0.5208240000000 1.0
C      1  0.5101580000000  0.5876470000000  0.4777240000000 1.0
C      1  0.4683810000000  0.4710670000000  0.5340300000000 1.0
C      1  0.5574170000000  0.5265530000000  0.4796900000000 1.0
C      1  0.5413130000000  0.5418290000000  0.4283120000000 1.0
C      1  0.4821790000000  0.5646170000000  0.5632400000000 1.0
C      1  0.4331960000000  0.5713270000000  0.5416570000000 1.0
C      1  0.5459870000000  0.5757590000000  0.5090280000000 1.0
C      1  0.5754800000000  0.4931680000000  0.4718290000000 1.0
C      1  0.4903140000000  0.4248740000000  0.5241130000000 1.0
C      1  0.5469700000000  0.4651640000000  0.4270420000000 1.0
C      1  0.4708260000000  0.4853120000000  0.4765470000000 1.0
C      1  0.4223960000000  0.4894560000000  0.5576490000000 1.0
C      1  0.4736870000000  0.5129480000000  0.4294160000000 1.0
C      1  0.4793840000000  0.4985250000000  0.5370660000000 1.0
C      1  0.5090680000000  0.4993380000000  0.5307310000000 1.0
C      1  0.5452990000000  0.5086430000000  0.5003590000000 1.0
C      1  0.4754570000000  0.4644120000000  0.4198590000000 1.0
C      1  0.4215920000000  0.5694310000000  0.5156740000000 1.0
C      1  0.5685210000000  0.4497150000000  0.4688870000000 1.0
C      1  0.4847790000000  0.5359560000000  0.4751630000000 1.0
C      1  0.5141220000000  0.4710090000000  0.5239020000000 1.0
C      1  0.5187370000000  0.5176000000000  0.5081950000000 1.0
C      1  0.4308600000000  0.4342420000000  0.5347320000000 1.0
C      1  0.5213110000000  0.5612460000000  0.4353580000000 1.0
C      1  0.4441920000000  0.5034240000000  0.5713310000000 1.0
C      1  0.4594690000000  0.4583600000000  0.5643920000000 1.0
C      1  0.4429920000000  0.4469980000000  0.4491120000000 1.0
C      1  0.5847360000000  0.5500810000000  0.5048080000000 1.0
C      1  0.5994750000000  0.5306150000000  0.4912710000000 1.0
C      1  0.5546790000000  0.4344330000000  0.5546370000000 1.0
C      1  0.5060220000000  0.5669190000000  0.5474960000000 1.0
C      1  0.4900070000000  0.4553580000000  0.5175180000000 1.0
C      1  0.5210820000000  0.4766580000000  0.4736740000000 1.0
C      1  0.4723400000000  0.5681700000000  0.5151750000000 1.0
C      1  0.4172660000000  0.5198830000000  0.4643340000000 1.0
C      1  0.4682560000000  0.5563500000000  0.4464290000000 1.0
C      1  0.4190980000000  0.4951610000000  0.4804930000000 1.0
C      1  0.5537410000000  0.5671910000000  0.5358010000000 1.0
C      1  0.4110380000000  0.5427940000000  0.5065120000000 1.0
C      1  0.4372470000000  0.5832260000000  0.4924120000000 1.0
C      1  0.4779770000000  0.4736780000000  0.5949880000000 1.0
C      1  0.5370170000000  0.4186310000000  0.5097230000000 1.0
C      1  0.5059620000000  0.4812130000000  0.5918290000000 1.0
C      1  0.5458780000000  0.4796500000000  0.4917860000000 1.0
C      1  0.5299080000000  0.5787090000000  0.4566340000000 1.0
C      1  0.5028980000000  0.4136900000000  0.5473420000000 1.0
C      1  0.5264830000000  0.4602170000000  0.5841840000000 1.0
C      1  0.5920410000000  0.4932430000000  0.5171560000000 1.0
C      1  0.4800740000000  0.4063050000000  0.4669460000000 1.0
C      1  0.5780340000000  0.5497400000000  0.5334210000000 1.0
C      1  0.5305220000000  0.5287700000000  0.4634150000000 1.0
C      1  0.4458960000000  0.5583110000000  0.4772360000000 1.0
C      1  0.4470560000000  0.4910290000000  0.4917610000000 1.0
C      1  0.4826500000000  0.4587590000000  0.4861190000000 1.0
C      1  0.4195970000000  0.5445340000000  0.4788840000000 1.0
C      1  0.4596430000000  0.4890960000000  0.4168040000000 1.0
C      1  0.5357410000000  0.4165040000000  0.5675440000000 1.0
C      1  0.4349430000000  0.4214940000000  0.4573300000000 1.0
C      1  0.5003180000000  0.5724290000000  0.5207130000000 1.0
C      1  0.4938680000000  0.4307040000000  0.5680510000000 1.0
C      1  0.5052980000000  0.4507990000000  0.4633790000000 1.0
C      1  0.5629660000000  0.5303640000000  0.5790360000000 1.0
C      1  0.5371780000000  0.5492870000000  0.5817600000000 1.0
C      1  0.4262780000000  0.4708590000000  0.4515650000000 1.0
C      1  0.5115230000000  0.5343980000000  0.5903430000000 1.0
C      1  0.5010380000000  0.5242890000000  0.3878550000000 1.0
C      1  0.4288180000000  0.5183910000000  0.4378400000000 1.0
C      1  0.5522960000000  0.4612840000000  0.5681710000000 1.0
C      1  0.5117420000000  0.5066090000000  0.5785750000000 1.0
C      1  0.4936800000000  0.5549690000000  0.4279000000000 1.0
C      1  0.4325960000000  0.4899080000000  0.4302520000000 1.0
C      1  0.4675600000000  0.4326470000000  0.5761570000000 1.0
C      1  0.4654520000000  0.5447450000000  0.4960430000000 1.0
C      1  0.5448870000000  0.5272520000000  0.5519120000000 1.0
C      1  0.5174050000000  0.4324040000000  0.5847190000000 1.0
C      1  0.5292420000000  0.5026040000000  0.5540240000000 1.0
C      1  0.5670890000000  0.5354290000000  0.4403600000000 1.0
C      1  0.4311120000000  0.4527570000000  0.5572140000000 1.0
C      1  0.5665320000000  0.5679710000000  0.4905730000000 1.0
C      1  0.5304900000000  0.4202780000000  0.4826080000000 1.0
C      1  0.4833050000000  0.5976140000000  0.4792210000000 1.0
C      1  0.5680920000000  0.4514830000000  0.4410090000000 1.0
C      1  0.5027140000000  0.4664580000000  0.4120040000000 1.0
C      1  0.4939380000000  0.5286470000000  0.4143790000000 1.0
C      1  0.5697400000000  0.5057320000000  0.4439700000000 1.0
C      1  0.5085410000000  0.5016340000000  0.3758820000000 1.0
C      1  0.4215870000000  0.4905290000000  0.5283540000000 1.0
C      1  0.5461120000000  0.4934630000000  0.4326710000000 1.0
C      1  0.5129270000000  0.5391500000000  0.4871150000000 1.0
C      1  0.5527870000000  0.4823590000000  0.5467200000000 1.0
C      1  0.4641550000000  0.5934440000000  0.5000370000000 1.0
C      1  0.4066930000000  0.5054250000000  0.5075450000000 1.0
C      1  0.4328890000000  0.4469400000000  0.5086550000000 1.0
C      1  0.4626590000000  0.4173130000000  0.5219220000000 1.0
C      1  0.4535700000000  0.5339200000000  0.4326120000000 1.0
C      1  0.5067810000000  0.4098690000000  0.4713920000000 1.0
C      1  0.5185660000000  0.5690180000000  0.4988840000000 1.0
END
