TITL C-951338-5626-115 2.00772476144737e-06 125000 -947.39661041941 0 0 153 (C1) n - 1
REM
REM in /home/bkarasulu/work/CARBON/AIRSS/Generating-Clusters/EDIP-Nigel-Params/with-SteepDescent/Only-C1/SD-CG/HFTN-CG
REM
REM
REM
REM
REM
REM ./C.cell (11c1c37f851c82e70ff6c80c92926a4b)
REM
REM compiler GCC version 9.2.1 20190827 (Red Hat 9.2.1-1)
REM options -cpp -mtune=generic -march=x86-64 -g -O0 -fpre-include=/usr/include/finclude/math-vector-fortran.h
REM seed 1616224845 1991060446 523437380 -261871239 -201784486 1611700858 -1881991479 801913716 912172298 -1545176458 -1867266834 620513147 -1113503013 215156909 -209126103 825948654 823723551 622961494 116379650 640960737 1395048732 -936241385 -1657202949 -451374970 654414986 -471899814 -42905211 2075706250 2057653681 -300975092 1146424083 1024135730 1496500769
REM
CELL 1.54180   50.00000   50.00000   50.00000   90.00000   90.00000   90.00000
LATT -1
SFAC C  
C      1  0.5527270000000  0.4705690000000  0.5743670000000 1.0
C      1  0.4561950000000  0.5201740000000  0.4479950000000 1.0
C      1  0.4621750000000  0.4285190000000  0.4239330000000 1.0
C      1  0.5224180000000  0.4600850000000  0.5435830000000 1.0
C      1  0.4050840000000  0.5237490000000  0.5047920000000 1.0
C      1  0.5408090000000  0.4228800000000  0.5707560000000 1.0
C      1  0.4407250000000  0.4307050000000  0.4652110000000 1.0
C      1  0.5455940000000  0.5028990000000  0.5300020000000 1.0
C      1  0.4495890000000  0.5232150000000  0.5198210000000 1.0
C      1  0.5693690000000  0.4329600000000  0.4088880000000 1.0
C      1  0.5248980000000  0.4962810000000  0.5974530000000 1.0
C      1  0.5936750000000  0.4866670000000  0.5102570000000 1.0
C      1  0.4579600000000  0.4427020000000  0.5230900000000 1.0
C      1  0.5901820000000  0.5352940000000  0.4390530000000 1.0
C      1  0.4862240000000  0.5031260000000  0.3865430000000 1.0
C      1  0.5324090000000  0.5613530000000  0.4758540000000 1.0
C      1  0.5468870000000  0.5173260000000  0.5925230000000 1.0
C      1  0.6156050000000  0.5290860000000  0.4775060000000 1.0
C      1  0.5738940000000  0.4643430000000  0.5542080000000 1.0
C      1  0.4183510000000  0.4250600000000  0.5327410000000 1.0
C      1  0.4996020000000  0.4735680000000  0.5580540000000 1.0
C      1  0.4854410000000  0.4892690000000  0.4779420000000 1.0
C      1  0.5069310000000  0.5746500000000  0.4643200000000 1.0
C      1  0.5312330000000  0.4633100000000  0.4184050000000 1.0
C      1  0.5347280000000  0.4469490000000  0.5851650000000 1.0
C      1  0.5142750000000  0.4745470000000  0.4992840000000 1.0
C      1  0.4871100000000  0.5528610000000  0.4600030000000 1.0
C      1  0.4763820000000  0.4058200000000  0.4952670000000 1.0
C      1  0.4731800000000  0.5244590000000  0.5021300000000 1.0
C      1  0.4707170000000  0.5148060000000  0.4747780000000 1.0
C      1  0.3999090000000  0.4754820000000  0.4630460000000 1.0
C      1  0.5819530000000  0.5620210000000  0.5041180000000 1.0
C      1  0.5431240000000  0.5530360000000  0.4265680000000 1.0
C      1  0.5551320000000  0.5648930000000  0.5235990000000 1.0
C      1  0.4468040000000  0.4778830000000  0.3926000000000 1.0
C      1  0.4252420000000  0.5294750000000  0.5716650000000 1.0
C      1  0.4284780000000  0.5510140000000  0.4714500000000 1.0
C      1  0.4385320000000  0.5493590000000  0.5271270000000 1.0
C      1  0.4923680000000  0.4124980000000  0.5516880000000 1.0
C      1  0.5820320000000  0.5372880000000  0.5563300000000 1.0
C      1  0.4618610000000  0.4094850000000  0.4673800000000 1.0
C      1  0.4549040000000  0.4721040000000  0.4433490000000 1.0
C      1  0.4202380000000  0.4643810000000  0.5811130000000 1.0
C      1  0.4278500000000  0.5044520000000  0.5104340000000 1.0
C      1  0.4769360000000  0.6156190000000  0.5182720000000 1.0
C      1  0.4983690000000  0.6090380000000  0.5014360000000 1.0
C      1  0.4999300000000  0.4404720000000  0.4513260000000 1.0
C      1  0.4137230000000  0.4356190000000  0.5753000000000 1.0
C      1  0.5861320000000  0.5069840000000  0.4891380000000 1.0
C      1  0.4313480000000  0.4362590000000  0.5083660000000 1.0
C      1  0.4591730000000  0.4457900000000  0.5621010000000 1.0
C      1  0.5033330000000  0.5010520000000  0.6156140000000 1.0
C      1  0.4795910000000  0.4193190000000  0.4445510000000 1.0
C      1  0.5531460000000  0.5826260000000  0.4693160000000 1.0
C      1  0.4400880000000  0.5020830000000  0.4061900000000 1.0
C      1  0.4803500000000  0.5087820000000  0.6004510000000 1.0
C      1  0.4137290000000  0.4276680000000  0.4745790000000 1.0
C      1  0.6077940000000  0.5159520000000  0.4517810000000 1.0
C      1  0.5086110000000  0.5459080000000  0.5814500000000 1.0
C      1  0.3989600000000  0.4442020000000  0.5475440000000 1.0
C      1  0.5430980000000  0.5208980000000  0.5062280000000 1.0
C      1  0.4336370000000  0.4831250000000  0.4864340000000 1.0
C      1  0.5333430000000  0.4762170000000  0.5220950000000 1.0
C      1  0.5420300000000  0.5396420000000  0.4544210000000 1.0
C      1  0.4565560000000  0.5688510000000  0.5101420000000 1.0
C      1  0.4373920000000  0.4980790000000  0.4376170000000 1.0
C      1  0.5069040000000  0.4670130000000  0.4364750000000 1.0
C      1  0.5500010000000  0.4857910000000  0.4194730000000 1.0
C      1  0.3998230000000  0.4532660000000  0.4809440000000 1.0
C      1  0.5443540000000  0.4066600000000  0.4974790000000 1.0
C      1  0.5810550000000  0.5284970000000  0.4136250000000 1.0
C      1  0.5049350000000  0.5532300000000  0.5196540000000 1.0
C      1  0.4923290000000  0.5700090000000  0.5771750000000 1.0
C      1  0.5128850000000  0.5087690000000  0.3943690000000 1.0
C      1  0.5268590000000  0.5163630000000  0.5499950000000 1.0
C      1  0.4550260000000  0.4979470000000  0.5841680000000 1.0
C      1  0.4434450000000  0.5474960000000  0.5567400000000 1.0
C      1  0.6079040000000  0.4696170000000  0.4660070000000 1.0
C      1  0.5337330000000  0.5502140000000  0.5063800000000 1.0
C      1  0.5138060000000  0.4893180000000  0.4580060000000 1.0
C      1  0.4854450000000  0.4333930000000  0.5692660000000 1.0
C      1  0.4579170000000  0.4712430000000  0.5263800000000 1.0
C      1  0.5431840000000  0.5923700000000  0.5287460000000 1.0
C      1  0.5199810000000  0.5185220000000  0.4503010000000 1.0
C      1  0.4331600000000  0.5143790000000  0.5939850000000 1.0
C      1  0.5661620000000  0.4542480000000  0.4861820000000 1.0
C      1  0.4605810000000  0.5891580000000  0.4686280000000 1.0
C      1  0.5658940000000  0.4434230000000  0.5348130000000 1.0
C      1  0.5952320000000  0.4889440000000  0.4502950000000 1.0
C      1  0.5397470000000  0.5084770000000  0.4034630000000 1.0
C      1  0.5286010000000  0.4136040000000  0.5223340000000 1.0
C      1  0.5850150000000  0.5100080000000  0.5612480000000 1.0
C      1  0.5797420000000  0.4492720000000  0.4289100000000 1.0
C      1  0.4654390000000  0.5617150000000  0.5681400000000 1.0
C      1  0.4432790000000  0.5475930000000  0.4471410000000 1.0
C      1  0.5776250000000  0.4911920000000  0.5388060000000 1.0
C      1  0.5947480000000  0.4636310000000  0.4900470000000 1.0
C      1  0.4104970000000  0.5267950000000  0.4759180000000 1.0
C      1  0.4750710000000  0.4769470000000  0.3961830000000 1.0
C      1  0.4995860000000  0.5362310000000  0.4377280000000 1.0
C      1  0.5445830000000  0.4379020000000  0.4204470000000 1.0
C      1  0.5075780000000  0.4449080000000  0.4987380000000 1.0
C      1  0.5242650000000  0.6035530000000  0.5112050000000 1.0
C      1  0.4642160000000  0.5677720000000  0.4478090000000 1.0
C      1  0.5456360000000  0.5878340000000  0.4408530000000 1.0
C      1  0.5191050000000  0.4337350000000  0.4729650000000 1.0
C      1  0.4492380000000  0.4673470000000  0.5830330000000 1.0
C      1  0.5350480000000  0.5944870000000  0.5554080000000 1.0
C      1  0.4915830000000  0.5217570000000  0.5766050000000 1.0
C      1  0.4398280000000  0.5762200000000  0.4859270000000 1.0
C      1  0.4805820000000  0.4792750000000  0.4256650000000 1.0
C      1  0.4095960000000  0.4741990000000  0.5537160000000 1.0
C      1  0.4792480000000  0.4879280000000  0.5379320000000 1.0
C      1  0.4887840000000  0.5923040000000  0.4801590000000 1.0
C      1  0.5076690000000  0.5919840000000  0.5602380000000 1.0
C      1  0.5156800000000  0.5850010000000  0.4370730000000 1.0
C      1  0.4436550000000  0.4442960000000  0.4385990000000 1.0
C      1  0.5547460000000  0.5334480000000  0.4064450000000 1.0
C      1  0.5116220000000  0.4988410000000  0.5702910000000 1.0
C      1  0.5982970000000  0.5363950000000  0.5013950000000 1.0
C      1  0.5390220000000  0.4332320000000  0.5432800000000 1.0
C      1  0.4799780000000  0.4345090000000  0.5038610000000 1.0
C      1  0.5781440000000  0.4780160000000  0.4280650000000 1.0
C      1  0.4178800000000  0.4620530000000  0.5015500000000 1.0
C      1  0.5047760000000  0.4483730000000  0.5861280000000 1.0
C      1  0.5767240000000  0.5654770000000  0.4753890000000 1.0
C      1  0.4580870000000  0.5061050000000  0.5535670000000 1.0
C      1  0.4330980000000  0.4856260000000  0.5358250000000 1.0
C      1  0.5715170000000  0.5380610000000  0.4630910000000 1.0
C      1  0.4819280000000  0.5525210000000  0.4985530000000 1.0
C      1  0.4680530000000  0.5907860000000  0.5280760000000 1.0
C      1  0.5009510000000  0.4029010000000  0.5259360000000 1.0
C      1  0.3896670000000  0.4949500000000  0.5569600000000 1.0
C      1  0.5664470000000  0.4980000000000  0.5821120000000 1.0
C      1  0.4030070000000  0.5184290000000  0.5590480000000 1.0
C      1  0.4778460000000  0.5175310000000  0.4276720000000 1.0
C      1  0.4919210000000  0.5070660000000  0.5178880000000 1.0
C      1  0.5628100000000  0.4256380000000  0.4872150000000 1.0
C      1  0.4103130000000  0.5478330000000  0.5191190000000 1.0
C      1  0.4648360000000  0.5197660000000  0.4007320000000 1.0
C      1  0.4923470000000  0.5768600000000  0.5386380000000 1.0
C      1  0.4605280000000  0.4721740000000  0.4729110000000 1.0
C      1  0.5372130000000  0.5374540000000  0.5697030000000 1.0
C      1  0.4124320000000  0.5010130000000  0.4570150000000 1.0
C      1  0.5571580000000  0.4614870000000  0.5132550000000 1.0
C      1  0.5040870000000  0.5274120000000  0.5343010000000 1.0
C      1  0.5393440000000  0.4808840000000  0.4774050000000 1.0
C      1  0.5553270000000  0.5086810000000  0.4830390000000 1.0
C      1  0.4370550000000  0.4247600000000  0.5581760000000 1.0
C      1  0.5589000000000  0.5518250000000  0.5519720000000 1.0
C      1  0.5133760000000  0.5583390000000  0.4208630000000 1.0
C      1  0.5008530000000  0.3901060000000  0.4896800000000 1.0
C      1  0.5233910000000  0.4028170000000  0.4767280000000 1.0
END
