TITL C-951333-8791-313 -1.21480716422467e-06 125000 -1167.36748843641 0 0 188 (C1) n - 1
REM
REM in /home/bkarasulu/work/CARBON/AIRSS/Generating-Clusters/EDIP-Nigel-Params/with-SteepDescent/Only-C1/SD-CG/HFTN-CG
REM
REM
REM
REM
REM
REM ./C.cell (11c1c37f851c82e70ff6c80c92926a4b)
REM
REM compiler GCC version 9.2.1 20190827 (Red Hat 9.2.1-1)
REM options -cpp -mtune=generic -march=x86-64 -g -O0 -fpre-include=/usr/include/finclude/math-vector-fortran.h
REM seed -1359932564 1764757597 1172327917 1881113873 -268420834 298772437 -574028023 -2018568054 -132089267 -1518610770 -491690633 -1682138235 1915520639 -1968291122 -649943319 -865147156 1799092267 -1067209472 1428326100 1262096070 1724565524 -552357612 -523388558 -451247058 -33851373 559286311 -1376979310 1183548497 -272495019 168880349 357380424 -1119581828 1368682829
REM
CELL 1.54180   50.00000   50.00000   50.00000   90.00000   90.00000   90.00000
LATT -1
SFAC C  
C      1  0.4467510000000  0.4336480000000  0.4319200000000 1.0
C      1  0.5004590000000  0.3945910000000  0.5104570000000 1.0
C      1  0.4183430000000  0.4373940000000  0.5449770000000 1.0
C      1  0.5605800000000  0.5066030000000  0.4469430000000 1.0
C      1  0.5503230000000  0.4656030000000  0.5066660000000 1.0
C      1  0.5598550000000  0.4831190000000  0.5319670000000 1.0
C      1  0.5277670000000  0.4040630000000  0.4661890000000 1.0
C      1  0.4705620000000  0.4608320000000  0.5102830000000 1.0
C      1  0.6019360000000  0.5323190000000  0.4715340000000 1.0
C      1  0.4520770000000  0.3915060000000  0.4976460000000 1.0
C      1  0.5133630000000  0.5176270000000  0.4860980000000 1.0
C      1  0.5528150000000  0.6191220000000  0.4685730000000 1.0
C      1  0.5043100000000  0.4955240000000  0.4288200000000 1.0
C      1  0.5978860000000  0.4646580000000  0.5195510000000 1.0
C      1  0.4624840000000  0.5535270000000  0.4510820000000 1.0
C      1  0.4705940000000  0.5556600000000  0.4028100000000 1.0
C      1  0.5148360000000  0.4480870000000  0.4147040000000 1.0
C      1  0.4652360000000  0.4403220000000  0.4715520000000 1.0
C      1  0.4660260000000  0.5465970000000  0.6059370000000 1.0
C      1  0.4993510000000  0.4265050000000  0.4298040000000 1.0
C      1  0.4458600000000  0.4815900000000  0.4630620000000 1.0
C      1  0.5838260000000  0.5546700000000  0.4291010000000 1.0
C      1  0.4755930000000  0.4811080000000  0.3894030000000 1.0
C      1  0.5142890000000  0.4762220000000  0.6150750000000 1.0
C      1  0.4788070000000  0.5994570000000  0.5543850000000 1.0
C      1  0.5754950000000  0.4150060000000  0.4695200000000 1.0
C      1  0.4542770000000  0.4055930000000  0.5588880000000 1.0
C      1  0.4947610000000  0.5928340000000  0.5763960000000 1.0
C      1  0.6109390000000  0.5090440000000  0.5340570000000 1.0
C      1  0.4660100000000  0.3845510000000  0.5426280000000 1.0
C      1  0.5034620000000  0.4942900000000  0.5223680000000 1.0
C      1  0.5006240000000  0.5098730000000  0.6047430000000 1.0
C      1  0.5149170000000  0.6145850000000  0.5099660000000 1.0
C      1  0.4934800000000  0.5963910000000  0.5272400000000 1.0
C      1  0.4574960000000  0.3937580000000  0.4671820000000 1.0
C      1  0.5496530000000  0.4610140000000  0.5519140000000 1.0
C      1  0.4479340000000  0.4924470000000  0.5991490000000 1.0
C      1  0.4421410000000  0.5606520000000  0.5651700000000 1.0
C      1  0.5139700000000  0.5436710000000  0.4698680000000 1.0
C      1  0.4788450000000  0.4963900000000  0.5621400000000 1.0
C      1  0.4577100000000  0.5562290000000  0.5095880000000 1.0
C      1  0.5972510000000  0.4559850000000  0.4335630000000 1.0
C      1  0.5342080000000  0.4231490000000  0.5683890000000 1.0
C      1  0.5688970000000  0.5751240000000  0.4437670000000 1.0
C      1  0.5031540000000  0.4380790000000  0.4784010000000 1.0
C      1  0.4737050000000  0.6001680000000  0.5047600000000 1.0
C      1  0.4903760000000  0.4313570000000  0.5436190000000 1.0
C      1  0.5489120000000  0.5709570000000  0.5440140000000 1.0
C      1  0.4348130000000  0.4450640000000  0.4730410000000 1.0
C      1  0.5435520000000  0.5346720000000  0.5920020000000 1.0
C      1  0.5874410000000  0.5487530000000  0.5145900000000 1.0
C      1  0.5119730000000  0.5751900000000  0.5896730000000 1.0
C      1  0.4169510000000  0.4635190000000  0.5324640000000 1.0
C      1  0.5002700000000  0.5595090000000  0.4015740000000 1.0
C      1  0.4938650000000  0.5199890000000  0.5105000000000 1.0
C      1  0.5777400000000  0.5663480000000  0.5365960000000 1.0
C      1  0.5551640000000  0.5309630000000  0.4899910000000 1.0
C      1  0.5480940000000  0.5117150000000  0.5400340000000 1.0
C      1  0.4382750000000  0.4669250000000  0.5913400000000 1.0
C      1  0.4910710000000  0.4404730000000  0.5895290000000 1.0
C      1  0.4131440000000  0.4227250000000  0.4777130000000 1.0
C      1  0.4331520000000  0.5922740000000  0.5297920000000 1.0
C      1  0.4620250000000  0.5268900000000  0.4132300000000 1.0
C      1  0.4162520000000  0.5051140000000  0.4325170000000 1.0
C      1  0.4611620000000  0.4908510000000  0.4139190000000 1.0
C      1  0.5405960000000  0.6000380000000  0.5114930000000 1.0
C      1  0.5147540000000  0.4532180000000  0.5422450000000 1.0
C      1  0.4032110000000  0.4570000000000  0.4455760000000 1.0
C      1  0.4261960000000  0.5189330000000  0.4853030000000 1.0
C      1  0.5491070000000  0.4822960000000  0.4832990000000 1.0
C      1  0.4360930000000  0.5145560000000  0.5835440000000 1.0
C      1  0.5332120000000  0.4624370000000  0.5983240000000 1.0
C      1  0.4491150000000  0.5845600000000  0.5055420000000 1.0
C      1  0.3851470000000  0.4739480000000  0.5125560000000 1.0
C      1  0.4728240000000  0.4345870000000  0.4174930000000 1.0
C      1  0.5965110000000  0.5029750000000  0.4849210000000 1.0
C      1  0.5984760000000  0.4933560000000  0.5138670000000 1.0
C      1  0.6079700000000  0.4817110000000  0.4700400000000 1.0
C      1  0.4858240000000  0.4714460000000  0.4375450000000 1.0
C      1  0.4889310000000  0.4660580000000  0.6045400000000 1.0
C      1  0.4331200000000  0.4829570000000  0.4211900000000 1.0
C      1  0.4773680000000  0.4913590000000  0.5925550000000 1.0
C      1  0.4042260000000  0.4716530000000  0.4907650000000 1.0
C      1  0.4834040000000  0.3886760000000  0.4584820000000 1.0
C      1  0.4498680000000  0.4586310000000  0.5667490000000 1.0
C      1  0.5661210000000  0.5054270000000  0.4776910000000 1.0
C      1  0.5388430000000  0.5261390000000  0.4097630000000 1.0
C      1  0.5916140000000  0.5560850000000  0.4868360000000 1.0
C      1  0.5437760000000  0.5476720000000  0.4672180000000 1.0
C      1  0.5284630000000  0.4993790000000  0.5626120000000 1.0
C      1  0.5531090000000  0.4115690000000  0.4538450000000 1.0
C      1  0.4192830000000  0.5517610000000  0.5495160000000 1.0
C      1  0.5888760000000  0.5513780000000  0.5585360000000 1.0
C      1  0.4559560000000  0.5376030000000  0.5796260000000 1.0
C      1  0.5305550000000  0.4971680000000  0.4452230000000 1.0
C      1  0.5497400000000  0.3866620000000  0.5054470000000 1.0
C      1  0.4326280000000  0.4135510000000  0.5406770000000 1.0
C      1  0.4696780000000  0.5226200000000  0.4732310000000 1.0
C      1  0.5326660000000  0.4053390000000  0.5472520000000 1.0
C      1  0.4435490000000  0.5294670000000  0.5105530000000 1.0
C      1  0.4291260000000  0.5030510000000  0.5564420000000 1.0
C      1  0.5134590000000  0.5337320000000  0.3954710000000 1.0
C      1  0.4867060000000  0.5207850000000  0.4338700000000 1.0
C      1  0.5951310000000  0.5053380000000  0.4289950000000 1.0
C      1  0.5042700000000  0.4048200000000  0.4494210000000 1.0
C      1  0.5096490000000  0.5696270000000  0.4289490000000 1.0
C      1  0.6095950000000  0.5367700000000  0.5298140000000 1.0
C      1  0.5255440000000  0.3886830000000  0.4917090000000 1.0
C      1  0.4870420000000  0.4540220000000  0.3973330000000 1.0
C      1  0.4735600000000  0.3794580000000  0.5150390000000 1.0
C      1  0.4628810000000  0.5722750000000  0.4254730000000 1.0
C      1  0.5495210000000  0.4077460000000  0.5238400000000 1.0
C      1  0.4781070000000  0.5268340000000  0.5615800000000 1.0
C      1  0.5721780000000  0.4403380000000  0.5523160000000 1.0
C      1  0.5726360000000  0.4247720000000  0.5268560000000 1.0
C      1  0.4995250000000  0.6181040000000  0.4841700000000 1.0
C      1  0.4075940000000  0.5797390000000  0.4812340000000 1.0
C      1  0.5526850000000  0.5347340000000  0.4382260000000 1.0
C      1  0.5563250000000  0.4757470000000  0.4164100000000 1.0
C      1  0.5349670000000  0.5608440000000  0.5752760000000 1.0
C      1  0.5064780000000  0.6107260000000  0.4565650000000 1.0
C      1  0.4251040000000  0.4339160000000  0.5009890000000 1.0
C      1  0.5706460000000  0.5748820000000  0.4744100000000 1.0
C      1  0.4307160000000  0.4874330000000  0.4899840000000 1.0
C      1  0.5844070000000  0.4788570000000  0.4229980000000 1.0
C      1  0.5415240000000  0.4970490000000  0.4021600000000 1.0
C      1  0.5029210000000  0.5671670000000  0.5279330000000 1.0
C      1  0.4871990000000  0.5524220000000  0.5088840000000 1.0
C      1  0.4107330000000  0.5720560000000  0.5298060000000 1.0
C      1  0.3860050000000  0.4945700000000  0.5330210000000 1.0
C      1  0.4059710000000  0.4842400000000  0.5530540000000 1.0
C      1  0.5344550000000  0.6059150000000  0.4522010000000 1.0
C      1  0.4975690000000  0.5640390000000  0.4840370000000 1.0
C      1  0.5050040000000  0.4845620000000  0.5495740000000 1.0
C      1  0.4734230000000  0.4683550000000  0.4670940000000 1.0
C      1  0.4756220000000  0.5760280000000  0.4677070000000 1.0
C      1  0.4505780000000  0.5875920000000  0.5543290000000 1.0
C      1  0.3926740000000  0.4753860000000  0.4642460000000 1.0
C      1  0.5191850000000  0.5199930000000  0.5820490000000 1.0
C      1  0.4917350000000  0.4205410000000  0.5002940000000 1.0
C      1  0.5197520000000  0.4407580000000  0.5844710000000 1.0
C      1  0.4701090000000  0.4338650000000  0.5675460000000 1.0
C      1  0.4231660000000  0.5258070000000  0.5356060000000 1.0
C      1  0.5730770000000  0.4915450000000  0.5826930000000 1.0
C      1  0.5771050000000  0.4473110000000  0.5066060000000 1.0
C      1  0.4432860000000  0.4103620000000  0.4484160000000 1.0
C      1  0.4473540000000  0.4778830000000  0.5181800000000 1.0
C      1  0.4129390000000  0.5681220000000  0.4554150000000 1.0
C      1  0.5309020000000  0.5585300000000  0.5240710000000 1.0
C      1  0.5051010000000  0.4039710000000  0.5394680000000 1.0
C      1  0.4453780000000  0.4171400000000  0.5141880000000 1.0
C      1  0.5039500000000  0.5388120000000  0.5658160000000 1.0
C      1  0.4672050000000  0.5129360000000  0.5004980000000 1.0
C      1  0.5710220000000  0.5279400000000  0.5575010000000 1.0
C      1  0.4015080000000  0.5034470000000  0.4596990000000 1.0
C      1  0.5123460000000  0.4896530000000  0.3994370000000 1.0
C      1  0.5107670000000  0.4601140000000  0.4569160000000 1.0
C      1  0.5416680000000  0.5838450000000  0.4344790000000 1.0
C      1  0.5202310000000  0.4526750000000  0.5104330000000 1.0
C      1  0.5947530000000  0.4596920000000  0.5485220000000 1.0
C      1  0.5858830000000  0.4387320000000  0.4792060000000 1.0
C      1  0.4726840000000  0.4329290000000  0.5179840000000 1.0
C      1  0.6003800000000  0.4566180000000  0.4612900000000 1.0
C      1  0.4892650000000  0.5347160000000  0.6187280000000 1.0
C      1  0.4528400000000  0.4842620000000  0.5498540000000 1.0
C      1  0.4990040000000  0.5108760000000  0.3829720000000 1.0
C      1  0.5466940000000  0.4786260000000  0.5769580000000 1.0
C      1  0.5479210000000  0.5991520000000  0.5391320000000 1.0
C      1  0.5368140000000  0.5298150000000  0.5147680000000 1.0
C      1  0.4972360000000  0.4725040000000  0.5042000000000 1.0
C      1  0.5599770000000  0.6005370000000  0.4882970000000 1.0
C      1  0.4350430000000  0.5884600000000  0.4800690000000 1.0
C      1  0.3972200000000  0.5256570000000  0.4918650000000 1.0
C      1  0.3968580000000  0.5199190000000  0.5221370000000 1.0
C      1  0.4326240000000  0.5474680000000  0.4528320000000 1.0
C      1  0.4274440000000  0.4566650000000  0.4314890000000 1.0
C      1  0.4320590000000  0.5302210000000  0.4281730000000 1.0
C      1  0.5699040000000  0.5213250000000  0.5854880000000 1.0
C      1  0.5962790000000  0.5317720000000  0.4422550000000 1.0
C      1  0.4026880000000  0.5613530000000  0.5030650000000 1.0
C      1  0.5047450000000  0.5433560000000  0.4427620000000 1.0
C      1  0.4546170000000  0.5095370000000  0.4528910000000 1.0
C      1  0.4888690000000  0.5896320000000  0.4424630000000 1.0
C      1  0.5438040000000  0.4490920000000  0.4160890000000 1.0
C      1  0.5533180000000  0.4278120000000  0.4312710000000 1.0
C      1  0.5230330000000  0.4878220000000  0.4717580000000 1.0
C      1  0.5014740000000  0.5612200000000  0.6129980000000 1.0
C      1  0.5893570000000  0.4876720000000  0.5568590000000 1.0
END
