TITL C-951338-5626-125 0.000247331675147884 125000 -51.7324762994196 0 0 10 (C1) n - 1
REM
REM in /home/bkarasulu/work/CARBON/AIRSS/Generating-Clusters/EDIP-Nigel-Params/with-SteepDescent/Only-C1/SD-CG/HFTN-CG
REM
REM
REM
REM
REM
REM ./C.cell (11c1c37f851c82e70ff6c80c92926a4b)
REM
REM compiler GCC version 9.2.1 20190827 (Red Hat 9.2.1-1)
REM options -cpp -mtune=generic -march=x86-64 -g -O0 -fpre-include=/usr/include/finclude/math-vector-fortran.h
REM seed 2055742201 -308080738 881097674 1373555671 -969072994 262428188 1636208351 1330367984 -542284614 -1439734552 50160602 1166249025 -1098589373 -1653755805 -405478661 -413461863 -2055342154 -2099408131 -1778142713 1891867300 1546534523 1664090970 -1148259139 1627674869 1179700911 89667721 1602048483 -2033773334 808536566 170490684 1486553376 986658496 -2014633077
REM
CELL 1.54180   50.00000   50.00000   50.00000   90.00000   90.00000   90.00000
LATT -1
SFAC C  
C      1  0.4068180000000  0.4997780000000  0.5032720000000 1.0
C      1  0.4575890000000  0.5061340000000  0.4941880000000 1.0
C      1  0.5352260000000  0.4961480000000  0.4945620000000 1.0
C      1  0.4316640000000  0.5026730000000  0.4979670000000 1.0
C      1  0.5463830000000  0.4696110000000  0.5021620000000 1.0
C      1  0.4993410000000  0.5307910000000  0.4949820000000 1.0
C      1  0.5600140000000  0.5036530000000  0.5092660000000 1.0
C      1  0.4837740000000  0.5084910000000  0.4858360000000 1.0
C      1  0.5089050000000  0.5048630000000  0.5028000000000 1.0
C      1  0.5702850000000  0.4778590000000  0.5149660000000 1.0
END
