TITL C-951345-2650-27 -1.72810276014641e-06 125000 -409.95109395051 0 0 68 (C1) n - 1
REM
REM in /home/bkarasulu/work/CARBON/AIRSS/Generating-Clusters/EDIP-Nigel-Params/with-SteepDescent/Only-C1/SD-CG/HFTN-CG
REM
REM
REM
REM
REM
REM ./C.cell (11c1c37f851c82e70ff6c80c92926a4b)
REM
REM compiler GCC version 9.2.1 20190827 (Red Hat 9.2.1-1)
REM options -cpp -mtune=generic -march=x86-64 -g -O0 -fpre-include=/usr/include/finclude/math-vector-fortran.h
REM seed -2134451067 -1163154729 1552007722 -2103294649 -1223945803 711344483 -1592734528 1285125198 68837430 1959585310 1850435354 -1347325644 1779139579 1342748823 -456080467 1039477900 1173428464 -1588886617 718046575 -1727417126 -1512443279 1623356008 1126643797 -738548610 -593951086 1430396031 788875089 1181679843 1430536834 -1800026376 -1339682080 633261343 1532396316
REM
CELL 1.54180   50.00000   50.00000   50.00000   90.00000   90.00000   90.00000
LATT -1
SFAC C  
C      1  0.5165320000000  0.4974650000000  0.4246660000000 1.0
C      1  0.5303010000000  0.4390580000000  0.5384340000000 1.0
C      1  0.5265550000000  0.5405890000000  0.5409510000000 1.0
C      1  0.5723480000000  0.4637950000000  0.4440690000000 1.0
C      1  0.5604750000000  0.4775000000000  0.4665320000000 1.0
C      1  0.4925800000000  0.4945550000000  0.4809680000000 1.0
C      1  0.4667510000000  0.4685530000000  0.5183520000000 1.0
C      1  0.4722700000000  0.4975550000000  0.5032670000000 1.0
C      1  0.5468350000000  0.4635700000000  0.5423250000000 1.0
C      1  0.4254730000000  0.4835980000000  0.4808210000000 1.0
C      1  0.4701500000000  0.4956930000000  0.4193860000000 1.0
C      1  0.4849200000000  0.5498530000000  0.5265070000000 1.0
C      1  0.5653590000000  0.5113290000000  0.5202740000000 1.0
C      1  0.5729470000000  0.5433900000000  0.4832430000000 1.0
C      1  0.4427990000000  0.5250840000000  0.4443110000000 1.0
C      1  0.5420520000000  0.4404810000000  0.4866800000000 1.0
C      1  0.4868100000000  0.5181090000000  0.5209430000000 1.0
C      1  0.4937070000000  0.4815730000000  0.4230840000000 1.0
C      1  0.5464860000000  0.5305800000000  0.5608670000000 1.0
C      1  0.5284770000000  0.4843790000000  0.5554300000000 1.0
C      1  0.5618350000000  0.4608770000000  0.4916040000000 1.0
C      1  0.4878330000000  0.5411240000000  0.4783150000000 1.0
C      1  0.5388700000000  0.5106820000000  0.4632600000000 1.0
C      1  0.4764540000000  0.4464880000000  0.4600210000000 1.0
C      1  0.4894320000000  0.5162890000000  0.4608750000000 1.0
C      1  0.5588560000000  0.4755390000000  0.5176410000000 1.0
C      1  0.4907430000000  0.4511400000000  0.5219130000000 1.0
C      1  0.4552880000000  0.5532530000000  0.5296390000000 1.0
C      1  0.5010360000000  0.5511820000000  0.5521140000000 1.0
C      1  0.5527450000000  0.4445730000000  0.4382190000000 1.0
C      1  0.5381410000000  0.4320080000000  0.4594030000000 1.0
C      1  0.4634010000000  0.5236940000000  0.5710480000000 1.0
C      1  0.5232670000000  0.4930450000000  0.4854860000000 1.0
C      1  0.4561830000000  0.4748750000000  0.5455580000000 1.0
C      1  0.4476410000000  0.4530320000000  0.5007600000000 1.0
C      1  0.4452890000000  0.5341670000000  0.5505850000000 1.0
C      1  0.5270360000000  0.4284690000000  0.5093450000000 1.0
C      1  0.5299490000000  0.4694060000000  0.4554020000000 1.0
C      1  0.4209120000000  0.4637430000000  0.5012150000000 1.0
C      1  0.4919190000000  0.5288950000000  0.5696750000000 1.0
C      1  0.4979960000000  0.4293620000000  0.5040230000000 1.0
C      1  0.5690270000000  0.5165450000000  0.5488330000000 1.0
C      1  0.4768090000000  0.5839290000000  0.4927730000000 1.0
C      1  0.4667110000000  0.5119040000000  0.4416110000000 1.0
C      1  0.5418960000000  0.5039230000000  0.5730870000000 1.0
C      1  0.4223850000000  0.5197230000000  0.5119620000000 1.0
C      1  0.5541920000000  0.5372400000000  0.4637650000000 1.0
C      1  0.5610490000000  0.5379090000000  0.5075620000000 1.0
C      1  0.4374080000000  0.5279060000000  0.4709160000000 1.0
C      1  0.5025910000000  0.4465170000000  0.5481410000000 1.0
C      1  0.4978920000000  0.5722960000000  0.5078560000000 1.0
C      1  0.4974430000000  0.5075620000000  0.5470760000000 1.0
C      1  0.4647280000000  0.5602570000000  0.4820410000000 1.0
C      1  0.5361590000000  0.4953160000000  0.5132080000000 1.0
C      1  0.5343280000000  0.5474360000000  0.5129320000000 1.0
C      1  0.4903860000000  0.4300460000000  0.4772430000000 1.0
C      1  0.4765530000000  0.4878890000000  0.5632100000000 1.0
C      1  0.4918610000000  0.4598350000000  0.4406380000000 1.0
C      1  0.4537690000000  0.4591260000000  0.4724360000000 1.0
C      1  0.4317420000000  0.4880100000000  0.5463620000000 1.0
C      1  0.4397610000000  0.5074120000000  0.4915250000000 1.0
C      1  0.5192240000000  0.5460980000000  0.4375330000000 1.0
C      1  0.5032490000000  0.4699200000000  0.5664240000000 1.0
C      1  0.5153710000000  0.5550390000000  0.4880850000000 1.0
C      1  0.5321190000000  0.5562900000000  0.4609250000000 1.0
C      1  0.5157850000000  0.5178640000000  0.4450000000000 1.0
C      1  0.4428890000000  0.5507930000000  0.5018350000000 1.0
C      1  0.4260230000000  0.5146660000000  0.5398090000000 1.0
END
