TITL C-951346-9544-609 -3.30390191367253e-06 125000 -964.051640971905 0 0 155 (C1) n - 1
REM
REM in /home/bkarasulu/work/CARBON/AIRSS/Generating-Clusters/EDIP-Nigel-Params/with-SteepDescent/Only-C1/SD-CG/HFTN-CG
REM
REM
REM
REM
REM
REM ./C.cell (11c1c37f851c82e70ff6c80c92926a4b)
REM
REM compiler GCC version 9.2.1 20190827 (Red Hat 9.2.1-1)
REM options -cpp -mtune=generic -march=x86-64 -g -O0 -fpre-include=/usr/include/finclude/math-vector-fortran.h
REM seed 981768705 -1678468533 -709539660 2063055310 -1735994141 722731485 446556932 -1329768263 -1725780817 -169301051 -988485617 418903285 -313930914 850056303 -1076552617 19783591 -616916189 1929506018 1825399907 -601727494 560015094 -308001976 -1816962570 -784932563 -1342118968 2086937866 63331752 290093306 -1672987395 1805562443 -1058905643 872147952 1376103416
REM
CELL 1.54180   50.00000   50.00000   50.00000   90.00000   90.00000   90.00000
LATT -1
SFAC C  
C      1  0.4011630000000  0.5178510000000  0.4390420000000 1.0
C      1  0.5013480000000  0.5425670000000  0.6013410000000 1.0
C      1  0.4679380000000  0.4623240000000  0.4568000000000 1.0
C      1  0.4789230000000  0.4806460000000  0.4057740000000 1.0
C      1  0.4114990000000  0.4966760000000  0.5003200000000 1.0
C      1  0.4732270000000  0.4346270000000  0.4228400000000 1.0
C      1  0.4575860000000  0.5256620000000  0.5757790000000 1.0
C      1  0.4385890000000  0.5745930000000  0.5275520000000 1.0
C      1  0.5758360000000  0.5530320000000  0.4662540000000 1.0
C      1  0.4537050000000  0.5735970000000  0.4538310000000 1.0
C      1  0.5830500000000  0.4572790000000  0.5172230000000 1.0
C      1  0.5885930000000  0.4975960000000  0.4936540000000 1.0
C      1  0.4981840000000  0.4714680000000  0.4564940000000 1.0
C      1  0.5499210000000  0.4326430000000  0.5349050000000 1.0
C      1  0.4848210000000  0.5943910000000  0.4780280000000 1.0
C      1  0.4172270000000  0.4730250000000  0.4507860000000 1.0
C      1  0.5231830000000  0.4508860000000  0.4690450000000 1.0
C      1  0.5826460000000  0.4945680000000  0.5491650000000 1.0
C      1  0.4204430000000  0.4352410000000  0.5252000000000 1.0
C      1  0.5435790000000  0.5188290000000  0.5218610000000 1.0
C      1  0.4176180000000  0.4363770000000  0.4684930000000 1.0
C      1  0.4816010000000  0.5216160000000  0.5953880000000 1.0
C      1  0.5623070000000  0.5721350000000  0.4463910000000 1.0
C      1  0.5437490000000  0.5982510000000  0.4850180000000 1.0
C      1  0.5483970000000  0.4924150000000  0.4113390000000 1.0
C      1  0.5616120000000  0.5002070000000  0.4373400000000 1.0
C      1  0.4778860000000  0.4984970000000  0.5135920000000 1.0
C      1  0.5038810000000  0.4772210000000  0.4259200000000 1.0
C      1  0.4302720000000  0.5028770000000  0.5235400000000 1.0
C      1  0.5673100000000  0.4780590000000  0.5005890000000 1.0
C      1  0.5040640000000  0.4374450000000  0.5390640000000 1.0
C      1  0.5973000000000  0.4855880000000  0.4678270000000 1.0
C      1  0.4938770000000  0.5166370000000  0.4443480000000 1.0
C      1  0.4773350000000  0.4305060000000  0.5781740000000 1.0
C      1  0.4987130000000  0.6098440000000  0.4978330000000 1.0
C      1  0.5824000000000  0.5440890000000  0.5337830000000 1.0
C      1  0.4576570000000  0.4189830000000  0.5568620000000 1.0
C      1  0.5453370000000  0.5419290000000  0.5033170000000 1.0
C      1  0.5287280000000  0.5001100000000  0.4779840000000 1.0
C      1  0.4406820000000  0.5011900000000  0.5727760000000 1.0
C      1  0.5146410000000  0.4352560000000  0.5869650000000 1.0
C      1  0.5165680000000  0.5193460000000  0.4251400000000 1.0
C      1  0.4628930000000  0.5108640000000  0.4410010000000 1.0
C      1  0.4179710000000  0.5398290000000  0.5573310000000 1.0
C      1  0.5261450000000  0.4457770000000  0.5207840000000 1.0
C      1  0.5134920000000  0.4354340000000  0.4948340000000 1.0
C      1  0.4636110000000  0.4427840000000  0.4807670000000 1.0
C      1  0.4435350000000  0.5253670000000  0.4108460000000 1.0
C      1  0.4551580000000  0.5748540000000  0.5726030000000 1.0
C      1  0.4130470000000  0.5237330000000  0.4882980000000 1.0
C      1  0.5825640000000  0.4649650000000  0.5453130000000 1.0
C      1  0.5479060000000  0.5529040000000  0.5938920000000 1.0
C      1  0.5362530000000  0.4076090000000  0.5459420000000 1.0
C      1  0.5004430000000  0.4992800000000  0.4686730000000 1.0
C      1  0.4335350000000  0.4976870000000  0.4111630000000 1.0
C      1  0.4616210000000  0.5651040000000  0.5447310000000 1.0
C      1  0.5018410000000  0.5666860000000  0.5853200000000 1.0
C      1  0.5108330000000  0.4193820000000  0.5614800000000 1.0
C      1  0.4064720000000  0.4747050000000  0.5519370000000 1.0
C      1  0.5955570000000  0.5647100000000  0.4867120000000 1.0
C      1  0.5446220000000  0.4087100000000  0.4527090000000 1.0
C      1  0.5016530000000  0.5058890000000  0.5592400000000 1.0
C      1  0.5166300000000  0.4812530000000  0.5493570000000 1.0
C      1  0.5731330000000  0.4741770000000  0.4520740000000 1.0
C      1  0.5305280000000  0.4703170000000  0.4149320000000 1.0
C      1  0.4597360000000  0.4603320000000  0.5343450000000 1.0
C      1  0.5873270000000  0.5145910000000  0.5268780000000 1.0
C      1  0.4247110000000  0.4569600000000  0.5680500000000 1.0
C      1  0.4711290000000  0.4601840000000  0.5865490000000 1.0
C      1  0.5545780000000  0.4641700000000  0.4749570000000 1.0
C      1  0.5543180000000  0.5851210000000  0.5098030000000 1.0
C      1  0.5206730000000  0.4639390000000  0.5897810000000 1.0
C      1  0.5632700000000  0.5481720000000  0.5581970000000 1.0
C      1  0.4317090000000  0.4210900000000  0.5016050000000 1.0
C      1  0.5173180000000  0.5521370000000  0.4965710000000 1.0
C      1  0.4942040000000  0.4799810000000  0.5874770000000 1.0
C      1  0.4212180000000  0.4448770000000  0.4398170000000 1.0
C      1  0.5198110000000  0.4050680000000  0.4958460000000 1.0
C      1  0.4930160000000  0.3900370000000  0.5348350000000 1.0
C      1  0.5732500000000  0.5612780000000  0.5096630000000 1.0
C      1  0.5242310000000  0.4301720000000  0.4460180000000 1.0
C      1  0.5475380000000  0.5221430000000  0.5524540000000 1.0
C      1  0.5792570000000  0.5256210000000  0.4321010000000 1.0
C      1  0.4445410000000  0.4734620000000  0.5820370000000 1.0
C      1  0.5586380000000  0.4515900000000  0.5567490000000 1.0
C      1  0.4427310000000  0.5840540000000  0.5013950000000 1.0
C      1  0.5439960000000  0.5717880000000  0.5544450000000 1.0
C      1  0.4384660000000  0.5498640000000  0.5798460000000 1.0
C      1  0.4184310000000  0.5046190000000  0.5528320000000 1.0
C      1  0.5216680000000  0.6099390000000  0.5373200000000 1.0
C      1  0.4880150000000  0.4977510000000  0.6090220000000 1.0
C      1  0.5405340000000  0.4936500000000  0.5059130000000 1.0
C      1  0.4506500000000  0.5098140000000  0.4696660000000 1.0
C      1  0.5440640000000  0.5164800000000  0.4592470000000 1.0
C      1  0.4704050000000  0.4168000000000  0.4670580000000 1.0
C      1  0.4339100000000  0.5342040000000  0.5092810000000 1.0
C      1  0.4982920000000  0.5891840000000  0.4524080000000 1.0
C      1  0.4956730000000  0.4764590000000  0.5065020000000 1.0
C      1  0.5279160000000  0.5317980000000  0.5947970000000 1.0
C      1  0.4700480000000  0.3946830000000  0.4847120000000 1.0
C      1  0.5409100000000  0.4737240000000  0.5675490000000 1.0
C      1  0.5443300000000  0.5933460000000  0.5356880000000 1.0
C      1  0.5162140000000  0.5099680000000  0.3981370000000 1.0
C      1  0.4912830000000  0.5450960000000  0.4528220000000 1.0
C      1  0.4063070000000  0.5300550000000  0.4622250000000 1.0
C      1  0.4917040000000  0.5497520000000  0.5131340000000 1.0
C      1  0.5637330000000  0.4285120000000  0.4869720000000 1.0
C      1  0.5246820000000  0.6179400000000  0.4906230000000 1.0
C      1  0.5227310000000  0.5246180000000  0.5667660000000 1.0
C      1  0.4637550000000  0.5475260000000  0.4654450000000 1.0
C      1  0.4556360000000  0.4044600000000  0.5070280000000 1.0
C      1  0.5461070000000  0.4039190000000  0.4820290000000 1.0
C      1  0.4459220000000  0.4406460000000  0.4269810000000 1.0
C      1  0.4539320000000  0.4859460000000  0.5219950000000 1.0
C      1  0.6150640000000  0.5013760000000  0.4531980000000 1.0
C      1  0.4432610000000  0.4798280000000  0.4672640000000 1.0
C      1  0.4882850000000  0.5735080000000  0.5324460000000 1.0
C      1  0.5414360000000  0.4457530000000  0.4258400000000 1.0
C      1  0.4756040000000  0.5803560000000  0.4329210000000 1.0
C      1  0.4856520000000  0.4487660000000  0.5002470000000 1.0
C      1  0.5697990000000  0.4478380000000  0.4350050000000 1.0
C      1  0.4834330000000  0.5563420000000  0.4168600000000 1.0
C      1  0.5721540000000  0.4304030000000  0.5147550000000 1.0
C      1  0.5309330000000  0.5740550000000  0.5810260000000 1.0
C      1  0.6060140000000  0.5274510000000  0.4474660000000 1.0
C      1  0.4965920000000  0.6022360000000  0.5263310000000 1.0
C      1  0.4678780000000  0.4027090000000  0.5337050000000 1.0
C      1  0.4782970000000  0.5818250000000  0.5870440000000 1.0
C      1  0.5708500000000  0.4225160000000  0.4495520000000 1.0
C      1  0.4563740000000  0.4835950000000  0.4250550000000 1.0
C      1  0.4293820000000  0.4579180000000  0.4884670000000 1.0
C      1  0.6133260000000  0.5474480000000  0.4687020000000 1.0
C      1  0.4648580000000  0.5343790000000  0.5477010000000 1.0
C      1  0.4044720000000  0.4608110000000  0.5251370000000 1.0
C      1  0.4203120000000  0.5522400000000  0.5297270000000 1.0
C      1  0.4634290000000  0.5464600000000  0.4966350000000 1.0
C      1  0.4105600000000  0.4936170000000  0.4288990000000 1.0
C      1  0.4887720000000  0.4207910000000  0.4436320000000 1.0
C      1  0.4399200000000  0.4414980000000  0.5469420000000 1.0
C      1  0.5359140000000  0.5830650000000  0.4592630000000 1.0
C      1  0.5331790000000  0.5414040000000  0.4312970000000 1.0
C      1  0.4872830000000  0.5082220000000  0.3937460000000 1.0
C      1  0.5160770000000  0.5582130000000  0.4676810000000 1.0
C      1  0.4864200000000  0.4513090000000  0.4037390000000 1.0
C      1  0.5592990000000  0.4987980000000  0.5660580000000 1.0
C      1  0.3928760000000  0.4756630000000  0.5036120000000 1.0
C      1  0.4562130000000  0.5911120000000  0.4777490000000 1.0
C      1  0.5602010000000  0.5495770000000  0.4258430000000 1.0
C      1  0.5586530000000  0.5329840000000  0.4784920000000 1.0
C      1  0.4708810000000  0.5325170000000  0.4034950000000 1.0
C      1  0.5213940000000  0.4757950000000  0.5202750000000 1.0
C      1  0.4861800000000  0.4580620000000  0.5454580000000 1.0
C      1  0.4874840000000  0.5200430000000  0.5342670000000 1.0
C      1  0.4763560000000  0.5109870000000  0.4867800000000 1.0
C      1  0.5195740000000  0.3929170000000  0.5246010000000 1.0
END
