TITL C-950533-5798-420 1.48803265515745e-07 125000 -931.96370700778 0 0 149 (C1) n - 1
REM
REM in /home/bkarasulu/work/CARBON/AIRSS/Generating-Clusters/EDIP-Nigel-Params/with-SteepDescent/Only-C1/SD-CG/HFTN-CG
REM
REM
REM
REM
REM
REM ./C.cell (11c1c37f851c82e70ff6c80c92926a4b)
REM
REM compiler GCC version 9.2.1 20190827 (Red Hat 9.2.1-1)
REM options -cpp -mtune=generic -march=x86-64 -g -O0 -fpre-include=/usr/include/finclude/math-vector-fortran.h
REM seed 1523458078 1431272525 391603375 654734198 932705849 -563222945 672080016 -703143934 -2140763007 2131072747 507806399 265074275 -1241907668 1008365855 1125936444 -1938498099 -1712080675 -61153883 774937649 -41999276 -471972303 485450132 529060551 -1991252838 -567860240 -1496485315 -329223984 -2142862934 236966120 -244267971 -1552019609 -659175339 -562780669
REM
CELL 1.54180   50.00000   50.00000   50.00000   90.00000   90.00000   90.00000
LATT -1
SFAC C  
C      1  0.4216990000000  0.4899010000000  0.4666400000000 1.0
C      1  0.4490870000000  0.5718470000000  0.5135160000000 1.0
C      1  0.5453070000000  0.4977250000000  0.5781360000000 1.0
C      1  0.5389880000000  0.4692280000000  0.5876350000000 1.0
C      1  0.4627620000000  0.5963800000000  0.4593730000000 1.0
C      1  0.4724930000000  0.4756810000000  0.4703330000000 1.0
C      1  0.4068150000000  0.4651160000000  0.5662610000000 1.0
C      1  0.6015350000000  0.4837500000000  0.5008930000000 1.0
C      1  0.4013080000000  0.4529860000000  0.5200700000000 1.0
C      1  0.5477370000000  0.5022910000000  0.4580140000000 1.0
C      1  0.5232570000000  0.5333570000000  0.4839910000000 1.0
C      1  0.5363430000000  0.6099040000000  0.4624520000000 1.0
C      1  0.5086290000000  0.5042620000000  0.3945120000000 1.0
C      1  0.4260780000000  0.4555820000000  0.5842060000000 1.0
C      1  0.4534250000000  0.4067420000000  0.4888650000000 1.0
C      1  0.5828400000000  0.5275840000000  0.5124460000000 1.0
C      1  0.5313280000000  0.5170220000000  0.5962870000000 1.0
C      1  0.4987580000000  0.5131730000000  0.4425600000000 1.0
C      1  0.4846000000000  0.5953170000000  0.5318980000000 1.0
C      1  0.4976240000000  0.5818730000000  0.4868470000000 1.0
C      1  0.4449430000000  0.5724060000000  0.4634060000000 1.0
C      1  0.4780480000000  0.3963850000000  0.5029960000000 1.0
C      1  0.5459010000000  0.4265990000000  0.4400210000000 1.0
C      1  0.5103000000000  0.4621740000000  0.5984760000000 1.0
C      1  0.5868350000000  0.4418690000000  0.4568860000000 1.0
C      1  0.4960950000000  0.4365530000000  0.4318150000000 1.0
C      1  0.5588000000000  0.5159340000000  0.4136780000000 1.0
C      1  0.5814990000000  0.5285600000000  0.5683300000000 1.0
C      1  0.4117330000000  0.4786750000000  0.5165210000000 1.0
C      1  0.5068920000000  0.5012960000000  0.6008870000000 1.0
C      1  0.4926610000000  0.4530620000000  0.4670500000000 1.0
C      1  0.5169460000000  0.4182110000000  0.4429650000000 1.0
C      1  0.5422330000000  0.4570210000000  0.5607670000000 1.0
C      1  0.4387870000000  0.5561940000000  0.4395820000000 1.0
C      1  0.5144190000000  0.5218250000000  0.5328700000000 1.0
C      1  0.5374400000000  0.4489050000000  0.4882420000000 1.0
C      1  0.4866570000000  0.5000460000000  0.4834770000000 1.0
C      1  0.5336810000000  0.4971560000000  0.4124160000000 1.0
C      1  0.5479230000000  0.6106740000000  0.4879940000000 1.0
C      1  0.5138870000000  0.4886460000000  0.4883820000000 1.0
C      1  0.4572120000000  0.4165210000000  0.4619220000000 1.0
C      1  0.4659790000000  0.4322490000000  0.4393520000000 1.0
C      1  0.4058720000000  0.4451600000000  0.4744190000000 1.0
C      1  0.5048620000000  0.5564750000000  0.4079940000000 1.0
C      1  0.5597400000000  0.4693480000000  0.4910280000000 1.0
C      1  0.4386380000000  0.4271140000000  0.5380260000000 1.0
C      1  0.4381850000000  0.5406040000000  0.5773570000000 1.0
C      1  0.5510980000000  0.5416090000000  0.4068710000000 1.0
C      1  0.4376130000000  0.4944040000000  0.5563140000000 1.0
C      1  0.5353960000000  0.4667050000000  0.4116810000000 1.0
C      1  0.5650820000000  0.5886240000000  0.4932120000000 1.0
C      1  0.4897620000000  0.5084950000000  0.5424560000000 1.0
C      1  0.4185750000000  0.5195930000000  0.4662420000000 1.0
C      1  0.5496070000000  0.4208460000000  0.4859470000000 1.0
C      1  0.5709850000000  0.5493350000000  0.5268040000000 1.0
C      1  0.5419570000000  0.5482320000000  0.4658600000000 1.0
C      1  0.4088520000000  0.4652540000000  0.4552520000000 1.0
C      1  0.4672180000000  0.4279400000000  0.5801060000000 1.0
C      1  0.4093890000000  0.4352730000000  0.5000670000000 1.0
C      1  0.5074620000000  0.3994190000000  0.4616290000000 1.0
C      1  0.4552990000000  0.5567340000000  0.5394130000000 1.0
C      1  0.4207640000000  0.5349160000000  0.4431020000000 1.0
C      1  0.4673890000000  0.5289170000000  0.5359940000000 1.0
C      1  0.5765080000000  0.4432280000000  0.5227520000000 1.0
C      1  0.4541830000000  0.4531990000000  0.5855850000000 1.0
C      1  0.5127650000000  0.5441540000000  0.5127230000000 1.0
C      1  0.4844050000000  0.4842910000000  0.5247060000000 1.0
C      1  0.4273090000000  0.5492380000000  0.5500590000000 1.0
C      1  0.5117730000000  0.5894100000000  0.4589990000000 1.0
C      1  0.5544470000000  0.5690330000000  0.5129710000000 1.0
C      1  0.5102520000000  0.4163860000000  0.5391360000000 1.0
C      1  0.5601150000000  0.4183930000000  0.5149620000000 1.0
C      1  0.5411150000000  0.5128960000000  0.5427370000000 1.0
C      1  0.5552200000000  0.5904370000000  0.4478540000000 1.0
C      1  0.5067180000000  0.4576930000000  0.4114390000000 1.0
C      1  0.5010370000000  0.4073730000000  0.4879960000000 1.0
C      1  0.4980920000000  0.4414190000000  0.5519130000000 1.0
C      1  0.4472120000000  0.5067670000000  0.5016100000000 1.0
C      1  0.4780880000000  0.5446330000000  0.6022500000000 1.0
C      1  0.4448840000000  0.5116060000000  0.5304310000000 1.0
C      1  0.4492000000000  0.4555160000000  0.4310150000000 1.0
C      1  0.4836350000000  0.5701070000000  0.4223140000000 1.0
C      1  0.5929440000000  0.4665120000000  0.4433080000000 1.0
C      1  0.5599320000000  0.4758220000000  0.4608680000000 1.0
C      1  0.4634800000000  0.5323090000000  0.4023700000000 1.0
C      1  0.4756790000000  0.6025470000000  0.4858590000000 1.0
C      1  0.5669660000000  0.4208760000000  0.4606550000000 1.0
C      1  0.4478760000000  0.5123460000000  0.5778710000000 1.0
C      1  0.5746690000000  0.5018040000000  0.5725230000000 1.0
C      1  0.4012980000000  0.5019830000000  0.5326350000000 1.0
C      1  0.4579980000000  0.5575940000000  0.4171940000000 1.0
C      1  0.5318650000000  0.5586720000000  0.4175420000000 1.0
C      1  0.5864070000000  0.4574740000000  0.4979850000000 1.0
C      1  0.4617060000000  0.4152970000000  0.5514740000000 1.0
C      1  0.5078530000000  0.5902440000000  0.5139680000000 1.0
C      1  0.5640210000000  0.4646280000000  0.5410230000000 1.0
C      1  0.5710120000000  0.5160510000000  0.4421870000000 1.0
C      1  0.4623360000000  0.5979810000000  0.5127890000000 1.0
C      1  0.4833700000000  0.4038220000000  0.5327750000000 1.0
C      1  0.4735410000000  0.4742160000000  0.5924560000000 1.0
C      1  0.5836370000000  0.4855340000000  0.5498270000000 1.0
C      1  0.4999090000000  0.5615500000000  0.5660930000000 1.0
C      1  0.5922150000000  0.5009880000000  0.5241440000000 1.0
C      1  0.4519170000000  0.5562450000000  0.4883600000000 1.0
C      1  0.4534890000000  0.4642890000000  0.4896180000000 1.0
C      1  0.5752000000000  0.5775900000000  0.4667640000000 1.0
C      1  0.5878520000000  0.5292550000000  0.4845600000000 1.0
C      1  0.5982140000000  0.5028700000000  0.4772880000000 1.0
C      1  0.4328150000000  0.5306190000000  0.4908500000000 1.0
C      1  0.4831380000000  0.5178150000000  0.6102200000000 1.0
C      1  0.4729850000000  0.5726570000000  0.5604130000000 1.0
C      1  0.4869130000000  0.5923290000000  0.4408290000000 1.0
C      1  0.5130770000000  0.4775650000000  0.5164490000000 1.0
C      1  0.5150680000000  0.4656250000000  0.5508220000000 1.0
C      1  0.4714280000000  0.4578130000000  0.5345800000000 1.0
C      1  0.5337000000000  0.5686680000000  0.4460920000000 1.0
C      1  0.4942230000000  0.5254590000000  0.4698850000000 1.0
C      1  0.4184810000000  0.5279150000000  0.5271010000000 1.0
C      1  0.4932510000000  0.4370780000000  0.4935820000000 1.0
C      1  0.5437480000000  0.5567740000000  0.5683820000000 1.0
C      1  0.4656100000000  0.4439210000000  0.5076370000000 1.0
C      1  0.4342130000000  0.4210730000000  0.5086540000000 1.0
C      1  0.4318590000000  0.4835670000000  0.4940840000000 1.0
C      1  0.4211850000000  0.4536500000000  0.4328910000000 1.0
C      1  0.4904250000000  0.4813620000000  0.4028000000000 1.0
C      1  0.4936170000000  0.5311280000000  0.3975550000000 1.0
C      1  0.4983860000000  0.4885800000000  0.5664100000000 1.0
C      1  0.5163780000000  0.4488530000000  0.5098040000000 1.0
C      1  0.4380450000000  0.4574200000000  0.5448010000000 1.0
C      1  0.5239280000000  0.5715690000000  0.5534190000000 1.0
C      1  0.5262300000000  0.5440610000000  0.5878910000000 1.0
C      1  0.4600400000000  0.5593930000000  0.5859580000000 1.0
C      1  0.5520550000000  0.4538400000000  0.4317140000000 1.0
C      1  0.4072620000000  0.4933500000000  0.5603080000000 1.0
C      1  0.5962430000000  0.4960840000000  0.4481990000000 1.0
C      1  0.4833730000000  0.5523980000000  0.4880270000000 1.0
C      1  0.5371510000000  0.5074980000000  0.4867320000000 1.0
C      1  0.5260090000000  0.5697380000000  0.5237920000000 1.0
C      1  0.4624470000000  0.5003840000000  0.5998200000000 1.0
C      1  0.5184560000000  0.4657290000000  0.4689660000000 1.0
C      1  0.4532910000000  0.5102030000000  0.4171340000000 1.0
C      1  0.5594140000000  0.5377480000000  0.5515140000000 1.0
C      1  0.5723400000000  0.5448980000000  0.4632960000000 1.0
C      1  0.4776390000000  0.4971480000000  0.4259010000000 1.0
C      1  0.5241780000000  0.4990290000000  0.4401820000000 1.0
C      1  0.4963260000000  0.4376680000000  0.5822440000000 1.0
C      1  0.5379310000000  0.4126870000000  0.5320340000000 1.0
C      1  0.4580500000000  0.4813460000000  0.4434820000000 1.0
C      1  0.5535260000000  0.4954060000000  0.5192120000000 1.0
END
