TITL C-951335-1172-2 -1.49761755755323e-07 125000 -295.385674904153 0 0 49 (C1) n - 1
REM
REM in /home/bkarasulu/work/CARBON/AIRSS/Generating-Clusters/EDIP-Nigel-Params/with-SteepDescent/Only-C1/SD-CG/HFTN-CG
REM
REM
REM
REM
REM
REM ./C.cell (11c1c37f851c82e70ff6c80c92926a4b)
REM
REM compiler GCC version 9.2.1 20190827 (Red Hat 9.2.1-1)
REM options -cpp -mtune=generic -march=x86-64 -g -O0 -fpre-include=/usr/include/finclude/math-vector-fortran.h
REM seed -485759458 622034614 26184497 1588901015 -1501521245 1439892832 500164446 643170234 1710632488 714659076 2106457546 -920799150 -698848645 671788800 128355481 758459454 -2032918985 1661696967 657874583 -1221244761 -1260742463 1941843184 -1184858394 -1227019035 -87859049 1455239406 -1130327196 1912065233 -1871231174 624660118 1871568174 1873490651 608626361
REM
CELL 1.54180   50.00000   50.00000   50.00000   90.00000   90.00000   90.00000
LATT -1
SFAC C  
C      1  0.5745480000000  0.4968430000000  0.4982720000000 1.0
C      1  0.4707360000000  0.5062620000000  0.4346230000000 1.0
C      1  0.5138620000000  0.4334340000000  0.4793540000000 1.0
C      1  0.4987890000000  0.4691610000000  0.4487610000000 1.0
C      1  0.4715430000000  0.4821630000000  0.4482480000000 1.0
C      1  0.5214950000000  0.4930800000000  0.5632470000000 1.0
C      1  0.4629430000000  0.5025720000000  0.5234110000000 1.0
C      1  0.4714780000000  0.4461780000000  0.4797880000000 1.0
C      1  0.4924930000000  0.4916690000000  0.4918770000000 1.0
C      1  0.4901660000000  0.4857150000000  0.5248000000000 1.0
C      1  0.4821540000000  0.5689400000000  0.4946600000000 1.0
C      1  0.4353080000000  0.5151450000000  0.4828490000000 1.0
C      1  0.4933590000000  0.4411060000000  0.4576690000000 1.0
C      1  0.5501970000000  0.5397580000000  0.4792710000000 1.0
C      1  0.4899240000000  0.5221750000000  0.4249930000000 1.0
C      1  0.4585840000000  0.5554280000000  0.5074260000000 1.0
C      1  0.5437190000000  0.5200890000000  0.5284180000000 1.0
C      1  0.4580140000000  0.5230970000000  0.5444540000000 1.0
C      1  0.5108190000000  0.5348010000000  0.5148940000000 1.0
C      1  0.4419430000000  0.5402720000000  0.4904380000000 1.0
C      1  0.5356250000000  0.5166810000000  0.4397910000000 1.0
C      1  0.5037660000000  0.5411390000000  0.4675530000000 1.0
C      1  0.5316290000000  0.4586410000000  0.4833170000000 1.0
C      1  0.4483480000000  0.4598040000000  0.5295530000000 1.0
C      1  0.4925240000000  0.4900200000000  0.5559550000000 1.0
C      1  0.5111560000000  0.5299670000000  0.4408090000000 1.0
C      1  0.4576340000000  0.5497140000000  0.5349550000000 1.0
C      1  0.5273890000000  0.5565150000000  0.4795140000000 1.0
C      1  0.4900610000000  0.4332660000000  0.5009650000000 1.0
C      1  0.5031280000000  0.5352640000000  0.5515470000000 1.0
C      1  0.5639110000000  0.4923340000000  0.4730370000000 1.0
C      1  0.4815330000000  0.5179380000000  0.5607920000000 1.0
C      1  0.4825550000000  0.5616900000000  0.4665330000000 1.0
C      1  0.5628260000000  0.4987610000000  0.5235700000000 1.0
C      1  0.4929270000000  0.4482430000000  0.5257930000000 1.0
C      1  0.4668000000000  0.4776970000000  0.4785030000000 1.0
C      1  0.4404030000000  0.4843850000000  0.5183230000000 1.0
C      1  0.5132370000000  0.4797000000000  0.4735770000000 1.0
C      1  0.5114160000000  0.5636520000000  0.5053270000000 1.0
C      1  0.5527910000000  0.4724930000000  0.5318170000000 1.0
C      1  0.5280160000000  0.5200690000000  0.5526680000000 1.0
C      1  0.5399470000000  0.4735070000000  0.5564330000000 1.0
C      1  0.5509510000000  0.5165630000000  0.4631250000000 1.0
C      1  0.5384890000000  0.4607360000000  0.5110090000000 1.0
C      1  0.5552560000000  0.4655880000000  0.4673210000000 1.0
C      1  0.4708150000000  0.4514360000000  0.5442490000000 1.0
C      1  0.4972650000000  0.5212850000000  0.4907130000000 1.0
C      1  0.4396900000000  0.4879160000000  0.4887750000000 1.0
C      1  0.4778380000000  0.4671070000000  0.5670220000000 1.0
END
