TITL C-950521-2237-708 -0.000156973757550017 125000 -417.167053505366 0 0 68 (C1) n - 1
REM
REM in /home/bkarasulu/work/CARBON/AIRSS/Generating-Clusters/EDIP-Nigel-Params/with-SteepDescent/Only-C1/SD-CG/HFTN-CG
REM
REM
REM
REM
REM
REM ./C.cell (11c1c37f851c82e70ff6c80c92926a4b)
REM
REM compiler GCC version 9.2.1 20190827 (Red Hat 9.2.1-1)
REM options -cpp -mtune=generic -march=x86-64 -g -O0 -fpre-include=/usr/include/finclude/math-vector-fortran.h
REM seed 1639062383 -1563499084 -1782962351 1711058878 573958198 -2109418144 -1607210279 865355422 -221000417 531607010 -1475677200 -704138096 -1621195823 29643707 1532833193 -1730178063 1806608254 939188496 631242050 -497873776 1773984689 -17973966 -1646747941 -1691423726 -288395200 757297306 1497995545 -1539180019 887756203 1295808007 1493287615 -1318103065 -732091166
REM
CELL 1.54180   50.00000   50.00000   50.00000   90.00000   90.00000   90.00000
LATT -1
SFAC C  
C      1  0.4803730000000  0.5765100000000  0.5189590000000 1.0
C      1  0.4617010000000  0.5250570000000  0.4425120000000 1.0
C      1  0.4643590000000  0.4562550000000  0.4390040000000 1.0
C      1  0.5444520000000  0.5526730000000  0.5025790000000 1.0
C      1  0.5149100000000  0.4819730000000  0.5164970000000 1.0
C      1  0.5094120000000  0.5752960000000  0.4811740000000 1.0
C      1  0.4653360000000  0.5494850000000  0.5156390000000 1.0
C      1  0.5174690000000  0.5158420000000  0.4329830000000 1.0
C      1  0.4566410000000  0.4692310000000  0.5374000000000 1.0
C      1  0.4328910000000  0.5053630000000  0.5114820000000 1.0
C      1  0.4570860000000  0.5682940000000  0.4778900000000 1.0
C      1  0.4997590000000  0.5172370000000  0.5826290000000 1.0
C      1  0.5125080000000  0.5410870000000  0.5370280000000 1.0
C      1  0.4808480000000  0.5259420000000  0.5061760000000 1.0
C      1  0.4868810000000  0.4483910000000  0.4239900000000 1.0
C      1  0.4990920000000  0.4600490000000  0.5073240000000 1.0
C      1  0.5815700000000  0.5271750000000  0.5202290000000 1.0
C      1  0.4413760000000  0.5235870000000  0.4640380000000 1.0
C      1  0.5225210000000  0.5556130000000  0.4616000000000 1.0
C      1  0.4504890000000  0.4789400000000  0.4299110000000 1.0
C      1  0.4954920000000  0.4498350000000  0.4785320000000 1.0
C      1  0.4489580000000  0.4643720000000  0.4876360000000 1.0
C      1  0.4982210000000  0.4949650000000  0.4244130000000 1.0
C      1  0.5439850000000  0.4438020000000  0.4762570000000 1.0
C      1  0.5717640000000  0.5026050000000  0.5295570000000 1.0
C      1  0.5117870000000  0.4227740000000  0.5409760000000 1.0
C      1  0.5606540000000  0.5453350000000  0.5257350000000 1.0
C      1  0.4706860000000  0.4310280000000  0.5658270000000 1.0
C      1  0.5348240000000  0.4448890000000  0.5034200000000 1.0
C      1  0.4886200000000  0.5264470000000  0.5570070000000 1.0
C      1  0.5087870000000  0.5274910000000  0.5104190000000 1.0
C      1  0.5407930000000  0.4697560000000  0.5597590000000 1.0
C      1  0.4674900000000  0.4529190000000  0.4681060000000 1.0
C      1  0.4941020000000  0.4180320000000  0.4981350000000 1.0
C      1  0.4572780000000  0.5211870000000  0.5515560000000 1.0
C      1  0.5445370000000  0.5109830000000  0.4393900000000 1.0
C      1  0.5258590000000  0.5751500000000  0.5058720000000 1.0
C      1  0.5001030000000  0.4967450000000  0.5631320000000 1.0
C      1  0.5476650000000  0.5446100000000  0.4740660000000 1.0
C      1  0.5490720000000  0.5064650000000  0.5493070000000 1.0
C      1  0.5228400000000  0.4882660000000  0.5457000000000 1.0
C      1  0.5396190000000  0.4698760000000  0.4672840000000 1.0
C      1  0.5203010000000  0.5029080000000  0.4965480000000 1.0
C      1  0.4452060000000  0.5444330000000  0.5378810000000 1.0
C      1  0.5480610000000  0.4938410000000  0.4845040000000 1.0
C      1  0.4798870000000  0.5460400000000  0.4409330000000 1.0
C      1  0.5564100000000  0.4573070000000  0.5199950000000 1.0
C      1  0.4696690000000  0.4996460000000  0.4315920000000 1.0
C      1  0.5107270000000  0.4718230000000  0.4606460000000 1.0
C      1  0.5552960000000  0.5166570000000  0.4650390000000 1.0
C      1  0.5066040000000  0.4673940000000  0.4305510000000 1.0
C      1  0.4802890000000  0.5811820000000  0.4890200000000 1.0
C      1  0.4559440000000  0.4523560000000  0.5135870000000 1.0
C      1  0.5582670000000  0.4526670000000  0.5474740000000 1.0
C      1  0.4441780000000  0.4946740000000  0.4861030000000 1.0
C      1  0.5413830000000  0.5357740000000  0.5465160000000 1.0
C      1  0.5187380000000  0.4208730000000  0.5138820000000 1.0
C      1  0.4680850000000  0.4582880000000  0.5612220000000 1.0
C      1  0.5656600000000  0.4831560000000  0.5085060000000 1.0
C      1  0.4492030000000  0.4975790000000  0.5346110000000 1.0
C      1  0.4292750000000  0.5355290000000  0.5105960000000 1.0
C      1  0.4979160000000  0.4340970000000  0.5619430000000 1.0
C      1  0.4708520000000  0.4279410000000  0.5116100000000 1.0
C      1  0.4731830000000  0.5097340000000  0.4823960000000 1.0
C      1  0.4379400000000  0.5473170000000  0.4818520000000 1.0
C      1  0.5081660000000  0.5714120000000  0.5297250000000 1.0
C      1  0.5017250000000  0.5011020000000  0.4711810000000 1.0
C      1  0.5042280000000  0.5347380000000  0.4509560000000 1.0
END
