TITL C-950525-1983-618 2.31283538059946e-06 125000 -1084.41197003476 0 0 174 (C1) n - 1
REM
REM in /home/bkarasulu/work/CARBON/AIRSS/Generating-Clusters/EDIP-Nigel-Params/with-SteepDescent/Only-C1/SD-CG/HFTN-CG
REM
REM
REM
REM
REM
REM ./C.cell (11c1c37f851c82e70ff6c80c92926a4b)
REM
REM compiler GCC version 9.2.1 20190827 (Red Hat 9.2.1-1)
REM options -cpp -mtune=generic -march=x86-64 -g -O0 -fpre-include=/usr/include/finclude/math-vector-fortran.h
REM seed 1211759156 -1327245357 -1427475456 1074110027 1789127391 -629322771 -1548205378 -733296590 1199865931 -601959909 -611917469 1766569305 -827988311 -135959106 -579259638 10732969 1335401475 670972863 371278104 -1685781788 1789858806 499402721 -1556396795 543869395 924427823 -592030484 -1981153896 -111399903 557773348 -1537078866 834717201 -650078501 514897837
REM
CELL 1.54180   50.00000   50.00000   50.00000   90.00000   90.00000   90.00000
LATT -1
SFAC C  
C      1  0.4985340000000  0.5244620000000  0.4993120000000 1.0
C      1  0.4607140000000  0.4004070000000  0.5044800000000 1.0
C      1  0.4829060000000  0.5606980000000  0.4213860000000 1.0
C      1  0.4611250000000  0.5075970000000  0.5297890000000 1.0
C      1  0.4570510000000  0.5052390000000  0.4777520000000 1.0
C      1  0.4651790000000  0.5114440000000  0.6044440000000 1.0
C      1  0.5097700000000  0.3995850000000  0.4464040000000 1.0
C      1  0.4965610000000  0.4384400000000  0.4695150000000 1.0
C      1  0.3877310000000  0.4877050000000  0.4911560000000 1.0
C      1  0.5448690000000  0.4855990000000  0.4597660000000 1.0
C      1  0.4192120000000  0.4642300000000  0.4460630000000 1.0
C      1  0.5124940000000  0.3973290000000  0.5215680000000 1.0
C      1  0.5236930000000  0.5363010000000  0.4055570000000 1.0
C      1  0.4396360000000  0.6030180000000  0.5081690000000 1.0
C      1  0.5806390000000  0.4691530000000  0.4255510000000 1.0
C      1  0.4614520000000  0.4812640000000  0.5150250000000 1.0
C      1  0.4670520000000  0.5624340000000  0.5604470000000 1.0
C      1  0.4806620000000  0.5988950000000  0.4791710000000 1.0
C      1  0.4394430000000  0.4185410000000  0.5029110000000 1.0
C      1  0.5344090000000  0.5805940000000  0.5606440000000 1.0
C      1  0.4902160000000  0.4812550000000  0.5680520000000 1.0
C      1  0.5201890000000  0.5538710000000  0.5284070000000 1.0
C      1  0.4841570000000  0.5841820000000  0.5676150000000 1.0
C      1  0.5236200000000  0.4402750000000  0.4559940000000 1.0
C      1  0.5675930000000  0.4434900000000  0.4593930000000 1.0
C      1  0.4323760000000  0.5177260000000  0.5236380000000 1.0
C      1  0.5142580000000  0.5123230000000  0.5230210000000 1.0
C      1  0.4534170000000  0.4508170000000  0.5835970000000 1.0
C      1  0.5282950000000  0.5083380000000  0.4184290000000 1.0
C      1  0.4785900000000  0.4923520000000  0.3960040000000 1.0
C      1  0.5088570000000  0.4207180000000  0.5631880000000 1.0
C      1  0.5109190000000  0.5737730000000  0.5784450000000 1.0
C      1  0.5792770000000  0.4988660000000  0.4286660000000 1.0
C      1  0.4375150000000  0.5790040000000  0.4647610000000 1.0
C      1  0.5558650000000  0.5548250000000  0.4373900000000 1.0
C      1  0.4755340000000  0.5163900000000  0.4328230000000 1.0
C      1  0.5068970000000  0.5422860000000  0.5891490000000 1.0
C      1  0.4702570000000  0.3919730000000  0.5467510000000 1.0
C      1  0.5007610000000  0.4488640000000  0.4060510000000 1.0
C      1  0.4091660000000  0.5804630000000  0.4749380000000 1.0
C      1  0.4499190000000  0.5074790000000  0.5803030000000 1.0
C      1  0.4496030000000  0.4228900000000  0.5775030000000 1.0
C      1  0.4096720000000  0.4910870000000  0.4488610000000 1.0
C      1  0.4954290000000  0.5810170000000  0.4613020000000 1.0
C      1  0.4530720000000  0.4789200000000  0.4054900000000 1.0
C      1  0.5249770000000  0.5818970000000  0.5312780000000 1.0
C      1  0.5276710000000  0.5526950000000  0.4301450000000 1.0
C      1  0.5637900000000  0.5598390000000  0.5943870000000 1.0
C      1  0.4077110000000  0.4961500000000  0.5223540000000 1.0
C      1  0.5826700000000  0.4429340000000  0.5143660000000 1.0
C      1  0.6089650000000  0.4875840000000  0.5174500000000 1.0
C      1  0.4562540000000  0.5510590000000  0.5837580000000 1.0
C      1  0.5601890000000  0.5080240000000  0.5909710000000 1.0
C      1  0.5597370000000  0.5324590000000  0.4560980000000 1.0
C      1  0.5036810000000  0.4769360000000  0.4948740000000 1.0
C      1  0.4537310000000  0.4588250000000  0.4732690000000 1.0
C      1  0.6142560000000  0.4826230000000  0.4902060000000 1.0
C      1  0.5539450000000  0.5349940000000  0.6029480000000 1.0
C      1  0.4518670000000  0.4340730000000  0.4251100000000 1.0
C      1  0.5636130000000  0.5784970000000  0.4520010000000 1.0
C      1  0.5173670000000  0.5424200000000  0.4796430000000 1.0
C      1  0.4397760000000  0.5283630000000  0.4935130000000 1.0
C      1  0.4345760000000  0.5328120000000  0.5742210000000 1.0
C      1  0.4960260000000  0.5441090000000  0.3972740000000 1.0
C      1  0.4113770000000  0.5928290000000  0.5042630000000 1.0
C      1  0.4272910000000  0.5104950000000  0.4361660000000 1.0
C      1  0.4379530000000  0.4592410000000  0.4227230000000 1.0
C      1  0.5856980000000  0.5226890000000  0.5472770000000 1.0
C      1  0.4439050000000  0.4808390000000  0.4898480000000 1.0
C      1  0.5283590000000  0.4683380000000  0.4426840000000 1.0
C      1  0.5870620000000  0.5677070000000  0.4676160000000 1.0
C      1  0.4530630000000  0.5568690000000  0.4186830000000 1.0
C      1  0.5443980000000  0.5917640000000  0.5107350000000 1.0
C      1  0.5748770000000  0.5493040000000  0.5498300000000 1.0
C      1  0.4801580000000  0.4615500000000  0.5892940000000 1.0
C      1  0.5427610000000  0.4345900000000  0.5943360000000 1.0
C      1  0.5383680000000  0.4716690000000  0.5514680000000 1.0
C      1  0.4919100000000  0.5893140000000  0.4298260000000 1.0
C      1  0.5587290000000  0.5308070000000  0.5045810000000 1.0
C      1  0.3890730000000  0.5024550000000  0.5431510000000 1.0
C      1  0.5462230000000  0.5168680000000  0.5273820000000 1.0
C      1  0.4489690000000  0.4100970000000  0.5517720000000 1.0
C      1  0.4146120000000  0.4658910000000  0.5183240000000 1.0
C      1  0.4844700000000  0.5417580000000  0.4457620000000 1.0
C      1  0.4271210000000  0.5409170000000  0.5449580000000 1.0
C      1  0.5019370000000  0.4953390000000  0.4332100000000 1.0
C      1  0.4986950000000  0.5951640000000  0.5240380000000 1.0
C      1  0.4866760000000  0.5017060000000  0.4845650000000 1.0
C      1  0.3919240000000  0.5554190000000  0.5398640000000 1.0
C      1  0.5840220000000  0.4730910000000  0.5606530000000 1.0
C      1  0.5006840000000  0.4436150000000  0.4992630000000 1.0
C      1  0.4770890000000  0.5369370000000  0.5990590000000 1.0
C      1  0.5159460000000  0.5718850000000  0.4829050000000 1.0
C      1  0.5264400000000  0.4448080000000  0.5307560000000 1.0
C      1  0.4112810000000  0.4468710000000  0.4703570000000 1.0
C      1  0.5533520000000  0.4740300000000  0.5038020000000 1.0
C      1  0.4142420000000  0.5302730000000  0.4771710000000 1.0
C      1  0.5986820000000  0.5092560000000  0.4498550000000 1.0
C      1  0.4046320000000  0.5646840000000  0.5156990000000 1.0
C      1  0.5371730000000  0.5938540000000  0.4596390000000 1.0
C      1  0.4791140000000  0.4606370000000  0.4616700000000 1.0
C      1  0.4963970000000  0.4459800000000  0.6058530000000 1.0
C      1  0.4795500000000  0.3945690000000  0.4844510000000 1.0
C      1  0.5996540000000  0.5155340000000  0.5211970000000 1.0
C      1  0.5347350000000  0.5380400000000  0.5480420000000 1.0
C      1  0.5889630000000  0.4690300000000  0.5300470000000 1.0
C      1  0.4477850000000  0.5657770000000  0.5377460000000 1.0
C      1  0.5901470000000  0.5808800000000  0.4919530000000 1.0
C      1  0.5449650000000  0.4628270000000  0.4165670000000 1.0
C      1  0.5003950000000  0.6097490000000  0.4987350000000 1.0
C      1  0.5268700000000  0.4371250000000  0.4115890000000 1.0
C      1  0.4784820000000  0.4322880000000  0.5176890000000 1.0
C      1  0.5032780000000  0.4753090000000  0.3940320000000 1.0
C      1  0.4784930000000  0.6020870000000  0.5439030000000 1.0
C      1  0.5347170000000  0.4928010000000  0.5975070000000 1.0
C      1  0.5508580000000  0.4015120000000  0.4752870000000 1.0
C      1  0.4757620000000  0.5218600000000  0.3896510000000 1.0
C      1  0.4210330000000  0.5364310000000  0.4487160000000 1.0
C      1  0.5609330000000  0.5670480000000  0.5676380000000 1.0
C      1  0.5996530000000  0.4827660000000  0.4649800000000 1.0
C      1  0.4952480000000  0.4652140000000  0.5434320000000 1.0
C      1  0.4423190000000  0.5556450000000  0.4464260000000 1.0
C      1  0.5590100000000  0.4597210000000  0.5700360000000 1.0
C      1  0.5985080000000  0.4389460000000  0.4910380000000 1.0
C      1  0.4824650000000  0.4121650000000  0.4606600000000 1.0
C      1  0.4524340000000  0.5305390000000  0.4053220000000 1.0
C      1  0.5211900000000  0.5064660000000  0.6184770000000 1.0
C      1  0.5067320000000  0.4836540000000  0.5230910000000 1.0
C      1  0.4482960000000  0.5970830000000  0.5361960000000 1.0
C      1  0.5192920000000  0.4936990000000  0.5710110000000 1.0
C      1  0.5851210000000  0.5242960000000  0.4965270000000 1.0
C      1  0.5248200000000  0.3921840000000  0.4710770000000 1.0
C      1  0.4593330000000  0.5574370000000  0.5098040000000 1.0
C      1  0.4555260000000  0.5849090000000  0.4894810000000 1.0
C      1  0.4536810000000  0.4252430000000  0.4539960000000 1.0
C      1  0.5472980000000  0.4303680000000  0.4764640000000 1.0
C      1  0.5442400000000  0.5331590000000  0.4809370000000 1.0
C      1  0.4765200000000  0.5332750000000  0.5171990000000 1.0
C      1  0.5277580000000  0.4136830000000  0.4283800000000 1.0
C      1  0.5149510000000  0.5240420000000  0.5654590000000 1.0
C      1  0.4762520000000  0.4367320000000  0.4115860000000 1.0
C      1  0.5316300000000  0.4849620000000  0.4865210000000 1.0
C      1  0.5257930000000  0.5337640000000  0.6118440000000 1.0
C      1  0.5186580000000  0.5996590000000  0.4366760000000 1.0
C      1  0.5962590000000  0.4361560000000  0.4625740000000 1.0
C      1  0.5701630000000  0.4716400000000  0.4688590000000 1.0
C      1  0.5355560000000  0.4111130000000  0.5569950000000 1.0
C      1  0.5146420000000  0.4334120000000  0.5892450000000 1.0
C      1  0.3853850000000  0.5290530000000  0.5442290000000 1.0
C      1  0.4296820000000  0.4206260000000  0.5310510000000 1.0
C      1  0.3985500000000  0.5537400000000  0.4883120000000 1.0
C      1  0.5551750000000  0.4876760000000  0.5312710000000 1.0
C      1  0.4686320000000  0.5013890000000  0.5590760000000 1.0
C      1  0.5530470000000  0.5076200000000  0.4400810000000 1.0
C      1  0.6052560000000  0.4599790000000  0.4440450000000 1.0
C      1  0.5522090000000  0.4434600000000  0.5069280000000 1.0
C      1  0.3972950000000  0.4595500000000  0.4950010000000 1.0
C      1  0.4193150000000  0.4471350000000  0.5399400000000 1.0
C      1  0.5718460000000  0.5882570000000  0.5100200000000 1.0
C      1  0.4541750000000  0.5009380000000  0.4471460000000 1.0
C      1  0.5378990000000  0.4079180000000  0.5291400000000 1.0
C      1  0.4457090000000  0.4537550000000  0.5538330000000 1.0
C      1  0.5066320000000  0.3920310000000  0.4935950000000 1.0
C      1  0.5118620000000  0.5383980000000  0.4511500000000 1.0
C      1  0.5778570000000  0.5016180000000  0.5667310000000 1.0
C      1  0.4291440000000  0.4229590000000  0.4750840000000 1.0
C      1  0.4914400000000  0.4107190000000  0.5384960000000 1.0
C      1  0.5887010000000  0.5336110000000  0.4668480000000 1.0
C      1  0.4112580000000  0.4981830000000  0.4776300000000 1.0
C      1  0.5566450000000  0.4217820000000  0.5729710000000 1.0
C      1  0.5307060000000  0.6073060000000  0.4895620000000 1.0
C      1  0.4777470000000  0.4730400000000  0.4348940000000 1.0
C      1  0.5313440000000  0.4851120000000  0.3997190000000 1.0
C      1  0.4684720000000  0.4574000000000  0.5324180000000 1.0
END
