TITL C-951339-9237-370 -7.92183986885286e-07 125000 -378.634346109209 0 0 62 (C1) n - 1
REM
REM in /home/bkarasulu/work/CARBON/AIRSS/Generating-Clusters/EDIP-Nigel-Params/with-SteepDescent/Only-C1/SD-CG/HFTN-CG
REM
REM
REM
REM
REM
REM ./C.cell (11c1c37f851c82e70ff6c80c92926a4b)
REM
REM compiler GCC version 9.2.1 20190827 (Red Hat 9.2.1-1)
REM options -cpp -mtune=generic -march=x86-64 -g -O0 -fpre-include=/usr/include/finclude/math-vector-fortran.h
REM seed 1636396817 1457436350 -328787999 -1539472087 -1429217608 -1169478611 433123141 349282740 1637325354 1635960382 -1887543371 -1828213865 1689103054 706779847 -976328842 1338731028 1091394787 293200291 1059724663 -1239027899 -1044174461 -1512622651 84083267 -772484423 -1474896070 -1974343844 242011770 -1027794101 -818380590 794341429 755242160 696213441 869407704
REM
CELL 1.54180   50.00000   50.00000   50.00000   90.00000   90.00000   90.00000
LATT -1
SFAC C  
C      1  0.4841670000000  0.4575780000000  0.5464880000000 1.0
C      1  0.5356630000000  0.5177590000000  0.5024380000000 1.0
C      1  0.5597960000000  0.5545930000000  0.5362040000000 1.0
C      1  0.4614610000000  0.5484080000000  0.4665730000000 1.0
C      1  0.5093070000000  0.4299340000000  0.4788060000000 1.0
C      1  0.4730470000000  0.4958200000000  0.4508520000000 1.0
C      1  0.4815980000000  0.5178820000000  0.4971050000000 1.0
C      1  0.5108840000000  0.5064950000000  0.4266180000000 1.0
C      1  0.5048200000000  0.5267790000000  0.4678870000000 1.0
C      1  0.5497600000000  0.4432490000000  0.5210430000000 1.0
C      1  0.4870240000000  0.4280380000000  0.4599020000000 1.0
C      1  0.4611660000000  0.4526490000000  0.4729920000000 1.0
C      1  0.4843510000000  0.4721490000000  0.4627710000000 1.0
C      1  0.5443850000000  0.4694080000000  0.5093540000000 1.0
C      1  0.5278100000000  0.4675540000000  0.5665810000000 1.0
C      1  0.5234510000000  0.5454270000000  0.5070340000000 1.0
C      1  0.4797530000000  0.5314170000000  0.5609630000000 1.0
C      1  0.4507460000000  0.5260340000000  0.4841320000000 1.0
C      1  0.4926210000000  0.4517440000000  0.4416820000000 1.0
C      1  0.4263300000000  0.5234840000000  0.5285920000000 1.0
C      1  0.5122310000000  0.4493050000000  0.5523700000000 1.0
C      1  0.4352890000000  0.5364330000000  0.5058720000000 1.0
C      1  0.5387190000000  0.5582950000000  0.4846050000000 1.0
C      1  0.4895310000000  0.5518300000000  0.5419880000000 1.0
C      1  0.4233240000000  0.4832330000000  0.4827510000000 1.0
C      1  0.5308380000000  0.4951020000000  0.5664050000000 1.0
C      1  0.4516760000000  0.5239200000000  0.5571830000000 1.0
C      1  0.5686750000000  0.5511760000000  0.5082170000000 1.0
C      1  0.4515850000000  0.4954310000000  0.5516450000000 1.0
C      1  0.4772130000000  0.4448460000000  0.5203420000000 1.0
C      1  0.4306700000000  0.5088300000000  0.4675570000000 1.0
C      1  0.5217780000000  0.4574620000000  0.4385480000000 1.0
C      1  0.5091260000000  0.4782860000000  0.4806970000000 1.0
C      1  0.4404240000000  0.4800820000000  0.5061360000000 1.0
C      1  0.5301680000000  0.4865960000000  0.4350240000000 1.0
C      1  0.5610910000000  0.4897020000000  0.5253630000000 1.0
C      1  0.5187940000000  0.5541170000000  0.4637940000000 1.0
C      1  0.4903170000000  0.4950300000000  0.5171230000000 1.0
C      1  0.5643570000000  0.5241700000000  0.4979660000000 1.0
C      1  0.5316220000000  0.5605890000000  0.5313180000000 1.0
C      1  0.5239140000000  0.5053230000000  0.4777350000000 1.0
C      1  0.5619470000000  0.5309980000000  0.5517460000000 1.0
C      1  0.4364060000000  0.4658480000000  0.4598760000000 1.0
C      1  0.4898950000000  0.5185190000000  0.4433130000000 1.0
C      1  0.5515860000000  0.4680490000000  0.4784910000000 1.0
C      1  0.4960770000000  0.5060280000000  0.5623610000000 1.0
C      1  0.4319430000000  0.4944140000000  0.5303500000000 1.0
C      1  0.4999960000000  0.5750130000000  0.4661920000000 1.0
C      1  0.4715700000000  0.5416030000000  0.4402290000000 1.0
C      1  0.5097330000000  0.4721540000000  0.5093960000000 1.0
C      1  0.4798860000000  0.4878120000000  0.5446790000000 1.0
C      1  0.4572430000000  0.4564110000000  0.5023450000000 1.0
C      1  0.4918110000000  0.5456550000000  0.5065020000000 1.0
C      1  0.5455470000000  0.4931230000000  0.4605240000000 1.0
C      1  0.5026960000000  0.4340670000000  0.5084970000000 1.0
C      1  0.5302330000000  0.4490350000000  0.4661800000000 1.0
C      1  0.4447910000000  0.4929930000000  0.4457390000000 1.0
C      1  0.5512510000000  0.5052270000000  0.5484620000000 1.0
C      1  0.5803190000000  0.5039900000000  0.5099860000000 1.0
C      1  0.5241030000000  0.4353650000000  0.5291720000000 1.0
C      1  0.4805340000000  0.5637120000000  0.4834680000000 1.0
C      1  0.5129530000000  0.5638220000000  0.5518370000000 1.0
END
