TITL C-950529-3362-273 -3.49160879717219e-06 125000 -546.754921794675 0 0 88 (C1) n - 1
REM
REM in /home/bkarasulu/work/CARBON/AIRSS/Generating-Clusters/EDIP-Nigel-Params/with-SteepDescent/Only-C1/SD-CG/HFTN-CG
REM
REM
REM
REM
REM
REM ./C.cell (11c1c37f851c82e70ff6c80c92926a4b)
REM
REM compiler GCC version 9.2.1 20190827 (Red Hat 9.2.1-1)
REM options -cpp -mtune=generic -march=x86-64 -g -O0 -fpre-include=/usr/include/finclude/math-vector-fortran.h
REM seed 753389050 1351880255 -1296438341 -1666845416 776639565 -147543574 1983461254 -1722228517 -877058115 395921994 -835879287 -1312430778 -197368501 -1999310467 19503731 -116827453 536305650 -797128406 598973299 -92616721 1565637657 -633988376 -479531438 427087251 864461093 -121342797 -731550496 1674726313 -499036438 -1944688249 -642056097 1474250612 153729320
REM
CELL 1.54180   50.00000   50.00000   50.00000   90.00000   90.00000   90.00000
LATT -1
SFAC C  
C      1  0.4623610000000  0.5090870000000  0.4874110000000 1.0
C      1  0.5449020000000  0.5601830000000  0.4973150000000 1.0
C      1  0.5334730000000  0.5656680000000  0.5246720000000 1.0
C      1  0.4686060000000  0.4883480000000  0.4657900000000 1.0
C      1  0.4871710000000  0.5245420000000  0.5857230000000 1.0
C      1  0.4448110000000  0.5576090000000  0.5129150000000 1.0
C      1  0.5200760000000  0.4698640000000  0.5458060000000 1.0
C      1  0.4772410000000  0.4606670000000  0.5011290000000 1.0
C      1  0.5410500000000  0.4338300000000  0.5180460000000 1.0
C      1  0.5822920000000  0.5014410000000  0.5304070000000 1.0
C      1  0.5199790000000  0.5285550000000  0.4440730000000 1.0
C      1  0.4431870000000  0.5450940000000  0.4617790000000 1.0
C      1  0.4773300000000  0.4501830000000  0.4438310000000 1.0
C      1  0.4353610000000  0.4281300000000  0.4711800000000 1.0
C      1  0.4584080000000  0.4973200000000  0.4367210000000 1.0
C      1  0.4863650000000  0.5682100000000  0.4508860000000 1.0
C      1  0.5285710000000  0.4455010000000  0.4421310000000 1.0
C      1  0.5499060000000  0.4776980000000  0.5040360000000 1.0
C      1  0.4997370000000  0.4834080000000  0.4628110000000 1.0
C      1  0.4738790000000  0.4335760000000  0.5123750000000 1.0
C      1  0.5046950000000  0.5030070000000  0.5806240000000 1.0
C      1  0.4491690000000  0.5652980000000  0.4845870000000 1.0
C      1  0.5688330000000  0.5018740000000  0.5032980000000 1.0
C      1  0.4514790000000  0.4387370000000  0.4512180000000 1.0
C      1  0.5268860000000  0.5280960000000  0.5472180000000 1.0
C      1  0.4377110000000  0.4814940000000  0.5261480000000 1.0
C      1  0.5519180000000  0.4896930000000  0.4392370000000 1.0
C      1  0.4735700000000  0.5227780000000  0.4299000000000 1.0
C      1  0.5448690000000  0.4808930000000  0.5607240000000 1.0
C      1  0.4843520000000  0.5799690000000  0.5392840000000 1.0
C      1  0.4645050000000  0.4939850000000  0.5166520000000 1.0
C      1  0.4934520000000  0.4288070000000  0.5321780000000 1.0
C      1  0.4594490000000  0.5717100000000  0.5323440000000 1.0
C      1  0.5266180000000  0.4829490000000  0.5203800000000 1.0
C      1  0.4288830000000  0.4756720000000  0.4953580000000 1.0
C      1  0.5035540000000  0.4867240000000  0.4192550000000 1.0
C      1  0.5156170000000  0.5597170000000  0.4517580000000 1.0
C      1  0.4559800000000  0.4653910000000  0.4795530000000 1.0
C      1  0.5075100000000  0.5823940000000  0.5235300000000 1.0
C      1  0.5704370000000  0.4773670000000  0.5442940000000 1.0
C      1  0.4718990000000  0.5420940000000  0.4532850000000 1.0
C      1  0.5020880000000  0.4347460000000  0.4511470000000 1.0
C      1  0.4263690000000  0.4380190000000  0.4956260000000 1.0
C      1  0.4403010000000  0.4539440000000  0.5385980000000 1.0
C      1  0.4934870000000  0.4853750000000  0.5592350000000 1.0
C      1  0.5518840000000  0.5646240000000  0.5480150000000 1.0
C      1  0.5140210000000  0.5054630000000  0.5111100000000 1.0
C      1  0.5266850000000  0.4744000000000  0.4344650000000 1.0
C      1  0.4189150000000  0.5025770000000  0.4829970000000 1.0
C      1  0.5333150000000  0.4257410000000  0.4896080000000 1.0
C      1  0.5494350000000  0.5189750000000  0.4418060000000 1.0
C      1  0.5829490000000  0.5027760000000  0.4755220000000 1.0
C      1  0.4807210000000  0.5079760000000  0.5404860000000 1.0
C      1  0.4339760000000  0.5154160000000  0.4611300000000 1.0
C      1  0.5188270000000  0.4399630000000  0.5377900000000 1.0
C      1  0.5080760000000  0.5133740000000  0.4676460000000 1.0
C      1  0.5521220000000  0.5310970000000  0.4903260000000 1.0
C      1  0.4119040000000  0.5235170000000  0.4997220000000 1.0
C      1  0.5380880000000  0.4720020000000  0.4769750000000 1.0
C      1  0.5026570000000  0.5258230000000  0.5280400000000 1.0
C      1  0.4226670000000  0.5397450000000  0.5193930000000 1.0
C      1  0.5277580000000  0.5135780000000  0.4880610000000 1.0
C      1  0.4442700000000  0.4328550000000  0.5186570000000 1.0
C      1  0.4671780000000  0.4745870000000  0.5707810000000 1.0
C      1  0.5232950000000  0.5702570000000  0.4792470000000 1.0
C      1  0.4554290000000  0.4511180000000  0.5617720000000 1.0
C      1  0.4840610000000  0.5283860000000  0.4789840000000 1.0
C      1  0.5728070000000  0.4796970000000  0.4592330000000 1.0
C      1  0.4282420000000  0.4996620000000  0.5493800000000 1.0
C      1  0.4490970000000  0.4989800000000  0.5707100000000 1.0
C      1  0.5048200000000  0.4631550000000  0.4874280000000 1.0
C      1  0.5368810000000  0.5477430000000  0.5658920000000 1.0
C      1  0.5844930000000  0.4477530000000  0.4974810000000 1.0
C      1  0.5323940000000  0.5093460000000  0.5710040000000 1.0
C      1  0.5845130000000  0.5259310000000  0.5434440000000 1.0
C      1  0.4772180000000  0.4736650000000  0.4248940000000 1.0
C      1  0.5680530000000  0.5273040000000  0.4642240000000 1.0
C      1  0.4916100000000  0.5435200000000  0.5038950000000 1.0
C      1  0.4674730000000  0.5221370000000  0.5655020000000 1.0
C      1  0.5642060000000  0.4544490000000  0.5172120000000 1.0
C      1  0.4218130000000  0.5263000000000  0.5434860000000 1.0
C      1  0.5761280000000  0.4504330000000  0.4706980000000 1.0
C      1  0.5014740000000  0.5167570000000  0.4224160000000 1.0
C      1  0.5052180000000  0.4327100000000  0.4811520000000 1.0
C      1  0.5464770000000  0.4433690000000  0.4676400000000 1.0
C      1  0.4755850000000  0.5799890000000  0.4776240000000 1.0
C      1  0.5762670000000  0.5515100000000  0.5432710000000 1.0
C      1  0.4986600000000  0.5716910000000  0.4964210000000 1.0
END
