TITL C-951343-2256-434 1.86754598086955e-07 125000 -293.703214536904 0 0 48 (C1) n - 1
REM
REM in /home/bkarasulu/work/CARBON/AIRSS/Generating-Clusters/EDIP-Nigel-Params/with-SteepDescent/Only-C1/SD-CG/HFTN-CG
REM
REM
REM
REM
REM
REM ./C.cell (11c1c37f851c82e70ff6c80c92926a4b)
REM
REM compiler GCC version 9.2.1 20190827 (Red Hat 9.2.1-1)
REM options -cpp -mtune=generic -march=x86-64 -g -O0 -fpre-include=/usr/include/finclude/math-vector-fortran.h
REM seed 1640929400 -1100364539 -1929676110 1316849206 -1874846787 -252851344 -218068868 -1384528446 1363014612 1184673737 -657536756 -1587397022 2047615062 1140797886 1352639284 1707739287 -805451117 1562426604 -573853135 -2010947018 1136789931 -1650863909 1785996816 32843149 -1814975947 362681745 423421172 1708603385 1603808995 983463456 1668228789 1916103032 1977522439
REM
CELL 1.54180   50.00000   50.00000   50.00000   90.00000   90.00000   90.00000
LATT -1
SFAC C  
C      1  0.4661880000000  0.4583930000000  0.4588210000000 1.0
C      1  0.5476180000000  0.5187030000000  0.5049720000000 1.0
C      1  0.4741870000000  0.5470890000000  0.4582780000000 1.0
C      1  0.4797140000000  0.4418710000000  0.4778000000000 1.0
C      1  0.4881690000000  0.5348540000000  0.5034480000000 1.0
C      1  0.4458540000000  0.4879610000000  0.4907040000000 1.0
C      1  0.4759020000000  0.4502910000000  0.5059580000000 1.0
C      1  0.4564670000000  0.4719840000000  0.5132170000000 1.0
C      1  0.5082370000000  0.5191680000000  0.4379500000000 1.0
C      1  0.5167860000000  0.5327820000000  0.5439870000000 1.0
C      1  0.4977910000000  0.4757280000000  0.5651560000000 1.0
C      1  0.5258340000000  0.4479630000000  0.5369630000000 1.0
C      1  0.4687890000000  0.4845350000000  0.4723170000000 1.0
C      1  0.5639960000000  0.4742310000000  0.5317590000000 1.0
C      1  0.4708470000000  0.5399400000000  0.5574870000000 1.0
C      1  0.5243250000000  0.5221870000000  0.4632310000000 1.0
C      1  0.4396540000000  0.5146570000000  0.4977240000000 1.0
C      1  0.5572570000000  0.4990440000000  0.4867240000000 1.0
C      1  0.4900760000000  0.4950310000000  0.5449680000000 1.0
C      1  0.5404220000000  0.4578500000000  0.4930750000000 1.0
C      1  0.4488800000000  0.5653620000000  0.5227470000000 1.0
C      1  0.5379760000000  0.5478320000000  0.4672970000000 1.0
C      1  0.5059720000000  0.4379810000000  0.4687740000000 1.0
C      1  0.5299600000000  0.4777480000000  0.4505170000000 1.0
C      1  0.5452100000000  0.5010110000000  0.4613100000000 1.0
C      1  0.5448280000000  0.4887160000000  0.5470900000000 1.0
C      1  0.5482980000000  0.4539000000000  0.5196230000000 1.0
C      1  0.4973790000000  0.4843600000000  0.4877330000000 1.0
C      1  0.5067610000000  0.5143230000000  0.4888260000000 1.0
C      1  0.4655190000000  0.5023640000000  0.4394630000000 1.0
C      1  0.4817910000000  0.4795730000000  0.4310330000000 1.0
C      1  0.4633010000000  0.4937330000000  0.5324970000000 1.0
C      1  0.4857380000000  0.4330500000000  0.5253620000000 1.0
C      1  0.4570860000000  0.5698300000000  0.4973910000000 1.0
C      1  0.4800670000000  0.5272360000000  0.4396200000000 1.0
C      1  0.5063700000000  0.5505490000000  0.5230900000000 1.0
C      1  0.4519850000000  0.5415200000000  0.5368480000000 1.0
C      1  0.5241240000000  0.4688030000000  0.5568650000000 1.0
C      1  0.4931240000000  0.5223930000000  0.5576820000000 1.0
C      1  0.5185660000000  0.4637000000000  0.4749370000000 1.0
C      1  0.5439070000000  0.5462890000000  0.4949500000000 1.0
C      1  0.5092650000000  0.4923400000000  0.5211130000000 1.0
C      1  0.5094060000000  0.4897860000000  0.4315460000000 1.0
C      1  0.5284180000000  0.5629430000000  0.5110780000000 1.0
C      1  0.4766700000000  0.5547560000000  0.4846570000000 1.0
C      1  0.5319980000000  0.5101020000000  0.5297420000000 1.0
C      1  0.4601020000000  0.5202700000000  0.5177060000000 1.0
C      1  0.5091850000000  0.4252680000000  0.5359640000000 1.0
END
