TITL C-950521-2237-249 2.34409389605669e-06 125000 -366.071896226697 0 0 60 (C1) n - 1
REM
REM in /home/bkarasulu/work/CARBON/AIRSS/Generating-Clusters/EDIP-Nigel-Params/with-SteepDescent/Only-C1/SD-CG/HFTN-CG
REM
REM
REM
REM
REM
REM ./C.cell (11c1c37f851c82e70ff6c80c92926a4b)
REM
REM compiler GCC version 9.2.1 20190827 (Red Hat 9.2.1-1)
REM options -cpp -mtune=generic -march=x86-64 -g -O0 -fpre-include=/usr/include/finclude/math-vector-fortran.h
REM seed -2044843279 748711167 1378428411 666144666 -1191031433 817478501 -1157734853 -666835774 -1654839170 -587858359 1880577506 202575058 1857795811 56908866 801647741 -1277513576 1134841016 1622873495 1431589313 1517001724 447622060 67865788 1352340595 610483598 149247763 -1487600631 1592598941 1977889147 869892225 -1491836070 -262816453 -174727943 397840454
REM
CELL 1.54180   50.00000   50.00000   50.00000   90.00000   90.00000   90.00000
LATT -1
SFAC C  
C      1  0.4925150000000  0.5343710000000  0.5794750000000 1.0
C      1  0.4905630000000  0.4655510000000  0.5425130000000 1.0
C      1  0.4558870000000  0.5147650000000  0.4638650000000 1.0
C      1  0.4368090000000  0.4959490000000  0.4772250000000 1.0
C      1  0.4349030000000  0.4481340000000  0.4911400000000 1.0
C      1  0.4811630000000  0.4884450000000  0.5594850000000 1.0
C      1  0.4800670000000  0.4401140000000  0.4753290000000 1.0
C      1  0.4916650000000  0.4796820000000  0.4447910000000 1.0
C      1  0.5565020000000  0.4316940000000  0.5301390000000 1.0
C      1  0.5799930000000  0.4399150000000  0.5403120000000 1.0
C      1  0.4323650000000  0.5004890000000  0.5061130000000 1.0
C      1  0.4739970000000  0.4553270000000  0.4496160000000 1.0
C      1  0.5287210000000  0.5039220000000  0.5694620000000 1.0
C      1  0.5254370000000  0.4520350000000  0.4678840000000 1.0
C      1  0.4481030000000  0.5415200000000  0.5127010000000 1.0
C      1  0.4973640000000  0.5619790000000  0.4969620000000 1.0
C      1  0.4743300000000  0.4669820000000  0.5153970000000 1.0
C      1  0.4593670000000  0.5016380000000  0.5463940000000 1.0
C      1  0.4524500000000  0.4868800000000  0.5229970000000 1.0
C      1  0.5394970000000  0.5033840000000  0.4998160000000 1.0
C      1  0.4735330000000  0.5515250000000  0.5661100000000 1.0
C      1  0.5501420000000  0.5493370000000  0.4896890000000 1.0
C      1  0.5319970000000  0.5364510000000  0.5322050000000 1.0
C      1  0.5506310000000  0.4911590000000  0.4294970000000 1.0
C      1  0.5483190000000  0.5295850000000  0.5095190000000 1.0
C      1  0.5200570000000  0.4612810000000  0.5429230000000 1.0
C      1  0.5080380000000  0.4360050000000  0.4823980000000 1.0
C      1  0.5372440000000  0.5325230000000  0.5610050000000 1.0
C      1  0.4878340000000  0.5293990000000  0.4322890000000 1.0
C      1  0.5224720000000  0.5259700000000  0.4601300000000 1.0
C      1  0.5169540000000  0.5245120000000  0.4304580000000 1.0
C      1  0.4558870000000  0.5443110000000  0.4642170000000 1.0
C      1  0.5146260000000  0.4279270000000  0.5081310000000 1.0
C      1  0.5585400000000  0.4926430000000  0.4552430000000 1.0
C      1  0.4956840000000  0.5294740000000  0.4759190000000 1.0
C      1  0.5297140000000  0.4377860000000  0.5290610000000 1.0
C      1  0.4727620000000  0.5261830000000  0.5214010000000 1.0
C      1  0.5343720000000  0.5526740000000  0.4669110000000 1.0
C      1  0.4502230000000  0.5559370000000  0.4888520000000 1.0
C      1  0.4369620000000  0.4673520000000  0.4705510000000 1.0
C      1  0.5122210000000  0.4780100000000  0.4686860000000 1.0
C      1  0.5167050000000  0.5509830000000  0.5728420000000 1.0
C      1  0.4966730000000  0.5475320000000  0.5236400000000 1.0
C      1  0.4753540000000  0.5056780000000  0.4443900000000 1.0
C      1  0.4923430000000  0.5643040000000  0.5480220000000 1.0
C      1  0.5254920000000  0.4981610000000  0.4194410000000 1.0
C      1  0.4957270000000  0.4822010000000  0.4969990000000 1.0
C      1  0.5160260000000  0.4945520000000  0.5136390000000 1.0
C      1  0.5893630000000  0.4603360000000  0.5553340000000 1.0
C      1  0.4246130000000  0.5265060000000  0.5143420000000 1.0
C      1  0.5348990000000  0.5000550000000  0.4703670000000 1.0
C      1  0.5056440000000  0.4781870000000  0.4195980000000 1.0
C      1  0.5001820000000  0.5088460000000  0.5670690000000 1.0
C      1  0.5390400000000  0.4796140000000  0.5565010000000 1.0
C      1  0.4618830000000  0.4438930000000  0.4988300000000 1.0
C      1  0.4464730000000  0.4594490000000  0.4453030000000 1.0
C      1  0.4844570000000  0.5106210000000  0.4970440000000 1.0
C      1  0.4800660000000  0.5538720000000  0.4491150000000 1.0
C      1  0.5663620000000  0.4739730000000  0.5601740000000 1.0
C      1  0.5087870000000  0.5684180000000  0.4705410000000 1.0
END
