TITL C-950526-5686-284 -2.07372408825776e-06 125000 -553.461012068102 0 0 90 (C1) n - 1
REM
REM in /home/bkarasulu/work/CARBON/AIRSS/Generating-Clusters/EDIP-Nigel-Params/with-SteepDescent/Only-C1/SD-CG/HFTN-CG
REM
REM
REM
REM
REM
REM ./C.cell (11c1c37f851c82e70ff6c80c92926a4b)
REM
REM compiler GCC version 9.2.1 20190827 (Red Hat 9.2.1-1)
REM options -cpp -mtune=generic -march=x86-64 -g -O0 -fpre-include=/usr/include/finclude/math-vector-fortran.h
REM seed -163297632 -1778098989 -907080855 1069606278 1045388348 134204518 -418501065 -1940371258 719180478 -1833013864 -498095953 1885214913 -318803266 -1390348197 1164151810 1823536572 1850433571 45753896 -1734196217 1621181065 794619992 -2028501965 -1528391919 -103117786 1495854371 -216306492 1461403244 -1952947025 319339579 -192834647 443807286 1924088101 1352285730
REM
CELL 1.54180   50.00000   50.00000   50.00000   90.00000   90.00000   90.00000
LATT -1
SFAC C  
C      1  0.5708960000000  0.4445430000000  0.5007040000000 1.0
C      1  0.5238180000000  0.4923350000000  0.5719440000000 1.0
C      1  0.5420660000000  0.4208890000000  0.5280710000000 1.0
C      1  0.4528390000000  0.5707630000000  0.4800130000000 1.0
C      1  0.5219720000000  0.5247860000000  0.5315460000000 1.0
C      1  0.5522300000000  0.4676000000000  0.5380370000000 1.0
C      1  0.4185420000000  0.5159030000000  0.5346320000000 1.0
C      1  0.5345950000000  0.4959450000000  0.4777120000000 1.0
C      1  0.5479660000000  0.4480230000000  0.4828290000000 1.0
C      1  0.4816970000000  0.5062130000000  0.4557110000000 1.0
C      1  0.5036740000000  0.5015950000000  0.5337540000000 1.0
C      1  0.5807640000000  0.4935840000000  0.5042200000000 1.0
C      1  0.4629080000000  0.4800770000000  0.5201750000000 1.0
C      1  0.4343600000000  0.5591580000000  0.5252550000000 1.0
C      1  0.4693360000000  0.4749870000000  0.4914510000000 1.0
C      1  0.4333430000000  0.4756940000000  0.5240060000000 1.0
C      1  0.4940400000000  0.4439380000000  0.4596860000000 1.0
C      1  0.4762730000000  0.5081150000000  0.5275860000000 1.0
C      1  0.4665220000000  0.5272200000000  0.5496760000000 1.0
C      1  0.5418580000000  0.5228540000000  0.4872930000000 1.0
C      1  0.5387240000000  0.4429550000000  0.5451370000000 1.0
C      1  0.4826440000000  0.4126300000000  0.5395850000000 1.0
C      1  0.5311540000000  0.4230890000000  0.4805780000000 1.0
C      1  0.5036110000000  0.4784750000000  0.4166510000000 1.0
C      1  0.5378330000000  0.4796350000000  0.4531090000000 1.0
C      1  0.5102360000000  0.4714230000000  0.5283970000000 1.0
C      1  0.4682340000000  0.4424320000000  0.4438290000000 1.0
C      1  0.4162180000000  0.5124170000000  0.5043310000000 1.0
C      1  0.5643750000000  0.5192660000000  0.5093350000000 1.0
C      1  0.5147080000000  0.4436320000000  0.5616850000000 1.0
C      1  0.5122540000000  0.4889410000000  0.4931840000000 1.0
C      1  0.4440410000000  0.4589760000000  0.4343730000000 1.0
C      1  0.5635430000000  0.5621080000000  0.5314760000000 1.0
C      1  0.4910610000000  0.3896440000000  0.5263950000000 1.0
C      1  0.5509180000000  0.5403750000000  0.4643780000000 1.0
C      1  0.5363700000000  0.5684220000000  0.5371440000000 1.0
C      1  0.5137730000000  0.5035390000000  0.4076850000000 1.0
C      1  0.5144540000000  0.4599620000000  0.4984860000000 1.0
C      1  0.5160490000000  0.5480910000000  0.5504900000000 1.0
C      1  0.4379160000000  0.5363580000000  0.5417920000000 1.0
C      1  0.5102690000000  0.4200860000000  0.4617030000000 1.0
C      1  0.5132640000000  0.5172280000000  0.5839530000000 1.0
C      1  0.4808900000000  0.4613580000000  0.5361380000000 1.0
C      1  0.5054190000000  0.5451800000000  0.4345200000000 1.0
C      1  0.4614070000000  0.5280630000000  0.4499760000000 1.0
C      1  0.4373570000000  0.4885730000000  0.4374940000000 1.0
C      1  0.5006900000000  0.5829140000000  0.5093960000000 1.0
C      1  0.4853440000000  0.5523430000000  0.5463330000000 1.0
C      1  0.4534990000000  0.5738370000000  0.5104910000000 1.0
C      1  0.4994340000000  0.5910280000000  0.4809520000000 1.0
C      1  0.5242170000000  0.5418940000000  0.5775780000000 1.0
C      1  0.4800980000000  0.4836780000000  0.4359490000000 1.0
C      1  0.4505530000000  0.5312760000000  0.4996760000000 1.0
C      1  0.5249350000000  0.5672010000000  0.5095040000000 1.0
C      1  0.5700730000000  0.4684090000000  0.5154900000000 1.0
C      1  0.4768330000000  0.4778630000000  0.5700960000000 1.0
C      1  0.4985690000000  0.5273730000000  0.4115580000000 1.0
C      1  0.4708730000000  0.5070820000000  0.5748170000000 1.0
C      1  0.4735900000000  0.5095580000000  0.4080420000000 1.0
C      1  0.5132870000000  0.4649990000000  0.4430160000000 1.0
C      1  0.5119950000000  0.3884430000000  0.5095500000000 1.0
C      1  0.4192800000000  0.4833660000000  0.4987050000000 1.0
C      1  0.4297750000000  0.4756010000000  0.4728110000000 1.0
C      1  0.5474500000000  0.4919000000000  0.5529200000000 1.0
C      1  0.4432800000000  0.5427790000000  0.4715700000000 1.0
C      1  0.5419180000000  0.5806170000000  0.4890970000000 1.0
C      1  0.4346200000000  0.4496000000000  0.4610640000000 1.0
C      1  0.5317650000000  0.5474290000000  0.4445610000000 1.0
C      1  0.4871660000000  0.4506450000000  0.4898220000000 1.0
C      1  0.4855320000000  0.4985850000000  0.4835860000000 1.0
C      1  0.4876350000000  0.5170790000000  0.5950410000000 1.0
C      1  0.4764270000000  0.4348240000000  0.5228930000000 1.0
C      1  0.4233030000000  0.4904510000000  0.5460210000000 1.0
C      1  0.4811880000000  0.5225180000000  0.5014900000000 1.0
C      1  0.5835890000000  0.4730100000000  0.4605590000000 1.0
C      1  0.5739630000000  0.5486930000000  0.5084010000000 1.0
C      1  0.5588700000000  0.4601030000000  0.4570880000000 1.0
C      1  0.5636610000000  0.5614680000000  0.4820910000000 1.0
C      1  0.5929550000000  0.4899800000000  0.4793710000000 1.0
C      1  0.4494030000000  0.5138220000000  0.4262860000000 1.0
C      1  0.4861000000000  0.5639780000000  0.4424510000000 1.0
C      1  0.5254760000000  0.5919800000000  0.4688670000000 1.0
C      1  0.5499050000000  0.5163500000000  0.5360320000000 1.0
C      1  0.4978040000000  0.4212410000000  0.5613460000000 1.0
C      1  0.4797220000000  0.5672620000000  0.5210770000000 1.0
C      1  0.4164890000000  0.5313130000000  0.4804190000000 1.0
C      1  0.4787200000000  0.5763190000000  0.4666410000000 1.0
C      1  0.5307860000000  0.4084890000000  0.5055360000000 1.0
C      1  0.5177440000000  0.5362650000000  0.5032270000000 1.0
C      1  0.5050660000000  0.4693560000000  0.5724540000000 1.0
END
