TITL C-950529-3362-266 7.85196734544219e-07 125000 -750.218419713654 0 0 121 (C1) n - 1
REM
REM in /home/bkarasulu/work/CARBON/AIRSS/Generating-Clusters/EDIP-Nigel-Params/with-SteepDescent/Only-C1/SD-CG/HFTN-CG
REM
REM
REM
REM
REM
REM ./C.cell (11c1c37f851c82e70ff6c80c92926a4b)
REM
REM compiler GCC version 9.2.1 20190827 (Red Hat 9.2.1-1)
REM options -cpp -mtune=generic -march=x86-64 -g -O0 -fpre-include=/usr/include/finclude/math-vector-fortran.h
REM seed 889703198 -659205917 -779977632 1525540064 -1888863366 2035463869 -903110330 -2115253428 965640909 1172578270 -313533517 1985339849 -2088013397 482586015 88730314 1985605173 -1950012888 960379838 -165318069 318118866 -2019467673 -1540021397 -326108371 980315754 -1660517097 1643261477 1057392152 1776857566 -251590623 2135872706 1748890262 700587126 1958802201
REM
CELL 1.54180   50.00000   50.00000   50.00000   90.00000   90.00000   90.00000
LATT -1
SFAC C  
C      1  0.4595580000000  0.5660410000000  0.4472730000000 1.0
C      1  0.4464140000000  0.5775760000000  0.5321180000000 1.0
C      1  0.4726220000000  0.5861000000000  0.4917960000000 1.0
C      1  0.5177520000000  0.5616460000000  0.5868700000000 1.0
C      1  0.5724510000000  0.5291230000000  0.5418610000000 1.0
C      1  0.5222490000000  0.4034490000000  0.4889000000000 1.0
C      1  0.5351730000000  0.5383080000000  0.4288600000000 1.0
C      1  0.5105160000000  0.4352510000000  0.5606900000000 1.0
C      1  0.5668770000000  0.5698620000000  0.5148700000000 1.0
C      1  0.4730360000000  0.4084910000000  0.4773850000000 1.0
C      1  0.5804030000000  0.5235980000000  0.4440040000000 1.0
C      1  0.4594380000000  0.4908930000000  0.4557240000000 1.0
C      1  0.4239270000000  0.4670310000000  0.4646640000000 1.0
C      1  0.4764310000000  0.5426480000000  0.4394040000000 1.0
C      1  0.5761250000000  0.4764020000000  0.4603880000000 1.0
C      1  0.5133650000000  0.4282270000000  0.4490130000000 1.0
C      1  0.5055750000000  0.5857880000000  0.4531750000000 1.0
C      1  0.4987860000000  0.5162230000000  0.5838340000000 1.0
C      1  0.5646990000000  0.4265920000000  0.5400570000000 1.0
C      1  0.5557880000000  0.4479150000000  0.5215210000000 1.0
C      1  0.4226830000000  0.5691300000000  0.5443650000000 1.0
C      1  0.5208440000000  0.4849680000000  0.4065790000000 1.0
C      1  0.4877410000000  0.5424420000000  0.5246700000000 1.0
C      1  0.4325140000000  0.5576740000000  0.4556980000000 1.0
C      1  0.5353960000000  0.5603090000000  0.5652630000000 1.0
C      1  0.4509700000000  0.5052160000000  0.5779690000000 1.0
C      1  0.4777810000000  0.4518190000000  0.5119170000000 1.0
C      1  0.4651560000000  0.4042260000000  0.5062490000000 1.0
C      1  0.5137530000000  0.5346990000000  0.4091070000000 1.0
C      1  0.4105750000000  0.4884180000000  0.4792260000000 1.0
C      1  0.4705250000000  0.4543820000000  0.5585480000000 1.0
C      1  0.4061480000000  0.5161920000000  0.4674170000000 1.0
C      1  0.5462850000000  0.4895420000000  0.4229530000000 1.0
C      1  0.5417970000000  0.5364180000000  0.4763600000000 1.0
C      1  0.4817500000000  0.4255590000000  0.5540620000000 1.0
C      1  0.4377240000000  0.4087460000000  0.5101190000000 1.0
C      1  0.4269260000000  0.5290720000000  0.4467580000000 1.0
C      1  0.4814970000000  0.4969760000000  0.5412470000000 1.0
C      1  0.4508660000000  0.5678710000000  0.5033630000000 1.0
C      1  0.4655750000000  0.4374820000000  0.4384540000000 1.0
C      1  0.5829730000000  0.5477080000000  0.4654560000000 1.0
C      1  0.5313840000000  0.4193540000000  0.5720690000000 1.0
C      1  0.4967260000000  0.5444990000000  0.5805230000000 1.0
C      1  0.5182670000000  0.5077500000000  0.5065600000000 1.0
C      1  0.5298980000000  0.5885050000000  0.4692670000000 1.0
C      1  0.4935960000000  0.4346180000000  0.4283040000000 1.0
C      1  0.5548280000000  0.4017370000000  0.5310420000000 1.0
C      1  0.4478020000000  0.5120490000000  0.4749770000000 1.0
C      1  0.4989960000000  0.5826620000000  0.5061850000000 1.0
C      1  0.5005740000000  0.4225870000000  0.4761300000000 1.0
C      1  0.4855700000000  0.4684060000000  0.5355410000000 1.0
C      1  0.4712200000000  0.5249480000000  0.4855520000000 1.0
C      1  0.5430390000000  0.5837530000000  0.5194080000000 1.0
C      1  0.4997280000000  0.4620190000000  0.4131350000000 1.0
C      1  0.5868510000000  0.5308820000000  0.4919030000000 1.0
C      1  0.5071020000000  0.5777950000000  0.4264570000000 1.0
C      1  0.5091970000000  0.4764410000000  0.4476930000000 1.0
C      1  0.5774860000000  0.4998630000000  0.5448530000000 1.0
C      1  0.5672580000000  0.4893250000000  0.5717880000000 1.0
C      1  0.4943660000000  0.5541700000000  0.4177860000000 1.0
C      1  0.5582210000000  0.5199980000000  0.4230990000000 1.0
C      1  0.4615600000000  0.5389400000000  0.5099350000000 1.0
C      1  0.4330740000000  0.4878430000000  0.5621510000000 1.0
C      1  0.5257500000000  0.5746880000000  0.5414910000000 1.0
C      1  0.4974900000000  0.5835050000000  0.5369530000000 1.0
C      1  0.5556070000000  0.4657030000000  0.4405070000000 1.0
C      1  0.5564130000000  0.5606790000000  0.4691030000000 1.0
C      1  0.5189550000000  0.4717480000000  0.5842500000000 1.0
C      1  0.5357900000000  0.4592350000000  0.4833360000000 1.0
C      1  0.5776790000000  0.4785250000000  0.5125090000000 1.0
C      1  0.4921840000000  0.5372080000000  0.4657060000000 1.0
C      1  0.4126890000000  0.4881520000000  0.5072150000000 1.0
C      1  0.4789470000000  0.4978650000000  0.5717120000000 1.0
C      1  0.4293820000000  0.4510150000000  0.5296800000000 1.0
C      1  0.4703950000000  0.5539890000000  0.5729830000000 1.0
C      1  0.4866950000000  0.4700370000000  0.5814230000000 1.0
C      1  0.4533830000000  0.4258490000000  0.4629250000000 1.0
C      1  0.4718660000000  0.5699430000000  0.5471690000000 1.0
C      1  0.5030150000000  0.5077590000000  0.4102870000000 1.0
C      1  0.4269550000000  0.5601760000000  0.4849030000000 1.0
C      1  0.4306190000000  0.4727350000000  0.4375980000000 1.0
C      1  0.5227150000000  0.5281220000000  0.4554790000000 1.0
C      1  0.4178020000000  0.5325350000000  0.4890020000000 1.0
C      1  0.4281000000000  0.4347780000000  0.5062120000000 1.0
C      1  0.5485790000000  0.5326650000000  0.5602740000000 1.0
C      1  0.5472550000000  0.4654830000000  0.5699780000000 1.0
C      1  0.4604130000000  0.5152060000000  0.4328790000000 1.0
C      1  0.4389740000000  0.5256050000000  0.5270700000000 1.0
C      1  0.5274710000000  0.5357940000000  0.5014600000000 1.0
C      1  0.4775930000000  0.5838770000000  0.4633420000000 1.0
C      1  0.5358380000000  0.4908150000000  0.4873420000000 1.0
C      1  0.5236700000000  0.5011810000000  0.5888690000000 1.0
C      1  0.4819570000000  0.4235990000000  0.5230460000000 1.0
C      1  0.4723170000000  0.4735240000000  0.4078350000000 1.0
C      1  0.5424810000000  0.4862350000000  0.5368090000000 1.0
C      1  0.5748890000000  0.5430550000000  0.5162620000000 1.0
C      1  0.4308500000000  0.4978460000000  0.5258230000000 1.0
C      1  0.5296440000000  0.4987160000000  0.4568790000000 1.0
C      1  0.5248170000000  0.4474970000000  0.5181210000000 1.0
C      1  0.5027700000000  0.5523050000000  0.4997960000000 1.0
C      1  0.4353820000000  0.4438050000000  0.4787660000000 1.0
C      1  0.5542810000000  0.4353260000000  0.5665380000000 1.0
C      1  0.5143620000000  0.4611190000000  0.5417050000000 1.0
C      1  0.4865150000000  0.4757750000000  0.4671910000000 1.0
C      1  0.4407850000000  0.4605790000000  0.5540670000000 1.0
C      1  0.5310600000000  0.3957100000000  0.5173270000000 1.0
C      1  0.5253520000000  0.5940120000000  0.4971810000000 1.0
C      1  0.5817080000000  0.4617540000000  0.4862650000000 1.0
C      1  0.5718830000000  0.5053240000000  0.4664830000000 1.0
C      1  0.5524320000000  0.5125490000000  0.5844440000000 1.0
C      1  0.5299170000000  0.4538450000000  0.4537540000000 1.0
C      1  0.4506130000000  0.5336810000000  0.5764260000000 1.0
C      1  0.4225900000000  0.5421020000000  0.5430930000000 1.0
C      1  0.5019770000000  0.5153980000000  0.5318470000000 1.0
C      1  0.5620850000000  0.5027940000000  0.5036120000000 1.0
C      1  0.5267610000000  0.5107110000000  0.5501650000000 1.0
C      1  0.4931060000000  0.4531850000000  0.4874550000000 1.0
C      1  0.5122550000000  0.4204660000000  0.5188630000000 1.0
C      1  0.5606910000000  0.4433320000000  0.4920560000000 1.0
C      1  0.4741590000000  0.5029350000000  0.4088260000000 1.0
C      1  0.4527340000000  0.4597890000000  0.4251600000000 1.0
END
