TITL C-950533-5798-210 -4.15166929504935e-06 125000 -1093.63252589189 0 0 174 (C1) n - 1
REM
REM in /home/bkarasulu/work/CARBON/AIRSS/Generating-Clusters/EDIP-Nigel-Params/with-SteepDescent/Only-C1/SD-CG/HFTN-CG
REM
REM
REM
REM
REM
REM ./C.cell (11c1c37f851c82e70ff6c80c92926a4b)
REM
REM compiler GCC version 9.2.1 20190827 (Red Hat 9.2.1-1)
REM options -cpp -mtune=generic -march=x86-64 -g -O0 -fpre-include=/usr/include/finclude/math-vector-fortran.h
REM seed -1566029624 -926445527 -130560230 -1722579893 -1434612422 -509472986 -1850867352 429407954 -1642065789 -2028366238 550699740 1955899645 1604422474 -1249038308 527156978 1227038757 1451902226 1844676471 1935308407 468672463 -262566635 438554925 -223562747 -2014120517 -2080361501 373421227 1057722582 -1603094960 1293343223 723746892 -503504521 256519961 783828265
REM
CELL 1.54180   50.00000   50.00000   50.00000   90.00000   90.00000   90.00000
LATT -1
SFAC C  
C      1  0.4036690000000  0.5282380000000  0.5079050000000 1.0
C      1  0.5187190000000  0.4945760000000  0.4866740000000 1.0
C      1  0.4680010000000  0.5431640000000  0.5420160000000 1.0
C      1  0.4671180000000  0.4659720000000  0.4183030000000 1.0
C      1  0.4721970000000  0.5052630000000  0.5711130000000 1.0
C      1  0.5757690000000  0.5697890000000  0.4670510000000 1.0
C      1  0.5226930000000  0.4247400000000  0.4073850000000 1.0
C      1  0.4358060000000  0.4460750000000  0.5180750000000 1.0
C      1  0.4639740000000  0.4450500000000  0.5319090000000 1.0
C      1  0.5837310000000  0.5423650000000  0.4549090000000 1.0
C      1  0.4629200000000  0.4231600000000  0.5519440000000 1.0
C      1  0.5092600000000  0.4061610000000  0.5558660000000 1.0
C      1  0.3996690000000  0.5488660000000  0.5272710000000 1.0
C      1  0.5577200000000  0.4576730000000  0.4938590000000 1.0
C      1  0.5836950000000  0.4593490000000  0.5453900000000 1.0
C      1  0.5305120000000  0.4833920000000  0.4601290000000 1.0
C      1  0.5517300000000  0.5567580000000  0.4158880000000 1.0
C      1  0.4143310000000  0.4385040000000  0.5360850000000 1.0
C      1  0.5491820000000  0.4612440000000  0.4148090000000 1.0
C      1  0.4329090000000  0.5754770000000  0.5029090000000 1.0
C      1  0.4652220000000  0.5974940000000  0.4712050000000 1.0
C      1  0.4685860000000  0.4937370000000  0.3782810000000 1.0
C      1  0.4070330000000  0.5070450000000  0.4515260000000 1.0
C      1  0.5492980000000  0.5769760000000  0.4552370000000 1.0
C      1  0.4475230000000  0.5138650000000  0.5871240000000 1.0
C      1  0.4809440000000  0.5139220000000  0.6203260000000 1.0
C      1  0.4531450000000  0.5147670000000  0.3911350000000 1.0
C      1  0.4718360000000  0.5078340000000  0.4520870000000 1.0
C      1  0.5327070000000  0.3961050000000  0.5075820000000 1.0
C      1  0.5657790000000  0.5045410000000  0.4830410000000 1.0
C      1  0.4948630000000  0.5032300000000  0.3856990000000 1.0
C      1  0.4284990000000  0.4622110000000  0.4402620000000 1.0
C      1  0.5763890000000  0.4170730000000  0.5179110000000 1.0
C      1  0.5243910000000  0.4686910000000  0.4018410000000 1.0
C      1  0.5368960000000  0.5335810000000  0.5140230000000 1.0
C      1  0.4844960000000  0.4362310000000  0.5114280000000 1.0
C      1  0.5143900000000  0.3954540000000  0.4812490000000 1.0
C      1  0.5611260000000  0.4167590000000  0.5427940000000 1.0
C      1  0.5092320000000  0.4931570000000  0.4097530000000 1.0
C      1  0.4882110000000  0.4580890000000  0.4564440000000 1.0
C      1  0.4854880000000  0.4278480000000  0.5976050000000 1.0
C      1  0.5266200000000  0.6139310000000  0.4998520000000 1.0
C      1  0.5580910000000  0.4178310000000  0.4736620000000 1.0
C      1  0.4792760000000  0.5423010000000  0.6176840000000 1.0
C      1  0.4198270000000  0.5212280000000  0.4291900000000 1.0
C      1  0.4696550000000  0.4093290000000  0.4615420000000 1.0
C      1  0.4408300000000  0.4785510000000  0.4791940000000 1.0
C      1  0.5192920000000  0.4389430000000  0.5274340000000 1.0
C      1  0.4683630000000  0.4384010000000  0.4231310000000 1.0
C      1  0.5306370000000  0.5150890000000  0.4176530000000 1.0
C      1  0.5399560000000  0.5669550000000  0.5551160000000 1.0
C      1  0.5938500000000  0.4439300000000  0.4973550000000 1.0
C      1  0.4522360000000  0.5851450000000  0.5544490000000 1.0
C      1  0.5099860000000  0.4460170000000  0.3935130000000 1.0
C      1  0.4840420000000  0.5529480000000  0.5190430000000 1.0
C      1  0.4529980000000  0.5603220000000  0.4318520000000 1.0
C      1  0.6029310000000  0.5235000000000  0.4704790000000 1.0
C      1  0.4747230000000  0.5341600000000  0.3943170000000 1.0
C      1  0.5502290000000  0.4529910000000  0.5774080000000 1.0
C      1  0.6000610000000  0.5260580000000  0.5003360000000 1.0
C      1  0.4399440000000  0.4760570000000  0.4168780000000 1.0
C      1  0.5047730000000  0.5306150000000  0.5124990000000 1.0
C      1  0.5424040000000  0.5049650000000  0.5040510000000 1.0
C      1  0.5974390000000  0.4768320000000  0.4950970000000 1.0
C      1  0.4398820000000  0.5054630000000  0.4153690000000 1.0
C      1  0.5021750000000  0.4590830000000  0.5712870000000 1.0
C      1  0.4717060000000  0.4077430000000  0.5078600000000 1.0
C      1  0.5683520000000  0.5671460000000  0.4963090000000 1.0
C      1  0.5024360000000  0.5624590000000  0.4225980000000 1.0
C      1  0.5445000000000  0.5506680000000  0.4921290000000 1.0
C      1  0.4965530000000  0.5967410000000  0.4640270000000 1.0
C      1  0.4241650000000  0.5003570000000  0.5743970000000 1.0
C      1  0.5508630000000  0.4319020000000  0.4113080000000 1.0
C      1  0.4846370000000  0.3966510000000  0.4834750000000 1.0
C      1  0.5683860000000  0.4822020000000  0.4229610000000 1.0
C      1  0.4088340000000  0.4622340000000  0.5498360000000 1.0
C      1  0.5541120000000  0.3998150000000  0.4504360000000 1.0
C      1  0.4587460000000  0.4893610000000  0.5489280000000 1.0
C      1  0.3978360000000  0.4862090000000  0.5363990000000 1.0
C      1  0.5147170000000  0.6179210000000  0.4734560000000 1.0
C      1  0.5906010000000  0.4757120000000  0.4421430000000 1.0
C      1  0.4773590000000  0.4689210000000  0.5439130000000 1.0
C      1  0.4294770000000  0.4756570000000  0.5075340000000 1.0
C      1  0.5271080000000  0.4321850000000  0.4766710000000 1.0
C      1  0.5719970000000  0.5358400000000  0.4241820000000 1.0
C      1  0.5601400000000  0.4023720000000  0.4987420000000 1.0
C      1  0.5035730000000  0.5868230000000  0.4373010000000 1.0
C      1  0.5069530000000  0.4728660000000  0.5005500000000 1.0
C      1  0.4617130000000  0.5504910000000  0.4983070000000 1.0
C      1  0.4666700000000  0.5581650000000  0.5973950000000 1.0
C      1  0.4758580000000  0.5543400000000  0.4146270000000 1.0
C      1  0.4461580000000  0.5229200000000  0.4963660000000 1.0
C      1  0.4438680000000  0.4210530000000  0.4998730000000 1.0
C      1  0.4995910000000  0.5868170000000  0.5714720000000 1.0
C      1  0.4173880000000  0.5095000000000  0.5461420000000 1.0
C      1  0.5491430000000  0.4890590000000  0.5295870000000 1.0
C      1  0.5961280000000  0.5002650000000  0.5144550000000 1.0
C      1  0.4841040000000  0.5356720000000  0.4515120000000 1.0
C      1  0.5248090000000  0.3962020000000  0.4513270000000 1.0
C      1  0.5110680000000  0.4183000000000  0.5843070000000 1.0
C      1  0.4823210000000  0.4187810000000  0.4369040000000 1.0
C      1  0.5270900000000  0.5590430000000  0.4704780000000 1.0
C      1  0.4999590000000  0.6236360000000  0.5085350000000 1.0
C      1  0.5905070000000  0.4485570000000  0.4488400000000 1.0
C      1  0.5022450000000  0.5734020000000  0.4820310000000 1.0
C      1  0.5515710000000  0.5820730000000  0.4276780000000 1.0
C      1  0.5666880000000  0.5350060000000  0.5331530000000 1.0
C      1  0.5854820000000  0.5486750000000  0.5136580000000 1.0
C      1  0.5624310000000  0.5488810000000  0.5584680000000 1.0
C      1  0.5138200000000  0.5325310000000  0.4605220000000 1.0
C      1  0.3840250000000  0.5098320000000  0.4973270000000 1.0
C      1  0.5850060000000  0.4325790000000  0.4710330000000 1.0
C      1  0.5053480000000  0.6026390000000  0.5485080000000 1.0
C      1  0.5020090000000  0.5114850000000  0.5344410000000 1.0
C      1  0.5640120000000  0.4651030000000  0.5221200000000 1.0
C      1  0.5043500000000  0.4735500000000  0.5975670000000 1.0
C      1  0.5586590000000  0.5240500000000  0.4602360000000 1.0
C      1  0.4501970000000  0.4531250000000  0.4604210000000 1.0
C      1  0.4204340000000  0.5769370000000  0.4565410000000 1.0
C      1  0.5760480000000  0.5049870000000  0.5375750000000 1.0
C      1  0.5189350000000  0.5464600000000  0.5952640000000 1.0
C      1  0.5035880000000  0.5803690000000  0.5166490000000 1.0
C      1  0.5208910000000  0.5185600000000  0.5940750000000 1.0
C      1  0.4683030000000  0.4397570000000  0.5760420000000 1.0
C      1  0.5994980000000  0.4918600000000  0.4674650000000 1.0
C      1  0.4183410000000  0.5338440000000  0.4834320000000 1.0
C      1  0.5280490000000  0.4502190000000  0.5003680000000 1.0
C      1  0.4405750000000  0.5005770000000  0.5257250000000 1.0
C      1  0.4961020000000  0.5020910000000  0.5964600000000 1.0
C      1  0.5605780000000  0.5092320000000  0.4135000000000 1.0
C      1  0.5330820000000  0.5758040000000  0.5269300000000 1.0
C      1  0.4257550000000  0.4712770000000  0.5720410000000 1.0
C      1  0.4106020000000  0.4792190000000  0.4546830000000 1.0
C      1  0.4864240000000  0.4560280000000  0.6134280000000 1.0
C      1  0.3866510000000  0.5169430000000  0.4685840000000 1.0
C      1  0.5467720000000  0.5090550000000  0.5857180000000 1.0
C      1  0.4458080000000  0.4563010000000  0.5881490000000 1.0
C      1  0.5325540000000  0.5127690000000  0.4477940000000 1.0
C      1  0.5222450000000  0.4654860000000  0.5457290000000 1.0
C      1  0.5574220000000  0.4822250000000  0.5785760000000 1.0
C      1  0.4716110000000  0.5820300000000  0.5787700000000 1.0
C      1  0.5813230000000  0.4853350000000  0.5613740000000 1.0
C      1  0.5015250000000  0.4815920000000  0.5298750000000 1.0
C      1  0.3926430000000  0.4837660000000  0.5076610000000 1.0
C      1  0.4435120000000  0.5540020000000  0.5565430000000 1.0
C      1  0.4453500000000  0.5440470000000  0.5849970000000 1.0
C      1  0.4461560000000  0.4249420000000  0.4707800000000 1.0
C      1  0.5626180000000  0.5312800000000  0.5801080000000 1.0
C      1  0.4860930000000  0.6164460000000  0.5328890000000 1.0
C      1  0.5632030000000  0.4126220000000  0.4273420000000 1.0
C      1  0.5579340000000  0.4781330000000  0.4718210000000 1.0
C      1  0.5698740000000  0.4384710000000  0.5614300000000 1.0
C      1  0.4257160000000  0.5497640000000  0.4298890000000 1.0
C      1  0.5121020000000  0.4202310000000  0.4358060000000 1.0
C      1  0.4646600000000  0.5970270000000  0.5286030000000 1.0
C      1  0.4587900000000  0.5024110000000  0.4776690000000 1.0
C      1  0.4552030000000  0.5008500000000  0.6140050000000 1.0
C      1  0.5321170000000  0.4362850000000  0.5908000000000 1.0
C      1  0.4480750000000  0.5841920000000  0.4493440000000 1.0
C      1  0.4173340000000  0.5639070000000  0.4819890000000 1.0
C      1  0.5195650000000  0.5665250000000  0.5757150000000 1.0
C      1  0.4994870000000  0.5177160000000  0.4846220000000 1.0
C      1  0.4855330000000  0.4843900000000  0.4358450000000 1.0
C      1  0.4540450000000  0.5941060000000  0.5003890000000 1.0
C      1  0.4824200000000  0.4030760000000  0.5438860000000 1.0
C      1  0.4851030000000  0.5245030000000  0.5541750000000 1.0
C      1  0.4781640000000  0.5554350000000  0.4747140000000 1.0
C      1  0.5532510000000  0.5899280000000  0.5104690000000 1.0
C      1  0.4838680000000  0.4592450000000  0.4877050000000 1.0
C      1  0.4583490000000  0.4699410000000  0.6115600000000 1.0
C      1  0.4167990000000  0.5405680000000  0.5478910000000 1.0
C      1  0.5251690000000  0.5453510000000  0.4125150000000 1.0
C      1  0.5314830000000  0.4121570000000  0.5348700000000 1.0
C      1  0.5171190000000  0.4471370000000  0.4523430000000 1.0
END
