TITL C-951335-1172-391 9.15595054285541e-07 125000 -287.027217793749 0 0 48 (C1) n - 1
REM
REM in /home/bkarasulu/work/CARBON/AIRSS/Generating-Clusters/EDIP-Nigel-Params/with-SteepDescent/Only-C1/SD-CG/HFTN-CG
REM
REM
REM
REM
REM
REM ./C.cell (11c1c37f851c82e70ff6c80c92926a4b)
REM
REM compiler GCC version 9.2.1 20190827 (Red Hat 9.2.1-1)
REM options -cpp -mtune=generic -march=x86-64 -g -O0 -fpre-include=/usr/include/finclude/math-vector-fortran.h
REM seed -1720109113 389685739 779157292 992584839 -1405325007 -875662794 -23047458 468212151 508794967 919247734 978279531 2016276776 -709579615 1935794571 -108716574 -72289435 -359650786 -1367336316 -1018797205 1916531981 793593524 1208423924 -385216901 587279957 -1107114030 -406646606 1339574798 1726560061 124177479 -1116909964 1168003277 -123467502 -488347572
REM
CELL 1.54180   50.00000   50.00000   50.00000   90.00000   90.00000   90.00000
LATT -1
SFAC C  
C      1  0.5427140000000  0.5421480000000  0.4921810000000 1.0
C      1  0.5227350000000  0.4925950000000  0.5694000000000 1.0
C      1  0.5031850000000  0.4810600000000  0.4514080000000 1.0
C      1  0.5602760000000  0.4838890000000  0.4675590000000 1.0
C      1  0.4776540000000  0.5501160000000  0.4695050000000 1.0
C      1  0.5501870000000  0.4982460000000  0.5129380000000 1.0
C      1  0.5500600000000  0.5076510000000  0.4533230000000 1.0
C      1  0.5132110000000  0.4851790000000  0.4818570000000 1.0
C      1  0.4676890000000  0.4613300000000  0.4911420000000 1.0
C      1  0.4315490000000  0.5022410000000  0.5114160000000 1.0
C      1  0.4907600000000  0.4618500000000  0.5667080000000 1.0
C      1  0.4525000000000  0.4793610000000  0.4480760000000 1.0
C      1  0.5049580000000  0.5613960000000  0.4642030000000 1.0
C      1  0.5222640000000  0.5035200000000  0.4429330000000 1.0
C      1  0.5527880000000  0.4405810000000  0.4713110000000 1.0
C      1  0.5199640000000  0.5210870000000  0.5659710000000 1.0
C      1  0.4964070000000  0.4438270000000  0.5225410000000 1.0
C      1  0.5400890000000  0.4425510000000  0.4959210000000 1.0
C      1  0.4973340000000  0.5551640000000  0.5092040000000 1.0
C      1  0.5071040000000  0.4967360000000  0.5258160000000 1.0
C      1  0.5181200000000  0.5524300000000  0.4408530000000 1.0
C      1  0.5113970000000  0.4517390000000  0.5471190000000 1.0
C      1  0.5534520000000  0.5314500000000  0.4683410000000 1.0
C      1  0.4993590000000  0.5041400000000  0.4997640000000 1.0
C      1  0.5424690000000  0.4798170000000  0.4910910000000 1.0
C      1  0.4709610000000  0.4591980000000  0.5211940000000 1.0
C      1  0.4711730000000  0.5591640000000  0.4974230000000 1.0
C      1  0.5065380000000  0.5270970000000  0.4363130000000 1.0
C      1  0.4483530000000  0.4762970000000  0.4754940000000 1.0
C      1  0.4786300000000  0.5224420000000  0.4425150000000 1.0
C      1  0.5189380000000  0.5594150000000  0.4900250000000 1.0
C      1  0.4531090000000  0.4937630000000  0.5587230000000 1.0
C      1  0.5029790000000  0.5508750000000  0.5377940000000 1.0
C      1  0.4852910000000  0.5336890000000  0.5543860000000 1.0
C      1  0.4682790000000  0.4714220000000  0.5493950000000 1.0
C      1  0.4644910000000  0.5153690000000  0.5442680000000 1.0
C      1  0.5291050000000  0.5371840000000  0.5426060000000 1.0
C      1  0.5438190000000  0.5260400000000  0.5171000000000 1.0
C      1  0.4922950000000  0.4534470000000  0.4764880000000 1.0
C      1  0.4743370000000  0.5208980000000  0.4948270000000 1.0
C      1  0.5111210000000  0.4437510000000  0.4971660000000 1.0
C      1  0.4540340000000  0.5179570000000  0.5171530000000 1.0
C      1  0.4765350000000  0.4938090000000  0.4458440000000 1.0
C      1  0.4257700000000  0.4893150000000  0.4876340000000 1.0
C      1  0.4076630000000  0.4999750000000  0.4714400000000 1.0
C      1  0.5029390000000  0.4797410000000  0.5852530000000 1.0
C      1  0.5618170000000  0.4592860000000  0.4537370000000 1.0
C      1  0.5235990000000  0.4797640000000  0.5426420000000 1.0
END
