TITL C-950522-5749-58 9.6119610629398e-05 125000 -1245.38015078348 0 0 199 (C1) n - 1
REM
REM in /home/bkarasulu/work/CARBON/AIRSS/Generating-Clusters/EDIP-Nigel-Params/with-SteepDescent/Only-C1/SD-CG/HFTN-CG
REM
REM
REM
REM
REM
REM ./C.cell (11c1c37f851c82e70ff6c80c92926a4b)
REM
REM compiler GCC version 9.2.1 20190827 (Red Hat 9.2.1-1)
REM options -cpp -mtune=generic -march=x86-64 -g -O0 -fpre-include=/usr/include/finclude/math-vector-fortran.h
REM seed -1900724758 1898157233 1565571942 -1339865403 769086714 -929356911 -162549617 -2130209368 1779195095 -1099044701 -1744541159 32275413 -917451695 -988669425 2054330052 1048468951 508383526 -2102526973 -15253953 1530871233 -539197599 -2052309070 1837879602 -1250261772 -1522674599 -143550507 -937671451 -1879507602 794791081 233543678 -1405143815 1713100416 -732550062
REM
CELL 1.54180   50.00000   50.00000   50.00000   90.00000   90.00000   90.00000
LATT -1
SFAC C  
C      1  0.5276120000000  0.5494520000000  0.5848360000000 1.0
C      1  0.5009110000000  0.5061820000000  0.5306940000000 1.0
C      1  0.4731330000000  0.4921140000000  0.3857780000000 1.0
C      1  0.4472420000000  0.5579870000000  0.4344150000000 1.0
C      1  0.4030600000000  0.5001350000000  0.4613060000000 1.0
C      1  0.5624240000000  0.4952160000000  0.5498950000000 1.0
C      1  0.5369730000000  0.6203000000000  0.5204270000000 1.0
C      1  0.5616830000000  0.5112840000000  0.4983010000000 1.0
C      1  0.5474730000000  0.5004710000000  0.5244000000000 1.0
C      1  0.5173510000000  0.4945390000000  0.5756440000000 1.0
C      1  0.4685480000000  0.5397710000000  0.5378590000000 1.0
C      1  0.4638080000000  0.5137730000000  0.5975960000000 1.0
C      1  0.5179200000000  0.4435330000000  0.5602210000000 1.0
C      1  0.5113490000000  0.5387340000000  0.3978460000000 1.0
C      1  0.4695680000000  0.5688500000000  0.4890490000000 1.0
C      1  0.5588850000000  0.5759360000000  0.4853650000000 1.0
C      1  0.5392040000000  0.4214540000000  0.4173240000000 1.0
C      1  0.4626890000000  0.4412460000000  0.4117610000000 1.0
C      1  0.4683840000000  0.4108590000000  0.5680210000000 1.0
C      1  0.4330420000000  0.4186890000000  0.4470620000000 1.0
C      1  0.5057190000000  0.4928420000000  0.4804530000000 1.0
C      1  0.5417620000000  0.5667610000000  0.5110420000000 1.0
C      1  0.5807730000000  0.4456870000000  0.4697570000000 1.0
C      1  0.5373230000000  0.4680010000000  0.5551950000000 1.0
C      1  0.5751630000000  0.5413490000000  0.5971310000000 1.0
C      1  0.4745840000000  0.5594130000000  0.4242030000000 1.0
C      1  0.4777960000000  0.4845050000000  0.4841090000000 1.0
C      1  0.5698170000000  0.4171430000000  0.4821430000000 1.0
C      1  0.6176170000000  0.4901550000000  0.5157110000000 1.0
C      1  0.5907110000000  0.4702270000000  0.5833260000000 1.0
C      1  0.5596030000000  0.6009960000000  0.5150840000000 1.0
C      1  0.5945270000000  0.4979320000000  0.5833670000000 1.0
C      1  0.5155340000000  0.4894060000000  0.4534230000000 1.0
C      1  0.5155250000000  0.4236950000000  0.4778280000000 1.0
C      1  0.4990110000000  0.4486010000000  0.6056950000000 1.0
C      1  0.5176300000000  0.5861000000000  0.4197100000000 1.0
C      1  0.5433490000000  0.4968690000000  0.4573540000000 1.0
C      1  0.5449710000000  0.5822560000000  0.4342110000000 1.0
C      1  0.4686250000000  0.5376010000000  0.4734490000000 1.0
C      1  0.4493040000000  0.4326320000000  0.5659420000000 1.0
C      1  0.5084110000000  0.5651810000000  0.4615580000000 1.0
C      1  0.4920900000000  0.4555330000000  0.5470830000000 1.0
C      1  0.5378300000000  0.5492660000000  0.5372020000000 1.0
C      1  0.4767460000000  0.6009010000000  0.5634960000000 1.0
C      1  0.3966410000000  0.4718340000000  0.4942850000000 1.0
C      1  0.5491030000000  0.4535260000000  0.5065470000000 1.0
C      1  0.5088520000000  0.4934140000000  0.6034040000000 1.0
C      1  0.4575990000000  0.4954310000000  0.5582990000000 1.0
C      1  0.5968090000000  0.4491250000000  0.5332530000000 1.0
C      1  0.5325650000000  0.4651560000000  0.4174630000000 1.0
C      1  0.5178270000000  0.6320840000000  0.5022690000000 1.0
C      1  0.5533050000000  0.4025640000000  0.4617900000000 1.0
C      1  0.5499930000000  0.4790420000000  0.6057550000000 1.0
C      1  0.4666740000000  0.5906550000000  0.4571480000000 1.0
C      1  0.4154740000000  0.4711400000000  0.5480680000000 1.0
C      1  0.4376790000000  0.5231170000000  0.4042390000000 1.0
C      1  0.4774570000000  0.4190600000000  0.4472310000000 1.0
C      1  0.5396540000000  0.5682990000000  0.4601120000000 1.0
C      1  0.4191810000000  0.5078770000000  0.5757890000000 1.0
C      1  0.6050400000000  0.4562180000000  0.4851680000000 1.0
C      1  0.5005980000000  0.4068310000000  0.4336770000000 1.0
C      1  0.6233950000000  0.4967850000000  0.4873410000000 1.0
C      1  0.4750140000000  0.4014220000000  0.5087160000000 1.0
C      1  0.5209040000000  0.4407280000000  0.5898520000000 1.0
C      1  0.3835830000000  0.4770670000000  0.4590480000000 1.0
C      1  0.5635460000000  0.5451950000000  0.5504970000000 1.0
C      1  0.5995820000000  0.5286550000000  0.4512030000000 1.0
C      1  0.4652980000000  0.4846540000000  0.5998910000000 1.0
C      1  0.4083310000000  0.5444490000000  0.4796630000000 1.0
C      1  0.5154890000000  0.4611100000000  0.4432090000000 1.0
C      1  0.4626200000000  0.4485500000000  0.5427640000000 1.0
C      1  0.4058380000000  0.5297520000000  0.4542160000000 1.0
C      1  0.4216130000000  0.4221480000000  0.5533420000000 1.0
C      1  0.4406410000000  0.4533520000000  0.3980160000000 1.0
C      1  0.3916250000000  0.4978960000000  0.5098280000000 1.0
C      1  0.5536240000000  0.5362280000000  0.5772880000000 1.0
C      1  0.5599260000000  0.4185660000000  0.5381970000000 1.0
C      1  0.6009510000000  0.4665780000000  0.5119120000000 1.0
C      1  0.4517520000000  0.5161090000000  0.4489170000000 1.0
C      1  0.5785210000000  0.4632070000000  0.4415140000000 1.0
C      1  0.5232510000000  0.4874400000000  0.3996540000000 1.0
C      1  0.5487490000000  0.4522860000000  0.5947710000000 1.0
C      1  0.6012140000000  0.5149020000000  0.4786790000000 1.0
C      1  0.5417800000000  0.5196080000000  0.4762490000000 1.0
C      1  0.5018990000000  0.5132680000000  0.4392240000000 1.0
C      1  0.4675830000000  0.5166780000000  0.4952960000000 1.0
C      1  0.3942000000000  0.4919340000000  0.5389040000000 1.0
C      1  0.4894010000000  0.5797330000000  0.5809030000000 1.0
C      1  0.4900570000000  0.3847130000000  0.4704170000000 1.0
C      1  0.3998480000000  0.5162360000000  0.5550530000000 1.0
C      1  0.5943490000000  0.5559510000000  0.4567330000000 1.0
C      1  0.4900420000000  0.4744560000000  0.6102720000000 1.0
C      1  0.3929730000000  0.4481260000000  0.4579080000000 1.0
C      1  0.5230410000000  0.5173800000000  0.4158840000000 1.0
C      1  0.4849150000000  0.4507920000000  0.4488410000000 1.0
C      1  0.5356120000000  0.5216870000000  0.6225040000000 1.0
C      1  0.5674510000000  0.4924380000000  0.3756920000000 1.0
C      1  0.5778930000000  0.4377180000000  0.5501890000000 1.0
C      1  0.4709370000000  0.5677930000000  0.5250210000000 1.0
C      1  0.4555540000000  0.4182040000000  0.4285080000000 1.0
C      1  0.4452780000000  0.4744960000000  0.5385350000000 1.0
C      1  0.5797300000000  0.4915850000000  0.4820340000000 1.0
C      1  0.4867970000000  0.4343740000000  0.4816840000000 1.0
C      1  0.4201000000000  0.4455550000000  0.4445240000000 1.0
C      1  0.5810770000000  0.5144880000000  0.6042220000000 1.0
C      1  0.4184580000000  0.4180180000000  0.4953940000000 1.0
C      1  0.4355500000000  0.5723780000000  0.5597660000000 1.0
C      1  0.5379180000000  0.4113030000000  0.5554780000000 1.0
C      1  0.5393810000000  0.4886420000000  0.3746120000000 1.0
C      1  0.4265490000000  0.4427520000000  0.5101580000000 1.0
C      1  0.4906270000000  0.4467190000000  0.4050910000000 1.0
C      1  0.5487830000000  0.5039020000000  0.5754340000000 1.0
C      1  0.4958910000000  0.4743210000000  0.3941630000000 1.0
C      1  0.5523160000000  0.5324590000000  0.4283070000000 1.0
C      1  0.4694710000000  0.6198130000000  0.4960280000000 1.0
C      1  0.5012640000000  0.4715990000000  0.5233660000000 1.0
C      1  0.4985040000000  0.5796350000000  0.4858420000000 1.0
C      1  0.5158670000000  0.5368890000000  0.6079330000000 1.0
C      1  0.5720270000000  0.4507200000000  0.5759080000000 1.0
C      1  0.4094990000000  0.5803740000000  0.5215450000000 1.0
C      1  0.5601240000000  0.4603980000000  0.4207160000000 1.0
C      1  0.4455230000000  0.4794360000000  0.3837800000000 1.0
C      1  0.4423190000000  0.4839610000000  0.5109410000000 1.0
C      1  0.4875230000000  0.3942270000000  0.5552780000000 1.0
C      1  0.4368380000000  0.4667740000000  0.4614000000000 1.0
C      1  0.6107700000000  0.5383430000000  0.5213110000000 1.0
C      1  0.4550190000000  0.4141980000000  0.5266840000000 1.0
C      1  0.4263840000000  0.5876170000000  0.5008110000000 1.0
C      1  0.4658760000000  0.3955170000000  0.4822480000000 1.0
C      1  0.6095570000000  0.5127400000000  0.5328290000000 1.0
C      1  0.4983150000000  0.5355510000000  0.4637790000000 1.0
C      1  0.5270540000000  0.4148200000000  0.5032060000000 1.0
C      1  0.6231840000000  0.4731400000000  0.4717260000000 1.0
C      1  0.4262900000000  0.4033280000000  0.5286680000000 1.0
C      1  0.3930610000000  0.4347600000000  0.4840170000000 1.0
C      1  0.6067790000000  0.5093880000000  0.5606820000000 1.0
C      1  0.4764850000000  0.3821680000000  0.5312430000000 1.0
C      1  0.5643150000000  0.5886410000000  0.5418420000000 1.0
C      1  0.4248620000000  0.4982450000000  0.3955700000000 1.0
C      1  0.5535270000000  0.4244820000000  0.5084690000000 1.0
C      1  0.4214440000000  0.4779600000000  0.5768430000000 1.0
C      1  0.5575730000000  0.5035250000000  0.6185060000000 1.0
C      1  0.5795820000000  0.5155260000000  0.4334690000000 1.0
C      1  0.4268600000000  0.5679030000000  0.4793880000000 1.0
C      1  0.5132660000000  0.5210570000000  0.4853900000000 1.0
C      1  0.4406930000000  0.5124240000000  0.5092490000000 1.0
C      1  0.4845780000000  0.5352470000000  0.5649320000000 1.0
C      1  0.4268900000000  0.4914670000000  0.4469610000000 1.0
C      1  0.4950840000000  0.6099880000000  0.4805190000000 1.0
C      1  0.4921780000000  0.5790770000000  0.4384430000000 1.0
C      1  0.4835510000000  0.5252490000000  0.5176660000000 1.0
C      1  0.4917580000000  0.5053480000000  0.5591110000000 1.0
C      1  0.5175140000000  0.3927360000000  0.5177120000000 1.0
C      1  0.5475370000000  0.5409200000000  0.4563390000000 1.0
C      1  0.4471770000000  0.5539670000000  0.5792080000000 1.0
C      1  0.4264760000000  0.4670620000000  0.4931990000000 1.0
C      1  0.5138180000000  0.5740500000000  0.5095150000000 1.0
C      1  0.4701930000000  0.5626670000000  0.5956440000000 1.0
C      1  0.5920130000000  0.5366320000000  0.4993680000000 1.0
C      1  0.4989780000000  0.5761180000000  0.5344640000000 1.0
C      1  0.5530710000000  0.5600730000000  0.4140490000000 1.0
C      1  0.4116150000000  0.4441760000000  0.5363570000000 1.0
C      1  0.5267140000000  0.5644620000000  0.3983960000000 1.0
C      1  0.5552570000000  0.4611770000000  0.4794160000000 1.0
C      1  0.4841480000000  0.4599660000000  0.5002450000000 1.0
C      1  0.5811720000000  0.5669220000000  0.5470080000000 1.0
C      1  0.5133190000000  0.4032700000000  0.5435850000000 1.0
C      1  0.4170360000000  0.4554830000000  0.4158010000000 1.0
C      1  0.5522530000000  0.5123780000000  0.3660330000000 1.0
C      1  0.5335200000000  0.4442730000000  0.4616830000000 1.0
C      1  0.4901250000000  0.6360830000000  0.5093890000000 1.0
C      1  0.4136090000000  0.5636730000000  0.5432500000000 1.0
C      1  0.4824170000000  0.5423080000000  0.4016540000000 1.0
C      1  0.4737380000000  0.5064410000000  0.4310770000000 1.0
C      1  0.4672860000000  0.5163350000000  0.4038270000000 1.0
C      1  0.4506580000000  0.6015950000000  0.5102550000000 1.0
C      1  0.4317660000000  0.5334790000000  0.4328340000000 1.0
C      1  0.4090790000000  0.5237450000000  0.5045560000000 1.0
C      1  0.5484960000000  0.4248020000000  0.4442090000000 1.0
C      1  0.4838830000000  0.5361770000000  0.6040910000000 1.0
C      1  0.5145080000000  0.3981370000000  0.4596930000000 1.0
C      1  0.5334290000000  0.4722580000000  0.5238910000000 1.0
C      1  0.5273810000000  0.5202740000000  0.5307210000000 1.0
C      1  0.4664330000000  0.4726640000000  0.4586820000000 1.0
C      1  0.4475670000000  0.4670380000000  0.5843870000000 1.0
C      1  0.4440080000000  0.5218750000000  0.5400520000000 1.0
C      1  0.5720030000000  0.4912980000000  0.4509320000000 1.0
C      1  0.4411580000000  0.5256720000000  0.5843440000000 1.0
C      1  0.5055580000000  0.5583160000000  0.5652070000000 1.0
C      1  0.4140750000000  0.5346420000000  0.5370180000000 1.0
C      1  0.5111330000000  0.4265240000000  0.4155600000000 1.0
C      1  0.4964320000000  0.6127570000000  0.5461700000000 1.0
C      1  0.5379070000000  0.5853420000000  0.5520510000000 1.0
C      1  0.4406760000000  0.4115290000000  0.4746750000000 1.0
C      1  0.5859310000000  0.5615760000000  0.4831620000000 1.0
C      1  0.5249320000000  0.6100810000000  0.5450000000000 1.0
C      1  0.4418930000000  0.5758890000000  0.4555900000000 1.0
C      1  0.4144430000000  0.4842720000000  0.4194390000000 1.0
C      1  0.4521860000000  0.5936050000000  0.5476740000000 1.0
END
