TITL C-951346-9544-264 -2.51984329755655e-06 125000 -356.303732722772 0 0 59 (C1) n - 1
REM
REM in /home/bkarasulu/work/CARBON/AIRSS/Generating-Clusters/EDIP-Nigel-Params/with-SteepDescent/Only-C1/SD-CG/HFTN-CG
REM
REM
REM
REM
REM
REM ./C.cell (11c1c37f851c82e70ff6c80c92926a4b)
REM
REM compiler GCC version 9.2.1 20190827 (Red Hat 9.2.1-1)
REM options -cpp -mtune=generic -march=x86-64 -g -O0 -fpre-include=/usr/include/finclude/math-vector-fortran.h
REM seed 1893791147 -1361372461 -1286357537 -339982982 1119361925 2104459357 -668691253 4899923 -614770493 2039674691 1464947587 -140794264 1249461199 -490876850 -1471869271 -1676606115 1596978019 -2014982691 2144613003 40969178 -1084249433 -289004361 1964184427 1640495067 423695086 1623387244 -1172139789 -302905304 -2008325096 -512581581 -265208905 144790319 -97942863
REM
CELL 1.54180   50.00000   50.00000   50.00000   90.00000   90.00000   90.00000
LATT -1
SFAC C  
C      1  0.5084560000000  0.4504420000000  0.4564360000000 1.0
C      1  0.4940630000000  0.5166020000000  0.4814960000000 1.0
C      1  0.4821520000000  0.5262820000000  0.4557270000000 1.0
C      1  0.5425650000000  0.5653370000000  0.4795830000000 1.0
C      1  0.4505450000000  0.5670990000000  0.5081430000000 1.0
C      1  0.4865640000000  0.4664620000000  0.4694770000000 1.0
C      1  0.5241290000000  0.5253650000000  0.4324760000000 1.0
C      1  0.4993790000000  0.4560960000000  0.5254800000000 1.0
C      1  0.4419570000000  0.4751360000000  0.5342440000000 1.0
C      1  0.5220060000000  0.5462860000000  0.4655100000000 1.0
C      1  0.5184200000000  0.4724170000000  0.5685550000000 1.0
C      1  0.4907280000000  0.5481020000000  0.5512270000000 1.0
C      1  0.5427260000000  0.4568230000000  0.4919530000000 1.0
C      1  0.5259890000000  0.4646550000000  0.5380700000000 1.0
C      1  0.5261360000000  0.5661500000000  0.5044870000000 1.0
C      1  0.5738930000000  0.4631520000000  0.5253620000000 1.0
C      1  0.4431570000000  0.5439760000000  0.5229130000000 1.0
C      1  0.4744790000000  0.4931020000000  0.5699730000000 1.0
C      1  0.5612650000000  0.5410680000000  0.4820300000000 1.0
C      1  0.5721520000000  0.4764440000000  0.4785730000000 1.0
C      1  0.4651170000000  0.4942350000000  0.5322810000000 1.0
C      1  0.4389850000000  0.5186590000000  0.4787820000000 1.0
C      1  0.4890450000000  0.4676590000000  0.5702470000000 1.0
C      1  0.4214540000000  0.4787140000000  0.5144690000000 1.0
C      1  0.4530320000000  0.4483890000000  0.5381410000000 1.0
C      1  0.4753650000000  0.4433580000000  0.4857060000000 1.0
C      1  0.4805040000000  0.5022160000000  0.4380420000000 1.0
C      1  0.5215430000000  0.5367580000000  0.5494130000000 1.0
C      1  0.4962100000000  0.5236980000000  0.5294740000000 1.0
C      1  0.5484110000000  0.4516330000000  0.5215720000000 1.0
C      1  0.5265590000000  0.5075490000000  0.5571690000000 1.0
C      1  0.4994810000000  0.4881800000000  0.4886980000000 1.0
C      1  0.5370080000000  0.5474530000000  0.5248370000000 1.0
C      1  0.4510700000000  0.4477270000000  0.5006480000000 1.0
C      1  0.5023750000000  0.5448400000000  0.4425790000000 1.0
C      1  0.4557470000000  0.5389010000000  0.4645200000000 1.0
C      1  0.5443860000000  0.4811470000000  0.4355670000000 1.0
C      1  0.4611100000000  0.5647690000000  0.4804830000000 1.0
C      1  0.5098660000000  0.4981910000000  0.4295920000000 1.0
C      1  0.5524620000000  0.5294660000000  0.5080570000000 1.0
C      1  0.5218870000000  0.4382400000000  0.4808830000000 1.0
C      1  0.5305890000000  0.4858170000000  0.4887660000000 1.0
C      1  0.4313140000000  0.5259270000000  0.5049250000000 1.0
C      1  0.4811280000000  0.4476850000000  0.5480300000000 1.0
C      1  0.4464730000000  0.4903370000000  0.4738540000000 1.0
C      1  0.4892220000000  0.4824770000000  0.5164280000000 1.0
C      1  0.4879280000000  0.5645060000000  0.4972620000000 1.0
C      1  0.4660320000000  0.4808470000000  0.4528650000000 1.0
C      1  0.5534550000000  0.5240990000000  0.4573930000000 1.0
C      1  0.5004920000000  0.5365840000000  0.5021670000000 1.0
C      1  0.4995690000000  0.4357720000000  0.5014480000000 1.0
C      1  0.5552480000000  0.4937340000000  0.4593500000000 1.0
C      1  0.5737080000000  0.4846830000000  0.5070540000000 1.0
C      1  0.4552880000000  0.5134250000000  0.5637610000000 1.0
C      1  0.4625900000000  0.5352500000000  0.5452260000000 1.0
C      1  0.5289010000000  0.4938500000000  0.5322730000000 1.0
C      1  0.5476480000000  0.5002420000000  0.5102800000000 1.0
C      1  0.4344200000000  0.4695950000000  0.4911020000000 1.0
C      1  0.5236150000000  0.4623920000000  0.4349400000000 1.0
END
