TITL C-950529-3362-474 -5.51839881456568e-06 125000 -1234.25752062971 0 0 196 (C1) n - 1
REM
REM in /home/bkarasulu/work/CARBON/AIRSS/Generating-Clusters/EDIP-Nigel-Params/with-SteepDescent/Only-C1/SD-CG/HFTN-CG
REM
REM
REM
REM
REM
REM ./C.cell (11c1c37f851c82e70ff6c80c92926a4b)
REM
REM compiler GCC version 9.2.1 20190827 (Red Hat 9.2.1-1)
REM options -cpp -mtune=generic -march=x86-64 -g -O0 -fpre-include=/usr/include/finclude/math-vector-fortran.h
REM seed 725446759 -675967420 2060830560 -756319056 617266995 868172509 -2092353710 1155301343 186283602 -1693873641 -1241447564 -1282512970 840232402 213566681 94662604 -1931981281 -763602464 -714662575 -634587753 -1996098214 -1464140957 -667251568 -1274503700 559625780 -110590607 1678504317 -931775960 723880843 -1584329414 114492044 -1469915392 1033438778 -1887574913
REM
CELL 1.54180   50.00000   50.00000   50.00000   90.00000   90.00000   90.00000
LATT -1
SFAC C  
C      1  0.4797790000000  0.4124240000000  0.5510260000000 1.0
C      1  0.4498230000000  0.5484650000000  0.5791690000000 1.0
C      1  0.4211570000000  0.5907480000000  0.4914030000000 1.0
C      1  0.5414550000000  0.5149670000000  0.4039910000000 1.0
C      1  0.5660180000000  0.5064890000000  0.4151830000000 1.0
C      1  0.5558850000000  0.4602040000000  0.4006680000000 1.0
C      1  0.5541310000000  0.4375840000000  0.6063530000000 1.0
C      1  0.4675630000000  0.4746270000000  0.5892740000000 1.0
C      1  0.6177710000000  0.5251360000000  0.5144630000000 1.0
C      1  0.5408100000000  0.5110540000000  0.5439410000000 1.0
C      1  0.4241840000000  0.5569020000000  0.4450320000000 1.0
C      1  0.4651790000000  0.5704340000000  0.4167060000000 1.0
C      1  0.5621060000000  0.4162910000000  0.4482520000000 1.0
C      1  0.4381870000000  0.5684970000000  0.5342230000000 1.0
C      1  0.4363110000000  0.4697200000000  0.4831080000000 1.0
C      1  0.4150290000000  0.4628800000000  0.5475900000000 1.0
C      1  0.4663130000000  0.5134030000000  0.3970890000000 1.0
C      1  0.4785090000000  0.5091620000000  0.5557720000000 1.0
C      1  0.4795220000000  0.4601130000000  0.4602630000000 1.0
C      1  0.6065370000000  0.5248570000000  0.5629640000000 1.0
C      1  0.4787380000000  0.6188240000000  0.5125160000000 1.0
C      1  0.5468080000000  0.3901170000000  0.5320030000000 1.0
C      1  0.5131530000000  0.3759330000000  0.4764090000000 1.0
C      1  0.5418000000000  0.5681820000000  0.5236480000000 1.0
C      1  0.4552550000000  0.4924210000000  0.5688590000000 1.0
C      1  0.5123950000000  0.4269980000000  0.5132290000000 1.0
C      1  0.5344880000000  0.4058170000000  0.4406570000000 1.0
C      1  0.4428650000000  0.4772160000000  0.5457230000000 1.0
C      1  0.4661970000000  0.4824820000000  0.4444870000000 1.0
C      1  0.5679580000000  0.4454640000000  0.5830120000000 1.0
C      1  0.4121390000000  0.5452150000000  0.4993600000000 1.0
C      1  0.6123130000000  0.5105850000000  0.5394130000000 1.0
C      1  0.5641950000000  0.5730690000000  0.5695540000000 1.0
C      1  0.5153020000000  0.5994250000000  0.4380110000000 1.0
C      1  0.4502800000000  0.5997100000000  0.4553270000000 1.0
C      1  0.5336830000000  0.3649610000000  0.4926710000000 1.0
C      1  0.4430960000000  0.4360560000000  0.5689150000000 1.0
C      1  0.5601660000000  0.4978980000000  0.4999790000000 1.0
C      1  0.4191900000000  0.4240230000000  0.5096380000000 1.0
C      1  0.4921810000000  0.5221750000000  0.4087480000000 1.0
C      1  0.5498490000000  0.5097790000000  0.6038500000000 1.0
C      1  0.4929310000000  0.5641070000000  0.5266990000000 1.0
C      1  0.4600390000000  0.5536940000000  0.4991360000000 1.0
C      1  0.4967440000000  0.3803190000000  0.5173680000000 1.0
C      1  0.5700390000000  0.4463180000000  0.5363470000000 1.0
C      1  0.4330330000000  0.5075430000000  0.5829810000000 1.0
C      1  0.5248570000000  0.4702360000000  0.5884550000000 1.0
C      1  0.5565010000000  0.4459240000000  0.4476760000000 1.0
C      1  0.5792670000000  0.4110590000000  0.4989470000000 1.0
C      1  0.6161240000000  0.5531230000000  0.5198560000000 1.0
C      1  0.6108620000000  0.4538380000000  0.4743420000000 1.0
C      1  0.4025550000000  0.4555250000000  0.4590570000000 1.0
C      1  0.4991530000000  0.4724930000000  0.4785820000000 1.0
C      1  0.4540820000000  0.5344710000000  0.5236340000000 1.0
C      1  0.5630370000000  0.5466390000000  0.5825820000000 1.0
C      1  0.4075870000000  0.4475110000000  0.5220570000000 1.0
C      1  0.4573500000000  0.5897600000000  0.5439560000000 1.0
C      1  0.5425170000000  0.5922900000000  0.4784510000000 1.0
C      1  0.3904240000000  0.5418950000000  0.4784550000000 1.0
C      1  0.5816630000000  0.5261770000000  0.4283480000000 1.0
C      1  0.5566690000000  0.5198130000000  0.5199220000000 1.0
C      1  0.4666470000000  0.4174530000000  0.5020360000000 1.0
C      1  0.5844980000000  0.5260270000000  0.5805560000000 1.0
C      1  0.6048200000000  0.5190870000000  0.4417990000000 1.0
C      1  0.4913200000000  0.5695160000000  0.4017610000000 1.0
C      1  0.4351310000000  0.6108680000000  0.5054050000000 1.0
C      1  0.5290590000000  0.6048710000000  0.5225830000000 1.0
C      1  0.5935480000000  0.4588520000000  0.4952300000000 1.0
C      1  0.5266340000000  0.4925440000000  0.6060030000000 1.0
C      1  0.5350110000000  0.5021910000000  0.4705010000000 1.0
C      1  0.5265710000000  0.5579920000000  0.4845920000000 1.0
C      1  0.5238510000000  0.4225470000000  0.4180200000000 1.0
C      1  0.3970940000000  0.4867850000000  0.5504730000000 1.0
C      1  0.4541780000000  0.6134680000000  0.5263990000000 1.0
C      1  0.5422610000000  0.4820980000000  0.5565340000000 1.0
C      1  0.5003190000000  0.5948370000000  0.5142900000000 1.0
C      1  0.3949950000000  0.4854970000000  0.4604190000000 1.0
C      1  0.5746290000000  0.5002320000000  0.5908490000000 1.0
C      1  0.5237000000000  0.4752040000000  0.4642770000000 1.0
C      1  0.5787610000000  0.4669970000000  0.4414350000000 1.0
C      1  0.5273620000000  0.4440660000000  0.6003780000000 1.0
C      1  0.5094300000000  0.4735380000000  0.4159990000000 1.0
C      1  0.4820960000000  0.4430160000000  0.3956930000000 1.0
C      1  0.4862470000000  0.3740700000000  0.4900050000000 1.0
C      1  0.5424370000000  0.4618410000000  0.5328010000000 1.0
C      1  0.4164330000000  0.4454270000000  0.5709260000000 1.0
C      1  0.4661770000000  0.3968590000000  0.4794770000000 1.0
C      1  0.5423000000000  0.5379490000000  0.6015270000000 1.0
C      1  0.5227720000000  0.4278250000000  0.4848800000000 1.0
C      1  0.5676650000000  0.5508260000000  0.5160830000000 1.0
C      1  0.5496590000000  0.6058830000000  0.5018610000000 1.0
C      1  0.4353570000000  0.5069690000000  0.5220940000000 1.0
C      1  0.5398120000000  0.4520910000000  0.4749660000000 1.0
C      1  0.4728270000000  0.6107450000000  0.4828490000000 1.0
C      1  0.4531490000000  0.5174050000000  0.4695890000000 1.0
C      1  0.5665490000000  0.4269940000000  0.5593410000000 1.0
C      1  0.5398560000000  0.4754570000000  0.5054830000000 1.0
C      1  0.5153260000000  0.4046850000000  0.4650960000000 1.0
C      1  0.5389000000000  0.4496650000000  0.4215320000000 1.0
C      1  0.5690690000000  0.4750940000000  0.5727220000000 1.0
C      1  0.4947390000000  0.5891220000000  0.4838890000000 1.0
C      1  0.4029910000000  0.5073850000000  0.4425510000000 1.0
C      1  0.5106370000000  0.5845730000000  0.5945620000000 1.0
C      1  0.4948530000000  0.5115370000000  0.5030890000000 1.0
C      1  0.4311870000000  0.4692540000000  0.4205790000000 1.0
C      1  0.5895260000000  0.4872030000000  0.5036140000000 1.0
C      1  0.5154020000000  0.5513680000000  0.4472320000000 1.0
C      1  0.5834230000000  0.5639440000000  0.4914540000000 1.0
C      1  0.4645730000000  0.4670380000000  0.5248370000000 1.0
C      1  0.5913300000000  0.5550230000000  0.5343000000000 1.0
C      1  0.4440230000000  0.5496280000000  0.4241620000000 1.0
C      1  0.5471170000000  0.4049540000000  0.5570820000000 1.0
C      1  0.5077740000000  0.4836090000000  0.5059230000000 1.0
C      1  0.4516850000000  0.4859530000000  0.5036580000000 1.0
C      1  0.4972560000000  0.5279570000000  0.5695790000000 1.0
C      1  0.4865770000000  0.5503580000000  0.4556830000000 1.0
C      1  0.4438750000000  0.4241240000000  0.4420590000000 1.0
C      1  0.4601530000000  0.4674700000000  0.4166230000000 1.0
C      1  0.5209940000000  0.5316040000000  0.5500420000000 1.0
C      1  0.5119530000000  0.5367660000000  0.6050390000000 1.0
C      1  0.5961590000000  0.5886810000000  0.4971170000000 1.0
C      1  0.4728990000000  0.5259070000000  0.4485950000000 1.0
C      1  0.3765350000000  0.4923780000000  0.5286050000000 1.0
C      1  0.5768550000000  0.6048470000000  0.5073260000000 1.0
C      1  0.4798370000000  0.5541380000000  0.5746990000000 1.0
C      1  0.5124490000000  0.4227110000000  0.5873890000000 1.0
C      1  0.4931150000000  0.4301380000000  0.4193580000000 1.0
C      1  0.4389820000000  0.4904540000000  0.4586220000000 1.0
C      1  0.6065970000000  0.5083930000000  0.4907910000000 1.0
C      1  0.5119590000000  0.5873480000000  0.5668310000000 1.0
C      1  0.5869110000000  0.4682920000000  0.5494850000000 1.0
C      1  0.4956250000000  0.5064760000000  0.4507110000000 1.0
C      1  0.4382640000000  0.4074510000000  0.4658650000000 1.0
C      1  0.4940390000000  0.4701280000000  0.5288100000000 1.0
C      1  0.5742020000000  0.4071820000000  0.4718130000000 1.0
C      1  0.4260040000000  0.4494390000000  0.4413120000000 1.0
C      1  0.3763950000000  0.5198490000000  0.5189440000000 1.0
C      1  0.5048290000000  0.5445720000000  0.3948290000000 1.0
C      1  0.5725690000000  0.4780250000000  0.4152420000000 1.0
C      1  0.5406940000000  0.5262550000000  0.4454410000000 1.0
C      1  0.4854590000000  0.4059970000000  0.4590990000000 1.0
C      1  0.6121640000000  0.5012150000000  0.4618990000000 1.0
C      1  0.4512680000000  0.4163530000000  0.5491820000000 1.0
C      1  0.5023560000000  0.5074610000000  0.6081500000000 1.0
C      1  0.5176370000000  0.5977650000000  0.4671570000000 1.0
C      1  0.4696570000000  0.5035310000000  0.4898380000000 1.0
C      1  0.5815170000000  0.4376850000000  0.5099910000000 1.0
C      1  0.5189710000000  0.5501590000000  0.5273610000000 1.0
C      1  0.4727880000000  0.4164420000000  0.4359760000000 1.0
C      1  0.5348870000000  0.5424710000000  0.3971830000000 1.0
C      1  0.4152290000000  0.5716850000000  0.5125930000000 1.0
C      1  0.3711560000000  0.5213110000000  0.4893970000000 1.0
C      1  0.5261410000000  0.3736990000000  0.5185970000000 1.0
C      1  0.4811760000000  0.4890230000000  0.6091250000000 1.0
C      1  0.6045520000000  0.4729360000000  0.4547800000000 1.0
C      1  0.5945220000000  0.4894980000000  0.5323050000000 1.0
C      1  0.4313820000000  0.5515760000000  0.5567000000000 1.0
C      1  0.5151850000000  0.4485160000000  0.5332160000000 1.0
C      1  0.5399870000000  0.5842090000000  0.5534090000000 1.0
C      1  0.4421740000000  0.5220640000000  0.4123070000000 1.0
C      1  0.4976260000000  0.4531930000000  0.4361400000000 1.0
C      1  0.5697030000000  0.3922410000000  0.5166550000000 1.0
C      1  0.4651570000000  0.5960740000000  0.4308880000000 1.0
C      1  0.5498130000000  0.5433070000000  0.4717790000000 1.0
C      1  0.3762680000000  0.4762340000000  0.5033830000000 1.0
C      1  0.4012850000000  0.4625940000000  0.4978030000000 1.0
C      1  0.4899200000000  0.4092630000000  0.5217930000000 1.0
C      1  0.4890190000000  0.4305060000000  0.5723980000000 1.0
C      1  0.4662280000000  0.4451270000000  0.5846130000000 1.0
C      1  0.3742980000000  0.4929720000000  0.4796960000000 1.0
C      1  0.5876850000000  0.5744000000000  0.5544010000000 1.0
C      1  0.4669530000000  0.4843060000000  0.3919560000000 1.0
C      1  0.5468400000000  0.5638550000000  0.4145480000000 1.0
C      1  0.5114300000000  0.5229260000000  0.4795880000000 1.0
C      1  0.4083300000000  0.5349070000000  0.5511930000000 1.0
C      1  0.5711220000000  0.5616010000000  0.4645970000000 1.0
C      1  0.4954030000000  0.5615650000000  0.5989220000000 1.0
C      1  0.4063020000000  0.5250510000000  0.5225180000000 1.0
C      1  0.4858650000000  0.5586970000000  0.4836890000000 1.0
C      1  0.4899850000000  0.6090620000000  0.4302470000000 1.0
C      1  0.5282000000000  0.4018590000000  0.5772850000000 1.0
C      1  0.4217170000000  0.4283340000000  0.4800900000000 1.0
C      1  0.4856230000000  0.5765400000000  0.5535210000000 1.0
C      1  0.4308080000000  0.5802190000000  0.4641390000000 1.0
C      1  0.5681670000000  0.5518830000000  0.4340850000000 1.0
C      1  0.4240330000000  0.4994240000000  0.4231010000000 1.0
C      1  0.4565040000000  0.4448350000000  0.4783630000000 1.0
C      1  0.5110970000000  0.5034520000000  0.4237850000000 1.0
C      1  0.4040030000000  0.5357990000000  0.4527310000000 1.0
C      1  0.4412830000000  0.5299520000000  0.5980200000000 1.0
C      1  0.4940100000000  0.4696060000000  0.3896460000000 1.0
C      1  0.4438880000000  0.4144470000000  0.5207410000000 1.0
C      1  0.5195900000000  0.5723820000000  0.4259040000000 1.0
C      1  0.4388320000000  0.5411680000000  0.4834050000000 1.0
C      1  0.4821910000000  0.5264250000000  0.5294480000000 1.0
C      1  0.4074220000000  0.5101480000000  0.5671260000000 1.0
END
