TITL C-951343-2256-694 -5.31849435779198e-06 125000 -819.733931337207 0 0 131 (C1) n - 1
REM
REM in /home/bkarasulu/work/CARBON/AIRSS/Generating-Clusters/EDIP-Nigel-Params/with-SteepDescent/Only-C1/SD-CG/HFTN-CG
REM
REM
REM
REM
REM
REM ./C.cell (11c1c37f851c82e70ff6c80c92926a4b)
REM
REM compiler GCC version 9.2.1 20190827 (Red Hat 9.2.1-1)
REM options -cpp -mtune=generic -march=x86-64 -g -O0 -fpre-include=/usr/include/finclude/math-vector-fortran.h
REM seed 1349316286 707039830 -290655464 -33307878 -335669830 1385120035 1320238978 -1069794560 -688997840 -31395175 -1418038550 360155922 450515996 -299162623 -1203777952 1471224898 -169570607 1590868169 2073578300 -817509537 -232120116 -1229295063 1319918053 160671076 1306473639 -1494405193 1586969625 -352230972 -642783406 -1428125244 377766879 -220373776 -335047269
REM
CELL 1.54180   50.00000   50.00000   50.00000   90.00000   90.00000   90.00000
LATT -1
SFAC C  
C      1  0.5362020000000  0.4403040000000  0.4404600000000 1.0
C      1  0.5401300000000  0.5917290000000  0.4883860000000 1.0
C      1  0.4777020000000  0.5418960000000  0.5348540000000 1.0
C      1  0.5602410000000  0.4261120000000  0.5542890000000 1.0
C      1  0.5080400000000  0.5506670000000  0.5284640000000 1.0
C      1  0.4146310000000  0.5269250000000  0.4620500000000 1.0
C      1  0.4326560000000  0.4441020000000  0.4940330000000 1.0
C      1  0.4382150000000  0.5678350000000  0.4654020000000 1.0
C      1  0.4138800000000  0.4816620000000  0.4590100000000 1.0
C      1  0.4991210000000  0.4944100000000  0.3851650000000 1.0
C      1  0.5905160000000  0.4974430000000  0.5472240000000 1.0
C      1  0.5266580000000  0.4639710000000  0.5541300000000 1.0
C      1  0.4469930000000  0.4945520000000  0.4989160000000 1.0
C      1  0.5047850000000  0.5326550000000  0.3904210000000 1.0
C      1  0.5680950000000  0.5540020000000  0.5279030000000 1.0
C      1  0.5753230000000  0.5058350000000  0.4753680000000 1.0
C      1  0.4857000000000  0.5986980000000  0.5147860000000 1.0
C      1  0.5306030000000  0.5317330000000  0.5210160000000 1.0
C      1  0.5119880000000  0.6037460000000  0.5221550000000 1.0
C      1  0.5452630000000  0.4798550000000  0.5365650000000 1.0
C      1  0.4994960000000  0.5023310000000  0.5459660000000 1.0
C      1  0.4806990000000  0.5286020000000  0.4917540000000 1.0
C      1  0.4453580000000  0.5542100000000  0.5622400000000 1.0
C      1  0.5368960000000  0.5454170000000  0.5820260000000 1.0
C      1  0.5300430000000  0.4332720000000  0.5586740000000 1.0
C      1  0.5239490000000  0.5362890000000  0.4562790000000 1.0
C      1  0.4995130000000  0.4231890000000  0.5370360000000 1.0
C      1  0.5118210000000  0.4933410000000  0.5039580000000 1.0
C      1  0.5707670000000  0.4511270000000  0.4708730000000 1.0
C      1  0.5697940000000  0.4782550000000  0.5560080000000 1.0
C      1  0.4585320000000  0.4364300000000  0.4560190000000 1.0
C      1  0.4385710000000  0.4585290000000  0.4240940000000 1.0
C      1  0.4660990000000  0.5127440000000  0.4528610000000 1.0
C      1  0.4466830000000  0.4198070000000  0.5087320000000 1.0
C      1  0.5868700000000  0.4419670000000  0.5226510000000 1.0
C      1  0.4281190000000  0.5586890000000  0.5136980000000 1.0
C      1  0.4595600000000  0.5474370000000  0.4161890000000 1.0
C      1  0.4772260000000  0.4368330000000  0.5756420000000 1.0
C      1  0.5645540000000  0.4206170000000  0.5247220000000 1.0
C      1  0.5842830000000  0.5066990000000  0.5208190000000 1.0
C      1  0.4802000000000  0.5961630000000  0.4872110000000 1.0
C      1  0.4763410000000  0.5426090000000  0.4403740000000 1.0
C      1  0.5347340000000  0.5826120000000  0.4620110000000 1.0
C      1  0.5474580000000  0.4327030000000  0.4666070000000 1.0
C      1  0.4584620000000  0.5199620000000  0.4068310000000 1.0
C      1  0.4962720000000  0.4670760000000  0.4252700000000 1.0
C      1  0.5808570000000  0.4498460000000  0.5532390000000 1.0
C      1  0.5250980000000  0.4435880000000  0.5875680000000 1.0
C      1  0.4443790000000  0.5699750000000  0.5371540000000 1.0
C      1  0.5038500000000  0.4511460000000  0.4932460000000 1.0
C      1  0.4955760000000  0.4053990000000  0.5121300000000 1.0
C      1  0.5524380000000  0.5054660000000  0.4273480000000 1.0
C      1  0.5222150000000  0.5445670000000  0.4098240000000 1.0
C      1  0.5018000000000  0.5271250000000  0.5646610000000 1.0
C      1  0.5866000000000  0.4890820000000  0.4977810000000 1.0
C      1  0.5759900000000  0.4615200000000  0.4996120000000 1.0
C      1  0.4232060000000  0.5152980000000  0.5388930000000 1.0
C      1  0.4169480000000  0.5538180000000  0.4546880000000 1.0
C      1  0.5255100000000  0.5642340000000  0.5601710000000 1.0
C      1  0.5085920000000  0.5778690000000  0.4489950000000 1.0
C      1  0.4876610000000  0.4923880000000  0.4638280000000 1.0
C      1  0.5473070000000  0.5567390000000  0.4581110000000 1.0
C      1  0.4736670000000  0.4168290000000  0.4967610000000 1.0
C      1  0.5077790000000  0.4392630000000  0.4360010000000 1.0
C      1  0.5012510000000  0.5100620000000  0.4837810000000 1.0
C      1  0.4786260000000  0.5567160000000  0.5034120000000 1.0
C      1  0.5824890000000  0.5342130000000  0.4853500000000 1.0
C      1  0.5583490000000  0.4883670000000  0.5837000000000 1.0
C      1  0.4203890000000  0.5049900000000  0.4427330000000 1.0
C      1  0.4313330000000  0.4372210000000  0.4647740000000 1.0
C      1  0.4134440000000  0.5327650000000  0.5160690000000 1.0
C      1  0.5782440000000  0.4980080000000  0.4454750000000 1.0
C      1  0.4787690000000  0.4616720000000  0.4759200000000 1.0
C      1  0.5357900000000  0.5910300000000  0.5161220000000 1.0
C      1  0.5107280000000  0.4688040000000  0.5945770000000 1.0
C      1  0.5736950000000  0.4683420000000  0.4455600000000 1.0
C      1  0.4100060000000  0.5169620000000  0.4899660000000 1.0
C      1  0.4627030000000  0.4733970000000  0.4235770000000 1.0
C      1  0.4202800000000  0.4563840000000  0.4459720000000 1.0
C      1  0.5284940000000  0.4926780000000  0.5875550000000 1.0
C      1  0.5479670000000  0.4630160000000  0.5113340000000 1.0
C      1  0.4743970000000  0.4201890000000  0.5532710000000 1.0
C      1  0.4106980000000  0.4634500000000  0.5077700000000 1.0
C      1  0.4347140000000  0.5269800000000  0.5645030000000 1.0
C      1  0.4614210000000  0.5705090000000  0.4476760000000 1.0
C      1  0.4830690000000  0.5869770000000  0.4605490000000 1.0
C      1  0.4755580000000  0.4177950000000  0.4679650000000 1.0
C      1  0.4030460000000  0.4949950000000  0.5447830000000 1.0
C      1  0.5066950000000  0.5502230000000  0.4361200000000 1.0
C      1  0.5459950000000  0.5708600000000  0.5356740000000 1.0
C      1  0.5235980000000  0.5039350000000  0.5278310000000 1.0
C      1  0.5450530000000  0.5035250000000  0.4772140000000 1.0
C      1  0.5390290000000  0.5307760000000  0.4921560000000 1.0
C      1  0.4532780000000  0.5195500000000  0.4810790000000 1.0
C      1  0.5074570000000  0.4883470000000  0.4440540000000 1.0
C      1  0.5316690000000  0.5066900000000  0.4490960000000 1.0
C      1  0.4798640000000  0.5293930000000  0.5860800000000 1.0
C      1  0.5406830000000  0.4348330000000  0.5156000000000 1.0
C      1  0.4052540000000  0.4866770000000  0.4874850000000 1.0
C      1  0.5274050000000  0.4726460000000  0.4917160000000 1.0
C      1  0.4986630000000  0.4716070000000  0.5504480000000 1.0
C      1  0.4464120000000  0.5556460000000  0.4908320000000 1.0
C      1  0.5470120000000  0.5306860000000  0.4134250000000 1.0
C      1  0.4515760000000  0.4302750000000  0.5362220000000 1.0
C      1  0.4839690000000  0.4649570000000  0.5766670000000 1.0
C      1  0.5403340000000  0.4770840000000  0.4058360000000 1.0
C      1  0.4937640000000  0.4520910000000  0.5262300000000 1.0
C      1  0.5642380000000  0.5386200000000  0.5796230000000 1.0
C      1  0.5650220000000  0.5559410000000  0.4805260000000 1.0
C      1  0.4485550000000  0.5008430000000  0.5278740000000 1.0
C      1  0.4716960000000  0.5848790000000  0.5366390000000 1.0
C      1  0.4988980000000  0.4191760000000  0.4533990000000 1.0
C      1  0.4161950000000  0.4713350000000  0.5371270000000 1.0
C      1  0.4712620000000  0.5568100000000  0.5759540000000 1.0
C      1  0.4558990000000  0.4651640000000  0.4967560000000 1.0
C      1  0.5280710000000  0.4261960000000  0.4901250000000 1.0
C      1  0.5853240000000  0.5350150000000  0.5146550000000 1.0
C      1  0.5943420000000  0.5168500000000  0.5678600000000 1.0
C      1  0.4753110000000  0.5125740000000  0.5323880000000 1.0
C      1  0.4636640000000  0.4566920000000  0.5261550000000 1.0
C      1  0.5181230000000  0.5219920000000  0.5899850000000 1.0
C      1  0.5175150000000  0.3994370000000  0.4950660000000 1.0
C      1  0.4866060000000  0.5140030000000  0.4015320000000 1.0
C      1  0.4496350000000  0.5014330000000  0.4295430000000 1.0
C      1  0.4580800000000  0.4814580000000  0.5716600000000 1.0
C      1  0.4467600000000  0.4754620000000  0.5433690000000 1.0
C      1  0.4894770000000  0.5737750000000  0.5594830000000 1.0
C      1  0.4557520000000  0.5105790000000  0.5790210000000 1.0
C      1  0.5117770000000  0.4729800000000  0.3996000000000 1.0
C      1  0.5744980000000  0.5132870000000  0.5888550000000 1.0
C      1  0.5516170000000  0.4609840000000  0.4274970000000 1.0
END
