TITL C-950534-5965-86 2.58909802459957e-06 125000 -1102.47567790355 0 0 176 (C1) n - 1
REM
REM in /home/bkarasulu/work/CARBON/AIRSS/Generating-Clusters/EDIP-Nigel-Params/with-SteepDescent/Only-C1/SD-CG/HFTN-CG
REM
REM
REM
REM
REM
REM ./C.cell (11c1c37f851c82e70ff6c80c92926a4b)
REM
REM compiler GCC version 9.2.1 20190827 (Red Hat 9.2.1-1)
REM options -cpp -mtune=generic -march=x86-64 -g -O0 -fpre-include=/usr/include/finclude/math-vector-fortran.h
REM seed -1619675883 46511883 -758156662 -779924393 847817069 -1435823844 1516259995 -1157136864 -1091902365 2046658511 -2076631937 354511398 1733923754 232693407 97999971 640444046 1684823461 1656598823 255696902 -2057933019 693116345 -1275772349 -645004726 853140051 -1482981459 9149097 -1042242249 -1543767010 -520232630 -429903537 1012622603 -373619107 -241651926
REM
CELL 1.54180   50.00000   50.00000   50.00000   90.00000   90.00000   90.00000
LATT -1
SFAC C  
C      1  0.4801870000000  0.5635380000000  0.6006780000000 1.0
C      1  0.5666800000000  0.5983300000000  0.5121960000000 1.0
C      1  0.5356800000000  0.5420300000000  0.4646170000000 1.0
C      1  0.5191870000000  0.4277250000000  0.5893680000000 1.0
C      1  0.5654830000000  0.5311730000000  0.4183110000000 1.0
C      1  0.5142960000000  0.4911890000000  0.5427520000000 1.0
C      1  0.4842600000000  0.4382640000000  0.4656890000000 1.0
C      1  0.4565420000000  0.5356610000000  0.4230820000000 1.0
C      1  0.5757770000000  0.4617100000000  0.5670700000000 1.0
C      1  0.4188940000000  0.5447980000000  0.5360040000000 1.0
C      1  0.4880380000000  0.5132440000000  0.3842190000000 1.0
C      1  0.5537000000000  0.4518870000000  0.4241990000000 1.0
C      1  0.4907460000000  0.5820270000000  0.5805480000000 1.0
C      1  0.3898750000000  0.4717610000000  0.5076580000000 1.0
C      1  0.5834050000000  0.5009710000000  0.5472320000000 1.0
C      1  0.4835240000000  0.5530780000000  0.4195200000000 1.0
C      1  0.5338170000000  0.5281440000000  0.5561560000000 1.0
C      1  0.3893050000000  0.4791610000000  0.4791020000000 1.0
C      1  0.4940120000000  0.4449700000000  0.5522940000000 1.0
C      1  0.5501590000000  0.4759400000000  0.5223580000000 1.0
C      1  0.4458580000000  0.5021490000000  0.5905550000000 1.0
C      1  0.4110500000000  0.5239420000000  0.5572880000000 1.0
C      1  0.5462030000000  0.6012620000000  0.5335260000000 1.0
C      1  0.3908380000000  0.5093480000000  0.4805470000000 1.0
C      1  0.4735500000000  0.5814370000000  0.4262040000000 1.0
C      1  0.5397420000000  0.4275040000000  0.4356970000000 1.0
C      1  0.5956790000000  0.5326820000000  0.5110310000000 1.0
C      1  0.5413510000000  0.5651250000000  0.4451230000000 1.0
C      1  0.4329620000000  0.5254030000000  0.5769640000000 1.0
C      1  0.5903060000000  0.4559770000000  0.5418110000000 1.0
C      1  0.5826530000000  0.5666060000000  0.4806130000000 1.0
C      1  0.5458240000000  0.5442570000000  0.5884960000000 1.0
C      1  0.4328250000000  0.5668920000000  0.5527850000000 1.0
C      1  0.5005410000000  0.4004140000000  0.4818590000000 1.0
C      1  0.5844460000000  0.5738380000000  0.5519390000000 1.0
C      1  0.4529090000000  0.5846140000000  0.5408720000000 1.0
C      1  0.5866710000000  0.4841560000000  0.4230280000000 1.0
C      1  0.4092990000000  0.4309060000000  0.4687720000000 1.0
C      1  0.4108090000000  0.5378210000000  0.4352210000000 1.0
C      1  0.4022550000000  0.4972390000000  0.5479330000000 1.0
C      1  0.5489150000000  0.5141760000000  0.4554480000000 1.0
C      1  0.4622440000000  0.4584710000000  0.4108960000000 1.0
C      1  0.4345570000000  0.4203210000000  0.4579910000000 1.0
C      1  0.4648730000000  0.4553190000000  0.5110630000000 1.0
C      1  0.5022060000000  0.5419470000000  0.5044410000000 1.0
C      1  0.4206140000000  0.4755790000000  0.5561930000000 1.0
C      1  0.5988920000000  0.5620560000000  0.5048400000000 1.0
C      1  0.5488340000000  0.4491050000000  0.5639920000000 1.0
C      1  0.5149910000000  0.4223830000000  0.4211990000000 1.0
C      1  0.4458320000000  0.5762250000000  0.4381510000000 1.0
C      1  0.5813180000000  0.4792840000000  0.5257580000000 1.0
C      1  0.4951440000000  0.4966060000000  0.4085310000000 1.0
C      1  0.4973410000000  0.5408690000000  0.3874450000000 1.0
C      1  0.4804820000000  0.5870570000000  0.4951280000000 1.0
C      1  0.5457900000000  0.4032820000000  0.4526210000000 1.0
C      1  0.5326350000000  0.5026720000000  0.6077630000000 1.0
C      1  0.4105510000000  0.5302280000000  0.4711990000000 1.0
C      1  0.5172530000000  0.3892050000000  0.4586850000000 1.0
C      1  0.4769670000000  0.4131530000000  0.4465980000000 1.0
C      1  0.5534910000000  0.4855450000000  0.5977650000000 1.0
C      1  0.4275250000000  0.4964900000000  0.4432550000000 1.0
C      1  0.5102700000000  0.4045210000000  0.5088330000000 1.0
C      1  0.4510900000000  0.5091240000000  0.4082600000000 1.0
C      1  0.5118490000000  0.5653590000000  0.5698110000000 1.0
C      1  0.4932160000000  0.4079970000000  0.5496690000000 1.0
C      1  0.4152900000000  0.5118640000000  0.4226620000000 1.0
C      1  0.5394320000000  0.5255070000000  0.4073510000000 1.0
C      1  0.5084150000000  0.4525470000000  0.4528270000000 1.0
C      1  0.5251910000000  0.5298290000000  0.6025420000000 1.0
C      1  0.4990140000000  0.4502600000000  0.5960510000000 1.0
C      1  0.5395080000000  0.4772800000000  0.4928090000000 1.0
C      1  0.4785510000000  0.5131640000000  0.6072130000000 1.0
C      1  0.4087380000000  0.4509150000000  0.5140760000000 1.0
C      1  0.5185030000000  0.6028820000000  0.4718120000000 1.0
C      1  0.5465880000000  0.4383400000000  0.5915060000000 1.0
C      1  0.4918670000000  0.5911610000000  0.4471350000000 1.0
C      1  0.4833840000000  0.5724680000000  0.4689920000000 1.0
C      1  0.5880540000000  0.5514400000000  0.4552270000000 1.0
C      1  0.5370880000000  0.4769580000000  0.4185400000000 1.0
C      1  0.4661520000000  0.4888660000000  0.5698030000000 1.0
C      1  0.5194040000000  0.4140300000000  0.5620520000000 1.0
C      1  0.5734320000000  0.4902130000000  0.5744510000000 1.0
C      1  0.4297050000000  0.4750420000000  0.5846630000000 1.0
C      1  0.5116180000000  0.4709700000000  0.4056320000000 1.0
C      1  0.5084820000000  0.5163720000000  0.4287300000000 1.0
C      1  0.5082460000000  0.4773460000000  0.4920380000000 1.0
C      1  0.5376630000000  0.5512250000000  0.5364940000000 1.0
C      1  0.4367330000000  0.5131880000000  0.4656310000000 1.0
C      1  0.4736380000000  0.3911960000000  0.4886240000000 1.0
C      1  0.5945750000000  0.5266740000000  0.5402950000000 1.0
C      1  0.4695090000000  0.4869690000000  0.4209890000000 1.0
C      1  0.5787770000000  0.4324150000000  0.4998940000000 1.0
C      1  0.4661060000000  0.5227320000000  0.5313460000000 1.0
C      1  0.4779820000000  0.5423550000000  0.5509760000000 1.0
C      1  0.5896460000000  0.5828490000000  0.5241780000000 1.0
C      1  0.4562440000000  0.5807050000000  0.5115000000000 1.0
C      1  0.5145240000000  0.5712570000000  0.5405820000000 1.0
C      1  0.5038900000000  0.4817080000000  0.4598540000000 1.0
C      1  0.4052150000000  0.4589590000000  0.4610040000000 1.0
C      1  0.5310990000000  0.5406340000000  0.5107660000000 1.0
C      1  0.4339410000000  0.4526880000000  0.4198500000000 1.0
C      1  0.4729590000000  0.5908660000000  0.5601760000000 1.0
C      1  0.5910570000000  0.4545100000000  0.4834170000000 1.0
C      1  0.5227030000000  0.5474320000000  0.4012050000000 1.0
C      1  0.4203990000000  0.4503250000000  0.5405930000000 1.0
C      1  0.5938540000000  0.5482130000000  0.5576120000000 1.0
C      1  0.5502080000000  0.4306960000000  0.4922730000000 1.0
C      1  0.5840700000000  0.5111260000000  0.4294730000000 1.0
C      1  0.5071420000000  0.5989730000000  0.4985110000000 1.0
C      1  0.4299290000000  0.4672320000000  0.4455170000000 1.0
C      1  0.5679950000000  0.5564690000000  0.4338670000000 1.0
C      1  0.5510940000000  0.5457280000000  0.4904180000000 1.0
C      1  0.4568580000000  0.5606730000000  0.4616000000000 1.0
C      1  0.4322430000000  0.5540560000000  0.4227310000000 1.0
C      1  0.4117060000000  0.5532710000000  0.4927970000000 1.0
C      1  0.4488070000000  0.4042450000000  0.4797580000000 1.0
C      1  0.5786260000000  0.4608550000000  0.4358030000000 1.0
C      1  0.4747430000000  0.4851270000000  0.4509320000000 1.0
C      1  0.4955680000000  0.5376090000000  0.6066610000000 1.0
C      1  0.4653700000000  0.4215820000000  0.4215790000000 1.0
C      1  0.5556200000000  0.5806840000000  0.5551370000000 1.0
C      1  0.5091820000000  0.4327730000000  0.5173670000000 1.0
C      1  0.5451020000000  0.4039770000000  0.4816840000000 1.0
C      1  0.3985880000000  0.4993420000000  0.5172840000000 1.0
C      1  0.5428360000000  0.5902730000000  0.4632710000000 1.0
C      1  0.5187290000000  0.6056990000000  0.5244890000000 1.0
C      1  0.5398210000000  0.5016090000000  0.5394820000000 1.0
C      1  0.4498070000000  0.4548950000000  0.5876010000000 1.0
C      1  0.4396370000000  0.5312220000000  0.5191960000000 1.0
C      1  0.5271380000000  0.4964900000000  0.4420390000000 1.0
C      1  0.4905590000000  0.5260680000000  0.4535650000000 1.0
C      1  0.4600300000000  0.5119390000000  0.3807830000000 1.0
C      1  0.5503380000000  0.4271680000000  0.5426380000000 1.0
C      1  0.4886660000000  0.3942900000000  0.5241540000000 1.0
C      1  0.4096000000000  0.4265620000000  0.4977890000000 1.0
C      1  0.4755210000000  0.4467560000000  0.5783980000000 1.0
C      1  0.4382420000000  0.4251640000000  0.4287170000000 1.0
C      1  0.5623890000000  0.5874650000000  0.4847340000000 1.0
C      1  0.5425830000000  0.4520710000000  0.4718260000000 1.0
C      1  0.4988790000000  0.4484600000000  0.4216960000000 1.0
C      1  0.5707680000000  0.4644230000000  0.4640920000000 1.0
C      1  0.5013000000000  0.3999820000000  0.4355500000000 1.0
C      1  0.4316730000000  0.4077850000000  0.5032160000000 1.0
C      1  0.5601640000000  0.4988120000000  0.4795910000000 1.0
C      1  0.4586610000000  0.4619350000000  0.4613770000000 1.0
C      1  0.5513160000000  0.4597210000000  0.6090510000000 1.0
C      1  0.5958440000000  0.4796520000000  0.4974190000000 1.0
C      1  0.5115710000000  0.4774090000000  0.5876380000000 1.0
C      1  0.4571330000000  0.4944790000000  0.5411420000000 1.0
C      1  0.6045380000000  0.5029180000000  0.4793850000000 1.0
C      1  0.4343140000000  0.5695050000000  0.4974970000000 1.0
C      1  0.4523450000000  0.5628520000000  0.5982940000000 1.0
C      1  0.5693120000000  0.5230340000000  0.4969300000000 1.0
C      1  0.5395760000000  0.5706030000000  0.5793740000000 1.0
C      1  0.4505120000000  0.4684990000000  0.4883940000000 1.0
C      1  0.4460030000000  0.4365930000000  0.5337670000000 1.0
C      1  0.5887160000000  0.5211940000000  0.4567050000000 1.0
C      1  0.4910140000000  0.5595970000000  0.5279350000000 1.0
C      1  0.5023050000000  0.5272870000000  0.5649820000000 1.0
C      1  0.4425890000000  0.4957790000000  0.4894720000000 1.0
C      1  0.5184750000000  0.4662820000000  0.5593990000000 1.0
C      1  0.4490940000000  0.5500950000000  0.5721730000000 1.0
C      1  0.3971480000000  0.5516330000000  0.5172230000000 1.0
C      1  0.4977100000000  0.4915920000000  0.5175630000000 1.0
C      1  0.4867310000000  0.5179110000000  0.5108210000000 1.0
C      1  0.4908320000000  0.5010240000000  0.5820850000000 1.0
C      1  0.5191420000000  0.5647850000000  0.4242960000000 1.0
C      1  0.4751650000000  0.4763690000000  0.5281210000000 1.0
C      1  0.4302920000000  0.5029020000000  0.5146060000000 1.0
C      1  0.4430530000000  0.4088940000000  0.5289390000000 1.0
C      1  0.4606580000000  0.5316980000000  0.4528490000000 1.0
C      1  0.5797970000000  0.4309060000000  0.5304410000000 1.0
C      1  0.4926870000000  0.4485270000000  0.4971590000000 1.0
C      1  0.5029690000000  0.5464290000000  0.4720640000000 1.0
C      1  0.6178680000000  0.5192580000000  0.4981600000000 1.0
C      1  0.5377030000000  0.4405860000000  0.5185690000000 1.0
END
