TITL C-950521-2237-587 5.37394245288647e-07 125000 -754.427938678539 0 0 123 (C1) n - 1
REM
REM in /home/bkarasulu/work/CARBON/AIRSS/Generating-Clusters/EDIP-Nigel-Params/with-SteepDescent/Only-C1/SD-CG/HFTN-CG
REM
REM
REM
REM
REM
REM ./C.cell (11c1c37f851c82e70ff6c80c92926a4b)
REM
REM compiler GCC version 9.2.1 20190827 (Red Hat 9.2.1-1)
REM options -cpp -mtune=generic -march=x86-64 -g -O0 -fpre-include=/usr/include/finclude/math-vector-fortran.h
REM seed -1749893453 1454829754 2052964421 1447531536 889207517 640859975 2054658509 1241084794 309403481 -558529867 -1828873248 -2008068841 394950316 -162902048 1914533129 -1332531447 -1466148451 -1994295813 8424750 582220693 924362900 430003921 -2116259401 1100853111 -1112399789 427039552 214464214 1290052351 -660741602 1879923266 1004341327 -1840816889 168456365
REM
CELL 1.54180   50.00000   50.00000   50.00000   90.00000   90.00000   90.00000
LATT -1
SFAC C  
C      1  0.5073180000000  0.5775670000000  0.4982540000000 1.0
C      1  0.4698100000000  0.5580320000000  0.5587840000000 1.0
C      1  0.4549720000000  0.4699100000000  0.5742450000000 1.0
C      1  0.4478190000000  0.5384790000000  0.5562110000000 1.0
C      1  0.4902770000000  0.4215600000000  0.4475240000000 1.0
C      1  0.4492130000000  0.5261660000000  0.5269700000000 1.0
C      1  0.4727740000000  0.5899000000000  0.5228840000000 1.0
C      1  0.5129920000000  0.5448220000000  0.5782060000000 1.0
C      1  0.4464570000000  0.4277910000000  0.5207040000000 1.0
C      1  0.5336050000000  0.5163190000000  0.4771280000000 1.0
C      1  0.5195990000000  0.4958750000000  0.4135790000000 1.0
C      1  0.5439180000000  0.4888390000000  0.5717430000000 1.0
C      1  0.5488620000000  0.5033470000000  0.4108620000000 1.0
C      1  0.5258500000000  0.5657120000000  0.4510010000000 1.0
C      1  0.5115720000000  0.4524550000000  0.5116040000000 1.0
C      1  0.4465730000000  0.5214210000000  0.5809010000000 1.0
C      1  0.5283790000000  0.4375880000000  0.5427460000000 1.0
C      1  0.5626740000000  0.4348680000000  0.5074680000000 1.0
C      1  0.5046740000000  0.4804300000000  0.4727130000000 1.0
C      1  0.4303750000000  0.5132520000000  0.4240300000000 1.0
C      1  0.5177790000000  0.4741420000000  0.5661000000000 1.0
C      1  0.5145980000000  0.5343830000000  0.4915350000000 1.0
C      1  0.5917230000000  0.5031250000000  0.4314490000000 1.0
C      1  0.4807520000000  0.5246700000000  0.4191880000000 1.0
C      1  0.4853580000000  0.4947820000000  0.5210400000000 1.0
C      1  0.5601780000000  0.4753810000000  0.4509490000000 1.0
C      1  0.5099170000000  0.4260170000000  0.5615070000000 1.0
C      1  0.4204200000000  0.5498650000000  0.5587710000000 1.0
C      1  0.5003370000000  0.4712060000000  0.5354170000000 1.0
C      1  0.4746510000000  0.5697170000000  0.4612610000000 1.0
C      1  0.5203280000000  0.4098710000000  0.5043400000000 1.0
C      1  0.5271420000000  0.5416380000000  0.4324740000000 1.0
C      1  0.5116460000000  0.5153390000000  0.5337540000000 1.0
C      1  0.4688890000000  0.5431990000000  0.5049260000000 1.0
C      1  0.5569200000000  0.5502230000000  0.5240490000000 1.0
C      1  0.5111640000000  0.5178930000000  0.5651600000000 1.0
C      1  0.4196220000000  0.5278870000000  0.5181320000000 1.0
C      1  0.4589450000000  0.4740060000000  0.4207010000000 1.0
C      1  0.4927310000000  0.4012510000000  0.5119560000000 1.0
C      1  0.4813960000000  0.4315050000000  0.4219120000000 1.0
C      1  0.4293460000000  0.5774590000000  0.5451840000000 1.0
C      1  0.4843190000000  0.5523860000000  0.5841260000000 1.0
C      1  0.5998900000000  0.4962370000000  0.4827150000000 1.0
C      1  0.5803470000000  0.5045920000000  0.5366740000000 1.0
C      1  0.4644180000000  0.4523710000000  0.5149070000000 1.0
C      1  0.4711980000000  0.4105870000000  0.5309620000000 1.0
C      1  0.4164100000000  0.5044430000000  0.4485550000000 1.0
C      1  0.4891930000000  0.5611540000000  0.5192070000000 1.0
C      1  0.5798990000000  0.4541070000000  0.4625520000000 1.0
C      1  0.5191210000000  0.4160420000000  0.4521630000000 1.0
C      1  0.5505000000000  0.5763270000000  0.4583500000000 1.0
C      1  0.5534270000000  0.5305970000000  0.4233620000000 1.0
C      1  0.5347180000000  0.6034950000000  0.5217960000000 1.0
C      1  0.5532860000000  0.5071120000000  0.5487290000000 1.0
C      1  0.5712630000000  0.5646240000000  0.4704160000000 1.0
C      1  0.5778260000000  0.5264540000000  0.4403160000000 1.0
C      1  0.5699730000000  0.4860250000000  0.4240210000000 1.0
C      1  0.4748950000000  0.4317420000000  0.4706480000000 1.0
C      1  0.4363780000000  0.4936130000000  0.5751970000000 1.0
C      1  0.5305250000000  0.5574460000000  0.5592440000000 1.0
C      1  0.4752190000000  0.4564970000000  0.5446170000000 1.0
C      1  0.4252680000000  0.5787720000000  0.5153580000000 1.0
C      1  0.5076160000000  0.6025400000000  0.5124630000000 1.0
C      1  0.4973810000000  0.4816290000000  0.5867660000000 1.0
C      1  0.4817420000000  0.4283920000000  0.5527860000000 1.0
C      1  0.5576140000000  0.4686540000000  0.5853530000000 1.0
C      1  0.5295310000000  0.4460960000000  0.4126610000000 1.0
C      1  0.4313380000000  0.4783630000000  0.5304270000000 1.0
C      1  0.5328800000000  0.4092540000000  0.4776160000000 1.0
C      1  0.4137500000000  0.4768890000000  0.4542370000000 1.0
C      1  0.5800780000000  0.5280530000000  0.5170000000000 1.0
C      1  0.4512910000000  0.4468370000000  0.4624630000000 1.0
C      1  0.5922830000000  0.5238180000000  0.4900380000000 1.0
C      1  0.5086700000000  0.5169750000000  0.4313940000000 1.0
C      1  0.4877660000000  0.5055720000000  0.5759810000000 1.0
C      1  0.4734900000000  0.5246610000000  0.5927490000000 1.0
C      1  0.5629240000000  0.4986660000000  0.4710190000000 1.0
C      1  0.4697050000000  0.5578790000000  0.4348980000000 1.0
C      1  0.5543720000000  0.4327040000000  0.4088450000000 1.0
C      1  0.4952020000000  0.4652460000000  0.4500210000000 1.0
C      1  0.4265740000000  0.5170840000000  0.4738270000000 1.0
C      1  0.5188780000000  0.5417020000000  0.5197970000000 1.0
C      1  0.5588410000000  0.4268540000000  0.4790120000000 1.0
C      1  0.4154810000000  0.4952640000000  0.5528450000000 1.0
C      1  0.5807050000000  0.5388060000000  0.4670970000000 1.0
C      1  0.4813480000000  0.4575170000000  0.4087200000000 1.0
C      1  0.4281180000000  0.5483230000000  0.4767770000000 1.0
C      1  0.5382260000000  0.4237800000000  0.4312330000000 1.0
C      1  0.4570650000000  0.4975430000000  0.5302340000000 1.0
C      1  0.5377310000000  0.5848750000000  0.5553560000000 1.0
C      1  0.5543970000000  0.5819850000000  0.5307680000000 1.0
C      1  0.5912580000000  0.4682840000000  0.4859420000000 1.0
C      1  0.4723600000000  0.5183350000000  0.4619790000000 1.0
C      1  0.4146810000000  0.5537310000000  0.5030300000000 1.0
C      1  0.5348710000000  0.4982500000000  0.5271600000000 1.0
C      1  0.5404780000000  0.4218340000000  0.5225290000000 1.0
C      1  0.4506190000000  0.5866590000000  0.5018510000000 1.0
C      1  0.5025700000000  0.5755720000000  0.4681450000000 1.0
C      1  0.4589020000000  0.4941290000000  0.4704540000000 1.0
C      1  0.4331240000000  0.4485120000000  0.5379600000000 1.0
C      1  0.4551500000000  0.5622680000000  0.4844390000000 1.0
C      1  0.4541360000000  0.5347240000000  0.4446980000000 1.0
C      1  0.4215570000000  0.4640910000000  0.4781070000000 1.0
C      1  0.4593750000000  0.5838680000000  0.5499320000000 1.0
C      1  0.5118570000000  0.4402610000000  0.5869650000000 1.0
C      1  0.5848170000000  0.4777390000000  0.5301780000000 1.0
C      1  0.4859590000000  0.5248520000000  0.4889210000000 1.0
C      1  0.5414160000000  0.4509590000000  0.4661630000000 1.0
C      1  0.5436550000000  0.4900790000000  0.4987380000000 1.0
C      1  0.4055840000000  0.5246920000000  0.5446130000000 1.0
C      1  0.4564990000000  0.5033920000000  0.4137740000000 1.0
C      1  0.5502690000000  0.5381360000000  0.5502750000000 1.0
C      1  0.4648360000000  0.4703400000000  0.4503110000000 1.0
C      1  0.5087850000000  0.4673910000000  0.4206240000000 1.0
C      1  0.5264180000000  0.4670750000000  0.4884730000000 1.0
C      1  0.4183370000000  0.4797940000000  0.5029850000000 1.0
C      1  0.5141300000000  0.5043960000000  0.4591730000000 1.0
C      1  0.4809460000000  0.4858930000000  0.4911500000000 1.0
C      1  0.5760670000000  0.4616680000000  0.5093920000000 1.0
C      1  0.5388630000000  0.4497140000000  0.5924570000000 1.0
C      1  0.4130310000000  0.5072800000000  0.4977010000000 1.0
C      1  0.4786620000000  0.4605960000000  0.5887780000000 1.0
C      1  0.4861630000000  0.4370110000000  0.4994440000000 1.0
END
