TITL C-951340-9809-496 -8.74438133709937e-07 125000 -1015.26757201764 0 0 161 (C1) n - 1
REM
REM in /home/bkarasulu/work/CARBON/AIRSS/Generating-Clusters/EDIP-Nigel-Params/with-SteepDescent/Only-C1/SD-CG/HFTN-CG
REM
REM
REM
REM
REM
REM ./C.cell (11c1c37f851c82e70ff6c80c92926a4b)
REM
REM compiler GCC version 9.2.1 20190827 (Red Hat 9.2.1-1)
REM options -cpp -mtune=generic -march=x86-64 -g -O0 -fpre-include=/usr/include/finclude/math-vector-fortran.h
REM seed -1399638067 -1218766562 -1590796145 -842652700 -9390041 -1198740172 1977718611 1162554197 -2048543783 648035765 51510867 1830525249 959753188 -689381902 1380351183 -1095798426 -449768939 -2036308769 1791709942 2115123999 103149603 -24956549 1321874276 873803676 1889950782 -1083516411 715107311 1535528319 1603605167 -1881353666 421343192 -360759182 246576860
REM
CELL 1.54180   50.00000   50.00000   50.00000   90.00000   90.00000   90.00000
LATT -1
SFAC C  
C      1  0.5359340000000  0.5732280000000  0.4371410000000 1.0
C      1  0.4236990000000  0.4405850000000  0.5357210000000 1.0
C      1  0.5682940000000  0.5165040000000  0.5697290000000 1.0
C      1  0.4473960000000  0.5998760000000  0.5151540000000 1.0
C      1  0.4465470000000  0.5812270000000  0.5599930000000 1.0
C      1  0.4344910000000  0.4863020000000  0.5540000000000 1.0
C      1  0.4997100000000  0.5363050000000  0.5261960000000 1.0
C      1  0.4631000000000  0.5218680000000  0.4503840000000 1.0
C      1  0.5272800000000  0.4871480000000  0.4487270000000 1.0
C      1  0.5120900000000  0.4597140000000  0.4431780000000 1.0
C      1  0.5484700000000  0.5364190000000  0.4946120000000 1.0
C      1  0.4349740000000  0.4216520000000  0.5160080000000 1.0
C      1  0.4057500000000  0.4841160000000  0.5466320000000 1.0
C      1  0.4521410000000  0.5353320000000  0.5405560000000 1.0
C      1  0.5277170000000  0.4495010000000  0.5905220000000 1.0
C      1  0.5077290000000  0.4369210000000  0.4118860000000 1.0
C      1  0.4542450000000  0.4921040000000  0.4107920000000 1.0
C      1  0.4774610000000  0.5446600000000  0.4589560000000 1.0
C      1  0.4261420000000  0.4880680000000  0.4188430000000 1.0
C      1  0.4639490000000  0.5917610000000  0.4590450000000 1.0
C      1  0.5427280000000  0.4554060000000  0.4786510000000 1.0
C      1  0.5072210000000  0.3969020000000  0.5481810000000 1.0
C      1  0.5615790000000  0.5651210000000  0.5571530000000 1.0
C      1  0.6040690000000  0.5128660000000  0.5492910000000 1.0
C      1  0.3973880000000  0.4851880000000  0.4581020000000 1.0
C      1  0.4304500000000  0.5538950000000  0.4564030000000 1.0
C      1  0.5385750000000  0.5135110000000  0.5116160000000 1.0
C      1  0.5312720000000  0.5881890000000  0.5255040000000 1.0
C      1  0.4320360000000  0.5877680000000  0.4954290000000 1.0
C      1  0.5476600000000  0.5257520000000  0.4467340000000 1.0
C      1  0.4648090000000  0.5703230000000  0.5799410000000 1.0
C      1  0.4892370000000  0.5252560000000  0.5938610000000 1.0
C      1  0.5200360000000  0.4671060000000  0.4989880000000 1.0
C      1  0.5957200000000  0.4802820000000  0.4695720000000 1.0
C      1  0.5319910000000  0.4646250000000  0.5256230000000 1.0
C      1  0.5676900000000  0.4379460000000  0.4866180000000 1.0
C      1  0.5474530000000  0.5790050000000  0.4633390000000 1.0
C      1  0.4781810000000  0.4950210000000  0.5331490000000 1.0
C      1  0.4672950000000  0.5563910000000  0.3907090000000 1.0
C      1  0.5636400000000  0.5563860000000  0.5121700000000 1.0
C      1  0.4935840000000  0.4608740000000  0.4027100000000 1.0
C      1  0.4650260000000  0.4643710000000  0.4033940000000 1.0
C      1  0.5010660000000  0.4110950000000  0.4590640000000 1.0
C      1  0.4483360000000  0.4443670000000  0.4180640000000 1.0
C      1  0.3975690000000  0.5200140000000  0.4917960000000 1.0
C      1  0.5039410000000  0.5851080000000  0.5103810000000 1.0
C      1  0.4719100000000  0.5525300000000  0.4880940000000 1.0
C      1  0.5716160000000  0.4936000000000  0.5124040000000 1.0
C      1  0.4883350000000  0.4394990000000  0.5118700000000 1.0
C      1  0.4164320000000  0.5038820000000  0.4436290000000 1.0
C      1  0.5517640000000  0.5320180000000  0.5883960000000 1.0
C      1  0.4421160000000  0.4771860000000  0.4592880000000 1.0
C      1  0.5093430000000  0.5044390000000  0.4658020000000 1.0
C      1  0.5997720000000  0.4960540000000  0.5254420000000 1.0
C      1  0.5236570000000  0.5476960000000  0.4836520000000 1.0
C      1  0.5279170000000  0.4181290000000  0.5519960000000 1.0
C      1  0.4382150000000  0.4835050000000  0.5039390000000 1.0
C      1  0.4103200000000  0.4702060000000  0.5006040000000 1.0
C      1  0.5425490000000  0.5575520000000  0.5780050000000 1.0
C      1  0.4859700000000  0.5124860000000  0.5120120000000 1.0
C      1  0.4407910000000  0.5149490000000  0.5602320000000 1.0
C      1  0.4996510000000  0.4456130000000  0.5831480000000 1.0
C      1  0.5268800000000  0.5275200000000  0.5371240000000 1.0
C      1  0.5880940000000  0.5433270000000  0.5214900000000 1.0
C      1  0.6043460000000  0.5427040000000  0.4977510000000 1.0
C      1  0.4922440000000  0.5937980000000  0.4577520000000 1.0
C      1  0.4154570000000  0.4606810000000  0.4545550000000 1.0
C      1  0.4473150000000  0.5733750000000  0.4742230000000 1.0
C      1  0.5076470000000  0.5824290000000  0.4348200000000 1.0
C      1  0.4490510000000  0.5442530000000  0.4087560000000 1.0
C      1  0.5004590000000  0.4856340000000  0.5488550000000 1.0
C      1  0.4932520000000  0.5291000000000  0.4161040000000 1.0
C      1  0.5435680000000  0.4301530000000  0.5757070000000 1.0
C      1  0.4348360000000  0.5230900000000  0.4616800000000 1.0
C      1  0.5482390000000  0.4071230000000  0.5340400000000 1.0
C      1  0.5203940000000  0.5416920000000  0.3833970000000 1.0
C      1  0.4643280000000  0.5214400000000  0.4200810000000 1.0
C      1  0.5331920000000  0.4406500000000  0.4536400000000 1.0
C      1  0.4365190000000  0.4389590000000  0.5628390000000 1.0
C      1  0.4609860000000  0.4233910000000  0.5525350000000 1.0
C      1  0.4914040000000  0.4192330000000  0.4326520000000 1.0
C      1  0.5092820000000  0.5898320000000  0.5572000000000 1.0
C      1  0.6047730000000  0.4697190000000  0.5387740000000 1.0
C      1  0.4718360000000  0.4485340000000  0.5378130000000 1.0
C      1  0.4961760000000  0.4564820000000  0.5548870000000 1.0
C      1  0.5470750000000  0.4082850000000  0.4834930000000 1.0
C      1  0.5353020000000  0.5203460000000  0.6069510000000 1.0
C      1  0.5376830000000  0.4470570000000  0.4100310000000 1.0
C      1  0.5667760000000  0.5259370000000  0.4718550000000 1.0
C      1  0.4659640000000  0.4800900000000  0.5893540000000 1.0
C      1  0.5359940000000  0.6016070000000  0.4783340000000 1.0
C      1  0.4802930000000  0.5442570000000  0.5475950000000 1.0
C      1  0.5137460000000  0.5675080000000  0.5748300000000 1.0
C      1  0.5534460000000  0.4413220000000  0.4328250000000 1.0
C      1  0.5011190000000  0.5460380000000  0.4406680000000 1.0
C      1  0.5723990000000  0.5826700000000  0.4999960000000 1.0
C      1  0.4788940000000  0.4052550000000  0.4779340000000 1.0
C      1  0.5930410000000  0.4502940000000  0.4719550000000 1.0
C      1  0.5203530000000  0.5053650000000  0.5596500000000 1.0
C      1  0.5287140000000  0.4033070000000  0.4617160000000 1.0
C      1  0.6149330000000  0.4552210000000  0.4913840000000 1.0
C      1  0.4873560000000  0.5515820000000  0.5761440000000 1.0
C      1  0.4802110000000  0.5002760000000  0.4586960000000 1.0
C      1  0.6074410000000  0.4972850000000  0.5736410000000 1.0
C      1  0.4579930000000  0.4073970000000  0.5265840000000 1.0
C      1  0.5143940000000  0.4983490000000  0.4962580000000 1.0
C      1  0.3959760000000  0.5084860000000  0.5372730000000 1.0
C      1  0.5409680000000  0.5006140000000  0.4157300000000 1.0
C      1  0.4830530000000  0.4599990000000  0.4873450000000 1.0
C      1  0.4419110000000  0.4673180000000  0.5758910000000 1.0
C      1  0.5707130000000  0.4371180000000  0.5643150000000 1.0
C      1  0.5143780000000  0.5081460000000  0.5913170000000 1.0
C      1  0.4534690000000  0.4686070000000  0.4853370000000 1.0
C      1  0.5007480000000  0.5560370000000  0.5017820000000 1.0
C      1  0.4535710000000  0.4157880000000  0.4670210000000 1.0
C      1  0.4885970000000  0.5867070000000  0.5368560000000 1.0
C      1  0.5066860000000  0.6014620000000  0.4826990000000 1.0
C      1  0.4585330000000  0.5293960000000  0.5062910000000 1.0
C      1  0.5122160000000  0.4812800000000  0.6050000000000 1.0
C      1  0.5201550000000  0.5316870000000  0.4590050000000 1.0
C      1  0.5338070000000  0.4044670000000  0.5090450000000 1.0
C      1  0.4876760000000  0.4651740000000  0.6014180000000 1.0
C      1  0.5496280000000  0.6012700000000  0.5045190000000 1.0
C      1  0.5723420000000  0.4225290000000  0.5376070000000 1.0
C      1  0.4852480000000  0.4555220000000  0.4563460000000 1.0
C      1  0.4826210000000  0.4098280000000  0.5077740000000 1.0
C      1  0.4133760000000  0.4461160000000  0.4810430000000 1.0
C      1  0.5095260000000  0.4780860000000  0.3873550000000 1.0
C      1  0.4333000000000  0.5581110000000  0.5441390000000 1.0
C      1  0.4631660000000  0.4280090000000  0.4398510000000 1.0
C      1  0.4419660000000  0.5217090000000  0.5874280000000 1.0
C      1  0.4683990000000  0.4776380000000  0.4443160000000 1.0
C      1  0.4534260000000  0.4780730000000  0.5312520000000 1.0
C      1  0.5758460000000  0.4427870000000  0.5159890000000 1.0
C      1  0.4613530000000  0.5974100000000  0.5394280000000 1.0
C      1  0.5359870000000  0.5296470000000  0.4042550000000 1.0
C      1  0.5443080000000  0.5614640000000  0.5339190000000 1.0
C      1  0.5757960000000  0.5739290000000  0.4717730000000 1.0
C      1  0.4039110000000  0.4613220000000  0.5284700000000 1.0
C      1  0.4348820000000  0.5577850000000  0.4288160000000 1.0
C      1  0.5892340000000  0.5462880000000  0.4734530000000 1.0
C      1  0.5068350000000  0.3962820000000  0.5191920000000 1.0
C      1  0.4650070000000  0.5088050000000  0.5966440000000 1.0
C      1  0.4025110000000  0.5279570000000  0.5184610000000 1.0
C      1  0.4224600000000  0.4583070000000  0.4243500000000 1.0
C      1  0.5775150000000  0.4666340000000  0.5562660000000 1.0
C      1  0.3933520000000  0.4917770000000  0.4864820000000 1.0
C      1  0.5158640000000  0.4430180000000  0.5368400000000 1.0
C      1  0.6049620000000  0.4487550000000  0.5175870000000 1.0
C      1  0.4935630000000  0.5446880000000  0.3920170000000 1.0
C      1  0.4356450000000  0.5138590000000  0.4931580000000 1.0
C      1  0.4094180000000  0.5748320000000  0.5049440000000 1.0
C      1  0.5796940000000  0.4898330000000  0.5768510000000 1.0
C      1  0.5502020000000  0.4804850000000  0.4671290000000 1.0
C      1  0.5851730000000  0.5463130000000  0.5519030000000 1.0
C      1  0.5615680000000  0.4679940000000  0.5263950000000 1.0
C      1  0.5350290000000  0.4758880000000  0.3993940000000 1.0
C      1  0.5473730000000  0.5473850000000  0.4255660000000 1.0
C      1  0.5724650000000  0.4953000000000  0.4801450000000 1.0
C      1  0.4354310000000  0.4282710000000  0.4875650000000 1.0
C      1  0.4097300000000  0.5558400000000  0.5254480000000 1.0
END
