TITL C-950522-5749-287 -1.5054406630936e-06 125000 -371.036983223219 0 0 60 (C1) n - 1
REM
REM in /home/bkarasulu/work/CARBON/AIRSS/Generating-Clusters/EDIP-Nigel-Params/with-SteepDescent/Only-C1/SD-CG/HFTN-CG
REM
REM
REM
REM
REM
REM ./C.cell (11c1c37f851c82e70ff6c80c92926a4b)
REM
REM compiler GCC version 9.2.1 20190827 (Red Hat 9.2.1-1)
REM options -cpp -mtune=generic -march=x86-64 -g -O0 -fpre-include=/usr/include/finclude/math-vector-fortran.h
REM seed 2089523544 1546283344 1659156695 1062254165 497070677 1931182829 -576227273 58400847 1775174659 -305470550 547565213 -1005128147 1156172760 -317547328 2086344975 -1111697089 -342810704 -589410477 829522076 2048949686 924149839 594588683 -1438038312 358664751 2001204439 -1446634942 -1121146944 334692145 -1949072715 -1035514725 538622657 -2111103484 -516724408
REM
CELL 1.54180   50.00000   50.00000   50.00000   90.00000   90.00000   90.00000
LATT -1
SFAC C  
C      1  0.4942270000000  0.4538610000000  0.4659610000000 1.0
C      1  0.5526850000000  0.5448720000000  0.4896160000000 1.0
C      1  0.5543960000000  0.4928180000000  0.5440110000000 1.0
C      1  0.4310330000000  0.4975050000000  0.5158620000000 1.0
C      1  0.5460340000000  0.4997890000000  0.4789470000000 1.0
C      1  0.5038630000000  0.4748640000000  0.4918300000000 1.0
C      1  0.4940430000000  0.5173780000000  0.5188880000000 1.0
C      1  0.5080330000000  0.4258460000000  0.4976170000000 1.0
C      1  0.5373260000000  0.4702660000000  0.5523540000000 1.0
C      1  0.4719140000000  0.4622300000000  0.5115680000000 1.0
C      1  0.4692310000000  0.5397390000000  0.5655060000000 1.0
C      1  0.5047560000000  0.5176870000000  0.4419220000000 1.0
C      1  0.5103110000000  0.5254890000000  0.5451370000000 1.0
C      1  0.4255500000000  0.4998130000000  0.4868040000000 1.0
C      1  0.4783020000000  0.5299270000000  0.4381970000000 1.0
C      1  0.4383070000000  0.4777090000000  0.4719960000000 1.0
C      1  0.5066600000000  0.4769840000000  0.5508540000000 1.0
C      1  0.4919040000000  0.5230940000000  0.5684950000000 1.0
C      1  0.5238440000000  0.5522500000000  0.4933600000000 1.0
C      1  0.4869780000000  0.4933740000000  0.5693440000000 1.0
C      1  0.4656580000000  0.4582910000000  0.5417140000000 1.0
C      1  0.4604950000000  0.4894970000000  0.4582530000000 1.0
C      1  0.4369760000000  0.5250110000000  0.4721600000000 1.0
C      1  0.5458250000000  0.5172630000000  0.5557310000000 1.0
C      1  0.4384860000000  0.4515740000000  0.4818670000000 1.0
C      1  0.4808760000000  0.4730500000000  0.4461660000000 1.0
C      1  0.5135310000000  0.5704330000000  0.4716270000000 1.0
C      1  0.4830960000000  0.5372200000000  0.4749240000000 1.0
C      1  0.4590120000000  0.4404240000000  0.4965340000000 1.0
C      1  0.5060990000000  0.5264280000000  0.4919240000000 1.0
C      1  0.5509460000000  0.5268280000000  0.4659440000000 1.0
C      1  0.5062580000000  0.4879210000000  0.4396400000000 1.0
C      1  0.5526310000000  0.4753660000000  0.4621200000000 1.0
C      1  0.5609160000000  0.5311010000000  0.5132960000000 1.0
C      1  0.5278810000000  0.5357080000000  0.4477010000000 1.0
C      1  0.5186220000000  0.4424960000000  0.4518600000000 1.0
C      1  0.4603070000000  0.5271590000000  0.4914520000000 1.0
C      1  0.5513180000000  0.5404660000000  0.5393670000000 1.0
C      1  0.4799990000000  0.5682190000000  0.5084390000000 1.0
C      1  0.5527840000000  0.4527540000000  0.4820480000000 1.0
C      1  0.5315970000000  0.4313410000000  0.4765760000000 1.0
C      1  0.5158740000000  0.5670000000000  0.5178890000000 1.0
C      1  0.5388250000000  0.4503340000000  0.5299480000000 1.0
C      1  0.5222290000000  0.5633170000000  0.4460680000000 1.0
C      1  0.4541980000000  0.5156790000000  0.4476530000000 1.0
C      1  0.5306310000000  0.4685640000000  0.4423610000000 1.0
C      1  0.5556660000000  0.4630490000000  0.5094540000000 1.0
C      1  0.4604640000000  0.4845810000000  0.5563080000000 1.0
C      1  0.4938920000000  0.4489950000000  0.5467990000000 1.0
C      1  0.5166760000000  0.5003950000000  0.4807550000000 1.0
C      1  0.5237760000000  0.5532730000000  0.5418280000000 1.0
C      1  0.5109510000000  0.4434620000000  0.5217430000000 1.0
C      1  0.5605420000000  0.4927580000000  0.5141420000000 1.0
C      1  0.4608720000000  0.5462840000000  0.5149340000000 1.0
C      1  0.4815260000000  0.4299360000000  0.4812260000000 1.0
C      1  0.4671730000000  0.4943820000000  0.5013470000000 1.0
C      1  0.4845030000000  0.5674130000000  0.4788310000000 1.0
C      1  0.5034150000000  0.4891860000000  0.5217260000000 1.0
C      1  0.4474200000000  0.5052730000000  0.5388180000000 1.0
C      1  0.4586570000000  0.5320760000000  0.5405580000000 1.0
END
