TITL C-950524-1808-444 -1.41838757446301e-06 125000 -261.289646674173 0 0 44 (C1) n - 1
REM
REM in /home/bkarasulu/work/CARBON/AIRSS/Generating-Clusters/EDIP-Nigel-Params/with-SteepDescent/Only-C1/SD-CG/HFTN-CG
REM
REM
REM
REM
REM
REM ./C.cell (11c1c37f851c82e70ff6c80c92926a4b)
REM
REM compiler GCC version 9.2.1 20190827 (Red Hat 9.2.1-1)
REM options -cpp -mtune=generic -march=x86-64 -g -O0 -fpre-include=/usr/include/finclude/math-vector-fortran.h
REM seed 283472248 -1512144425 -765120893 1953174665 2057791559 1792216353 -712278450 -1859327637 1786919113 -1347082910 -1610367455 -294539919 731536999 -712070412 937061281 -527577152 2131805869 -1044298644 1857448510 501796404 -201162576 1618905263 1632585225 1171691588 1208139629 1118675784 -1523977127 2008727060 318958032 -1956511265 418253590 399691295 954438155
REM
CELL 1.54180   50.00000   50.00000   50.00000   90.00000   90.00000   90.00000
LATT -1
SFAC C  
C      1  0.5400920000000  0.5152700000000  0.5154440000000 1.0
C      1  0.5355420000000  0.5368890000000  0.4705760000000 1.0
C      1  0.5612380000000  0.4984710000000  0.5062550000000 1.0
C      1  0.5276390000000  0.5044800000000  0.5565670000000 1.0
C      1  0.5039410000000  0.5093120000000  0.5030160000000 1.0
C      1  0.5058210000000  0.4355370000000  0.4890400000000 1.0
C      1  0.4773470000000  0.4696710000000  0.5330770000000 1.0
C      1  0.4592270000000  0.5582840000000  0.4668290000000 1.0
C      1  0.4306220000000  0.4924190000000  0.5057460000000 1.0
C      1  0.4794220000000  0.4898690000000  0.5105390000000 1.0
C      1  0.4910720000000  0.4749690000000  0.4392860000000 1.0
C      1  0.5480620000000  0.5147920000000  0.4570060000000 1.0
C      1  0.4609090000000  0.5333850000000  0.4534880000000 1.0
C      1  0.5105930000000  0.5557220000000  0.5383920000000 1.0
C      1  0.5398110000000  0.5417890000000  0.5005050000000 1.0
C      1  0.4973140000000  0.4287750000000  0.5323820000000 1.0
C      1  0.5197940000000  0.4361500000000  0.5157590000000 1.0
C      1  0.4782520000000  0.4367900000000  0.4964620000000 1.0
C      1  0.5083300000000  0.5201650000000  0.5690430000000 1.0
C      1  0.5060500000000  0.5420630000000  0.4665350000000 1.0
C      1  0.5434330000000  0.4628930000000  0.4570740000000 1.0
C      1  0.4449750000000  0.5129020000000  0.4661000000000 1.0
C      1  0.5159320000000  0.4978840000000  0.4760430000000 1.0
C      1  0.4688270000000  0.5411190000000  0.5543050000000 1.0
C      1  0.4931480000000  0.4963120000000  0.4569060000000 1.0
C      1  0.4459210000000  0.5389630000000  0.5085440000000 1.0
C      1  0.4979240000000  0.4492120000000  0.4419970000000 1.0
C      1  0.4559680000000  0.4869240000000  0.4925040000000 1.0
C      1  0.4960660000000  0.5427170000000  0.5582810000000 1.0
C      1  0.4951670000000  0.4700300000000  0.5554730000000 1.0
C      1  0.5497600000000  0.4733530000000  0.5039350000000 1.0
C      1  0.5463690000000  0.5197950000000  0.5432400000000 1.0
C      1  0.4730780000000  0.4414370000000  0.5241480000000 1.0
C      1  0.5152640000000  0.5564980000000  0.5108410000000 1.0
C      1  0.5190020000000  0.4795420000000  0.5446820000000 1.0
C      1  0.5436040000000  0.4896410000000  0.4461420000000 1.0
C      1  0.4313600000000  0.5181430000000  0.4921830000000 1.0
C      1  0.4953960000000  0.5401240000000  0.4948120000000 1.0
C      1  0.5295340000000  0.4712920000000  0.4826320000000 1.0
C      1  0.4891100000000  0.5242810000000  0.4487370000000 1.0
C      1  0.4669810000000  0.5523510000000  0.4933600000000 1.0
C      1  0.5339730000000  0.4615580000000  0.5257120000000 1.0
C      1  0.4498580000000  0.5369620000000  0.5360410000000 1.0
C      1  0.5182700000000  0.4412640000000  0.4603590000000 1.0
END
