TITL C-951346-9544-136 -6.44707883805446e-06 125000 -897.213480865719 0 0 144 (C1) n - 1
REM
REM in /home/bkarasulu/work/CARBON/AIRSS/Generating-Clusters/EDIP-Nigel-Params/with-SteepDescent/Only-C1/SD-CG/HFTN-CG
REM
REM
REM
REM
REM
REM ./C.cell (11c1c37f851c82e70ff6c80c92926a4b)
REM
REM compiler GCC version 9.2.1 20190827 (Red Hat 9.2.1-1)
REM options -cpp -mtune=generic -march=x86-64 -g -O0 -fpre-include=/usr/include/finclude/math-vector-fortran.h
REM seed 1631688790 1844016862 1440780240 -1316894325 1857183734 -2021307441 1873362217 304408449 614066470 537775156 -576109312 1788921837 1551576165 1861307526 -915333268 314346698 -648600252 -1834501605 -1751423418 -953710456 1529353282 874116162 -1453467898 774055826 566305638 296318206 6976133 -785240371 -1798640231 -95795546 -1883887972 1697078792 46836808
REM
CELL 1.54180   50.00000   50.00000   50.00000   90.00000   90.00000   90.00000
LATT -1
SFAC C  
C      1  0.5928020000000  0.4666940000000  0.5409790000000 1.0
C      1  0.4706520000000  0.4303520000000  0.5518410000000 1.0
C      1  0.5681480000000  0.5479930000000  0.5141040000000 1.0
C      1  0.4122110000000  0.5592200000000  0.5206760000000 1.0
C      1  0.4768540000000  0.5931470000000  0.4817140000000 1.0
C      1  0.4746150000000  0.5829890000000  0.5322510000000 1.0
C      1  0.5695700000000  0.5029060000000  0.5632080000000 1.0
C      1  0.5598530000000  0.5296550000000  0.5723200000000 1.0
C      1  0.4906090000000  0.4915490000000  0.4718380000000 1.0
C      1  0.4893370000000  0.4432480000000  0.5732150000000 1.0
C      1  0.4479470000000  0.5815970000000  0.4831740000000 1.0
C      1  0.5650520000000  0.5744690000000  0.5236360000000 1.0
C      1  0.4223670000000  0.4546020000000  0.5257040000000 1.0
C      1  0.5010400000000  0.4198550000000  0.4469690000000 1.0
C      1  0.4280080000000  0.5694400000000  0.4629020000000 1.0
C      1  0.4019660000000  0.4857860000000  0.4897450000000 1.0
C      1  0.4584150000000  0.3964360000000  0.5215560000000 1.0
C      1  0.4778920000000  0.4866600000000  0.5562530000000 1.0
C      1  0.4951340000000  0.5946230000000  0.4570340000000 1.0
C      1  0.5544170000000  0.5246020000000  0.4175460000000 1.0
C      1  0.5189670000000  0.4885760000000  0.5985070000000 1.0
C      1  0.5435300000000  0.5060870000000  0.5131990000000 1.0
C      1  0.5196170000000  0.5091450000000  0.4418400000000 1.0
C      1  0.5154840000000  0.5561570000000  0.4305250000000 1.0
C      1  0.5676210000000  0.4575720000000  0.5534500000000 1.0
C      1  0.5558950000000  0.4716630000000  0.4241000000000 1.0
C      1  0.5180260000000  0.5740950000000  0.5423300000000 1.0
C      1  0.5956950000000  0.5124360000000  0.4594070000000 1.0
C      1  0.5305110000000  0.4884080000000  0.5311430000000 1.0
C      1  0.5269720000000  0.4428710000000  0.5004520000000 1.0
C      1  0.5886690000000  0.4408990000000  0.4860600000000 1.0
C      1  0.4276240000000  0.4769940000000  0.4774770000000 1.0
C      1  0.4262150000000  0.4453640000000  0.4774840000000 1.0
C      1  0.4917120000000  0.5913390000000  0.5090710000000 1.0
C      1  0.4661610000000  0.5175790000000  0.4187270000000 1.0
C      1  0.4748010000000  0.4479220000000  0.5263420000000 1.0
C      1  0.4679150000000  0.5074470000000  0.4646480000000 1.0
C      1  0.5651790000000  0.4239330000000  0.4902480000000 1.0
C      1  0.5570880000000  0.4251050000000  0.4435280000000 1.0
C      1  0.5551540000000  0.4155430000000  0.5153130000000 1.0
C      1  0.5596360000000  0.4766970000000  0.5740380000000 1.0
C      1  0.5040820000000  0.4859490000000  0.4482610000000 1.0
C      1  0.5074330000000  0.3982290000000  0.4896310000000 1.0
C      1  0.4678550000000  0.5673850000000  0.4255040000000 1.0
C      1  0.5093130000000  0.5358280000000  0.4525950000000 1.0
C      1  0.5315640000000  0.5113120000000  0.6086360000000 1.0
C      1  0.5849240000000  0.4598570000000  0.4632850000000 1.0
C      1  0.5595030000000  0.5677630000000  0.4550990000000 1.0
C      1  0.5623560000000  0.4995140000000  0.4336940000000 1.0
C      1  0.4817540000000  0.5182160000000  0.5118350000000 1.0
C      1  0.4476090000000  0.5017820000000  0.4862040000000 1.0
C      1  0.4536640000000  0.4533950000000  0.4389270000000 1.0
C      1  0.5068550000000  0.4703650000000  0.3941010000000 1.0
C      1  0.4929620000000  0.5772170000000  0.4333810000000 1.0
C      1  0.4636780000000  0.5129020000000  0.5626670000000 1.0
C      1  0.4473700000000  0.4345680000000  0.4600370000000 1.0
C      1  0.4516260000000  0.4175230000000  0.5043880000000 1.0
C      1  0.5072220000000  0.4509830000000  0.5263900000000 1.0
C      1  0.5061060000000  0.4079410000000  0.5178120000000 1.0
C      1  0.5811230000000  0.5320240000000  0.4750540000000 1.0
C      1  0.4398090000000  0.5304180000000  0.4915140000000 1.0
C      1  0.5190430000000  0.5529610000000  0.5833730000000 1.0
C      1  0.4812100000000  0.4052320000000  0.5352060000000 1.0
C      1  0.4294680000000  0.4689920000000  0.4355350000000 1.0
C      1  0.5468810000000  0.5535350000000  0.4321580000000 1.0
C      1  0.5211780000000  0.5955840000000  0.5205810000000 1.0
C      1  0.4592930000000  0.4596950000000  0.4938440000000 1.0
C      1  0.4568130000000  0.4968340000000  0.4376640000000 1.0
C      1  0.4822630000000  0.5549060000000  0.4864850000000 1.0
C      1  0.3994560000000  0.5150740000000  0.4823660000000 1.0
C      1  0.5940640000000  0.5070310000000  0.5174250000000 1.0
C      1  0.5178030000000  0.4469380000000  0.5689140000000 1.0
C      1  0.6021030000000  0.4864650000000  0.4985580000000 1.0
C      1  0.4611180000000  0.5561800000000  0.5331130000000 1.0
C      1  0.5022010000000  0.4822520000000  0.5257240000000 1.0
C      1  0.4243740000000  0.5835080000000  0.5042330000000 1.0
C      1  0.4902220000000  0.4695910000000  0.4908610000000 1.0
C      1  0.4363890000000  0.4481240000000  0.5514660000000 1.0
C      1  0.4916820000000  0.5800970000000  0.5557590000000 1.0
C      1  0.4265410000000  0.4334980000000  0.5052490000000 1.0
C      1  0.4606650000000  0.4742150000000  0.5350800000000 1.0
C      1  0.4644460000000  0.5416100000000  0.5061730000000 1.0
C      1  0.4734210000000  0.4479810000000  0.4178680000000 1.0
C      1  0.5938850000000  0.5349740000000  0.5112320000000 1.0
C      1  0.5404460000000  0.5804970000000  0.4762020000000 1.0
C      1  0.4532300000000  0.5435190000000  0.4277410000000 1.0
C      1  0.5432920000000  0.4699890000000  0.4731250000000 1.0
C      1  0.5111630000000  0.5537500000000  0.4962070000000 1.0
C      1  0.4506710000000  0.4639220000000  0.5915480000000 1.0
C      1  0.5284910000000  0.5437540000000  0.4746090000000 1.0
C      1  0.4787180000000  0.5056510000000  0.3947080000000 1.0
C      1  0.5452070000000  0.5004740000000  0.4586880000000 1.0
C      1  0.5346040000000  0.5284400000000  0.5867140000000 1.0
C      1  0.5839050000000  0.5577760000000  0.4630470000000 1.0
C      1  0.4288580000000  0.4641230000000  0.5749590000000 1.0
C      1  0.4623350000000  0.4956640000000  0.5123040000000 1.0
C      1  0.4997520000000  0.4362690000000  0.4242200000000 1.0
C      1  0.4098980000000  0.4815930000000  0.5180440000000 1.0
C      1  0.4528540000000  0.5471800000000  0.5878010000000 1.0
C      1  0.4251940000000  0.5123460000000  0.5562700000000 1.0
C      1  0.4156610000000  0.5205230000000  0.4558400000000 1.0
C      1  0.5939850000000  0.4871270000000  0.4711560000000 1.0
C      1  0.5109730000000  0.5419780000000  0.4059480000000 1.0
C      1  0.5077070000000  0.4995090000000  0.3919280000000 1.0
C      1  0.5081770000000  0.4488180000000  0.4771950000000 1.0
C      1  0.5305500000000  0.4274030000000  0.5539570000000 1.0
C      1  0.4893250000000  0.4099340000000  0.4703840000000 1.0
C      1  0.5318660000000  0.4118050000000  0.5310440000000 1.0
C      1  0.5183630000000  0.5463930000000  0.5246000000000 1.0
C      1  0.4057380000000  0.5706610000000  0.4840430000000 1.0
C      1  0.4777630000000  0.4674380000000  0.3971110000000 1.0
C      1  0.4259510000000  0.4979890000000  0.4388230000000 1.0
C      1  0.4777590000000  0.5085310000000  0.6104770000000 1.0
C      1  0.4880030000000  0.5565910000000  0.5749020000000 1.0
C      1  0.4601710000000  0.5192750000000  0.5916290000000 1.0
C      1  0.4138600000000  0.5298170000000  0.5072350000000 1.0
C      1  0.5204430000000  0.4622170000000  0.4525390000000 1.0
C      1  0.5450770000000  0.5328120000000  0.5221820000000 1.0
C      1  0.5575350000000  0.4652790000000  0.5042650000000 1.0
C      1  0.5605580000000  0.5553080000000  0.5570220000000 1.0
C      1  0.5217700000000  0.5979710000000  0.4638920000000 1.0
C      1  0.5544750000000  0.4108240000000  0.4675770000000 1.0
C      1  0.5365220000000  0.5694250000000  0.5651020000000 1.0
C      1  0.5453250000000  0.4628920000000  0.5323060000000 1.0
C      1  0.5672520000000  0.4513470000000  0.4414620000000 1.0
C      1  0.5317850000000  0.4702390000000  0.5808010000000 1.0
C      1  0.4156800000000  0.5085760000000  0.5284700000000 1.0
C      1  0.5320840000000  0.3964370000000  0.4760440000000 1.0
C      1  0.5245520000000  0.5164200000000  0.4109990000000 1.0
C      1  0.4177920000000  0.4895540000000  0.5719130000000 1.0
C      1  0.4633360000000  0.4190470000000  0.4780340000000 1.0
C      1  0.5509930000000  0.5225650000000  0.4795020000000 1.0
C      1  0.4369530000000  0.5427080000000  0.4541580000000 1.0
C      1  0.4306910000000  0.5420700000000  0.5673910000000 1.0
C      1  0.4781520000000  0.5373520000000  0.5518160000000 1.0
C      1  0.5914360000000  0.4614140000000  0.5099340000000 1.0
C      1  0.5919980000000  0.4965760000000  0.5448170000000 1.0
C      1  0.4912140000000  0.4852980000000  0.6027830000000 1.0
C      1  0.4800320000000  0.5365770000000  0.4619790000000 1.0
C      1  0.4772680000000  0.4690980000000  0.5819830000000 1.0
C      1  0.5229470000000  0.4546640000000  0.4144730000000 1.0
C      1  0.5467750000000  0.5899030000000  0.5058770000000 1.0
C      1  0.4331100000000  0.5590820000000  0.5433850000000 1.0
C      1  0.4990910000000  0.5255020000000  0.5343960000000 1.0
END
