TITL C-951346-9544-650 -4.39044270263571e-07 125000 -801.207142734918 0 0 129 (C1) n - 1
REM
REM in /home/bkarasulu/work/CARBON/AIRSS/Generating-Clusters/EDIP-Nigel-Params/with-SteepDescent/Only-C1/SD-CG/HFTN-CG
REM
REM
REM
REM
REM
REM ./C.cell (11c1c37f851c82e70ff6c80c92926a4b)
REM
REM compiler GCC version 9.2.1 20190827 (Red Hat 9.2.1-1)
REM options -cpp -mtune=generic -march=x86-64 -g -O0 -fpre-include=/usr/include/finclude/math-vector-fortran.h
REM seed -164526768 22822146 -1860715808 -1668872433 -1499628953 -46547805 1979083793 -1414249632 -193498612 -1814288278 -47775193 -1536244301 -451328163 848928868 -478706512 -14317065 498211374 -2068022623 359153153 -131857205 -2097332304 2047431217 1649105106 1252194261 1217281735 -1234286918 129633402 16261045 -3746542 1545955628 600826624 -649365308 488491008
REM
CELL 1.54180   50.00000   50.00000   50.00000   90.00000   90.00000   90.00000
LATT -1
SFAC C  
C      1  0.5351370000000  0.4839620000000  0.4137120000000 1.0
C      1  0.4766980000000  0.5632820000000  0.4395060000000 1.0
C      1  0.4319530000000  0.5665780000000  0.5064840000000 1.0
C      1  0.4591360000000  0.5962870000000  0.4726020000000 1.0
C      1  0.4811930000000  0.4990720000000  0.4164050000000 1.0
C      1  0.5411030000000  0.5039210000000  0.5089290000000 1.0
C      1  0.5618430000000  0.4299360000000  0.4688070000000 1.0
C      1  0.5295130000000  0.4530120000000  0.4868710000000 1.0
C      1  0.5057060000000  0.4123480000000  0.4999440000000 1.0
C      1  0.4670250000000  0.4205340000000  0.5355260000000 1.0
C      1  0.5162330000000  0.4195090000000  0.5515610000000 1.0
C      1  0.5518240000000  0.4091390000000  0.4877320000000 1.0
C      1  0.4635340000000  0.4204270000000  0.5651260000000 1.0
C      1  0.4528530000000  0.4471430000000  0.5711650000000 1.0
C      1  0.5335980000000  0.5450910000000  0.4756360000000 1.0
C      1  0.4415810000000  0.4885930000000  0.4451370000000 1.0
C      1  0.5357590000000  0.4828920000000  0.4866630000000 1.0
C      1  0.5009300000000  0.4759330000000  0.5509350000000 1.0
C      1  0.5687380000000  0.4608760000000  0.5173190000000 1.0
C      1  0.4902140000000  0.5034280000000  0.5835330000000 1.0
C      1  0.4851240000000  0.4705540000000  0.4132140000000 1.0
C      1  0.5117410000000  0.5115640000000  0.5170580000000 1.0
C      1  0.5820310000000  0.5169290000000  0.4666640000000 1.0
C      1  0.5191260000000  0.4918600000000  0.6066370000000 1.0
C      1  0.4291770000000  0.5334680000000  0.5444490000000 1.0
C      1  0.4586800000000  0.5723210000000  0.5541440000000 1.0
C      1  0.5374740000000  0.5172760000000  0.5709800000000 1.0
C      1  0.5246360000000  0.4024660000000  0.4780040000000 1.0
C      1  0.5223610000000  0.4094130000000  0.4506880000000 1.0
C      1  0.4832900000000  0.4567530000000  0.4637630000000 1.0
C      1  0.5451150000000  0.5387230000000  0.5524850000000 1.0
C      1  0.4388170000000  0.5530630000000  0.4707470000000 1.0
C      1  0.4157180000000  0.4748330000000  0.5499790000000 1.0
C      1  0.6019000000000  0.4904720000000  0.4965380000000 1.0
C      1  0.4619520000000  0.5364240000000  0.4967960000000 1.0
C      1  0.4925460000000  0.4331360000000  0.5431080000000 1.0
C      1  0.4622370000000  0.4516760000000  0.4216900000000 1.0
C      1  0.5210180000000  0.4878080000000  0.4620290000000 1.0
C      1  0.5029390000000  0.5059830000000  0.5465480000000 1.0
C      1  0.4400090000000  0.4349070000000  0.4562740000000 1.0
C      1  0.4538130000000  0.5327340000000  0.4321600000000 1.0
C      1  0.4202900000000  0.5087660000000  0.4549840000000 1.0
C      1  0.4480940000000  0.4425710000000  0.5264990000000 1.0
C      1  0.4295600000000  0.4486250000000  0.5501330000000 1.0
C      1  0.4361230000000  0.4634090000000  0.4302480000000 1.0
C      1  0.5085460000000  0.5511480000000  0.4886000000000 1.0
C      1  0.5839560000000  0.4680630000000  0.4941050000000 1.0
C      1  0.5655220000000  0.5318750000000  0.5334230000000 1.0
C      1  0.4303030000000  0.5354220000000  0.4487020000000 1.0
C      1  0.5959010000000  0.4600270000000  0.4480490000000 1.0
C      1  0.4755770000000  0.5944560000000  0.5434520000000 1.0
C      1  0.5917680000000  0.5210840000000  0.5388870000000 1.0
C      1  0.5363430000000  0.4395530000000  0.5621160000000 1.0
C      1  0.5341290000000  0.6046780000000  0.4580720000000 1.0
C      1  0.5231210000000  0.5557090000000  0.5411810000000 1.0
C      1  0.5545210000000  0.4820750000000  0.5340830000000 1.0
C      1  0.6030550000000  0.5031710000000  0.5212180000000 1.0
C      1  0.4957630000000  0.4993880000000  0.4685410000000 1.0
C      1  0.4126440000000  0.5336520000000  0.4994530000000 1.0
C      1  0.5283660000000  0.4610470000000  0.5423450000000 1.0
C      1  0.4198420000000  0.4910730000000  0.5239020000000 1.0
C      1  0.4956120000000  0.6087370000000  0.4995730000000 1.0
C      1  0.4499310000000  0.4942270000000  0.5248150000000 1.0
C      1  0.4735110000000  0.5978630000000  0.5148760000000 1.0
C      1  0.4239180000000  0.4882750000000  0.5732160000000 1.0
C      1  0.5541910000000  0.4947000000000  0.5767070000000 1.0
C      1  0.4506680000000  0.5135010000000  0.5504770000000 1.0
C      1  0.5408240000000  0.5963010000000  0.4841850000000 1.0
C      1  0.4813530000000  0.3975830000000  0.5001980000000 1.0
C      1  0.5039060000000  0.5925420000000  0.5541190000000 1.0
C      1  0.5792260000000  0.5466240000000  0.4906560000000 1.0
C      1  0.5844960000000  0.4494890000000  0.4715930000000 1.0
C      1  0.5423360000000  0.5086180000000  0.4295720000000 1.0
C      1  0.5233600000000  0.4065860000000  0.5255750000000 1.0
C      1  0.4980000000000  0.5230190000000  0.4151500000000 1.0
C      1  0.5229630000000  0.6020970000000  0.5065720000000 1.0
C      1  0.5163020000000  0.5171640000000  0.5914420000000 1.0
C      1  0.5264760000000  0.5599750000000  0.4343270000000 1.0
C      1  0.5721050000000  0.4859780000000  0.5573620000000 1.0
C      1  0.6073130000000  0.5053630000000  0.4736880000000 1.0
C      1  0.5134960000000  0.4605030000000  0.4517940000000 1.0
C      1  0.4129470000000  0.4827390000000  0.4957920000000 1.0
C      1  0.5023380000000  0.5778560000000  0.4328630000000 1.0
C      1  0.5409290000000  0.4765580000000  0.5954660000000 1.0
C      1  0.4861890000000  0.5239040000000  0.4523100000000 1.0
C      1  0.4659780000000  0.5173790000000  0.5919650000000 1.0
C      1  0.4652000000000  0.4677500000000  0.5277940000000 1.0
C      1  0.5496820000000  0.4155730000000  0.5163340000000 1.0
C      1  0.4345300000000  0.4398560000000  0.4999100000000 1.0
C      1  0.5757870000000  0.4761620000000  0.4371610000000 1.0
C      1  0.4985340000000  0.4464960000000  0.4910150000000 1.0
C      1  0.5128450000000  0.4630470000000  0.4203780000000 1.0
C      1  0.4117400000000  0.5089850000000  0.4826680000000 1.0
C      1  0.5220640000000  0.5306880000000  0.4286030000000 1.0
C      1  0.4908710000000  0.4963270000000  0.4982590000000 1.0
C      1  0.5431830000000  0.4280030000000  0.4465220000000 1.0
C      1  0.4770740000000  0.5277620000000  0.5485230000000 1.0
C      1  0.4487610000000  0.5919840000000  0.5001240000000 1.0
C      1  0.5376390000000  0.4494820000000  0.5883340000000 1.0
C      1  0.4821760000000  0.5461530000000  0.4741020000000 1.0
C      1  0.5690560000000  0.5039850000000  0.4427910000000 1.0
C      1  0.4753880000000  0.4669130000000  0.5649120000000 1.0
C      1  0.4888700000000  0.4682150000000  0.5092020000000 1.0
C      1  0.4574760000000  0.3992750000000  0.4883340000000 1.0
C      1  0.5585090000000  0.4653060000000  0.4165830000000 1.0
C      1  0.5063960000000  0.6019550000000  0.4499190000000 1.0
C      1  0.5800150000000  0.5514710000000  0.5183050000000 1.0
C      1  0.5051520000000  0.5646870000000  0.5657750000000 1.0
C      1  0.5261190000000  0.5929200000000  0.5338160000000 1.0
C      1  0.5069530000000  0.5415060000000  0.5164280000000 1.0
C      1  0.5542300000000  0.5294880000000  0.4906620000000 1.0
C      1  0.4569310000000  0.4794410000000  0.4716580000000 1.0
C      1  0.4875700000000  0.6031230000000  0.4727680000000 1.0
C      1  0.4392730000000  0.5591840000000  0.5350350000000 1.0
C      1  0.4311330000000  0.4631030000000  0.4817180000000 1.0
C      1  0.4401190000000  0.5058810000000  0.5871660000000 1.0
C      1  0.4685920000000  0.5451540000000  0.5942660000000 1.0
C      1  0.5484640000000  0.4368930000000  0.4191760000000 1.0
C      1  0.4682890000000  0.4370290000000  0.4467170000000 1.0
C      1  0.4775250000000  0.5527320000000  0.5675690000000 1.0
C      1  0.4113360000000  0.5205330000000  0.5254950000000 1.0
C      1  0.4613410000000  0.5052750000000  0.4980280000000 1.0
C      1  0.4535380000000  0.5739510000000  0.4557570000000 1.0
C      1  0.4781590000000  0.5424520000000  0.5219260000000 1.0
C      1  0.4382950000000  0.4181640000000  0.4815370000000 1.0
C      1  0.5435990000000  0.4446750000000  0.5134250000000 1.0
C      1  0.4560320000000  0.5055070000000  0.4259010000000 1.0
C      1  0.5432000000000  0.5672920000000  0.4584880000000 1.0
C      1  0.5222870000000  0.4379270000000  0.4070850000000 1.0
END
