TITL C-951345-2650-402 -2.23548122931719e-06 125000 -843.05020923682 0 0 137 (C1) n - 1
REM
REM in /home/bkarasulu/work/CARBON/AIRSS/Generating-Clusters/EDIP-Nigel-Params/with-SteepDescent/Only-C1/SD-CG/HFTN-CG
REM
REM
REM
REM
REM
REM ./C.cell (11c1c37f851c82e70ff6c80c92926a4b)
REM
REM compiler GCC version 9.2.1 20190827 (Red Hat 9.2.1-1)
REM options -cpp -mtune=generic -march=x86-64 -g -O0 -fpre-include=/usr/include/finclude/math-vector-fortran.h
REM seed -1692517038 -1526892426 -1241512727 -663519918 1856950336 -741244784 1931847489 -1972549903 -354019956 531801254 1029978638 -1011866345 -646009711 2035064031 1640346996 1895776703 -666406280 1920161509 1729133803 -1013761834 1036853970 1410458975 -114497030 -213812700 -1254829921 -184007939 -444233084 -2105148908 2112512547 -676501439 -163406200 -1730247494 -906702994
REM
CELL 1.54180   50.00000   50.00000   50.00000   90.00000   90.00000   90.00000
LATT -1
SFAC C  
C      1  0.5932400000000  0.4693230000000  0.4798170000000 1.0
C      1  0.6043050000000  0.4722890000000  0.5050910000000 1.0
C      1  0.4419670000000  0.5700540000000  0.4842170000000 1.0
C      1  0.5774330000000  0.5709500000000  0.4871870000000 1.0
C      1  0.4396330000000  0.4371080000000  0.4658100000000 1.0
C      1  0.4783990000000  0.4424090000000  0.4226200000000 1.0
C      1  0.3918750000000  0.5071090000000  0.5041910000000 1.0
C      1  0.5313930000000  0.5655390000000  0.4481240000000 1.0
C      1  0.4845640000000  0.5577490000000  0.4157270000000 1.0
C      1  0.5450980000000  0.5278320000000  0.4740710000000 1.0
C      1  0.5178040000000  0.5927900000000  0.4557020000000 1.0
C      1  0.4610480000000  0.5647840000000  0.4290980000000 1.0
C      1  0.5551640000000  0.4854540000000  0.4552350000000 1.0
C      1  0.5175730000000  0.5771930000000  0.5736370000000 1.0
C      1  0.5086120000000  0.5998250000000  0.5131600000000 1.0
C      1  0.5095620000000  0.5452870000000  0.4314240000000 1.0
C      1  0.5846750000000  0.5565470000000  0.5137900000000 1.0
C      1  0.5145870000000  0.4605050000000  0.5942110000000 1.0
C      1  0.5386820000000  0.4665610000000  0.4699230000000 1.0
C      1  0.4696070000000  0.4074150000000  0.5116790000000 1.0
C      1  0.4572020000000  0.5088660000000  0.5915780000000 1.0
C      1  0.5084850000000  0.5251110000000  0.3933280000000 1.0
C      1  0.5311660000000  0.5538880000000  0.4758740000000 1.0
C      1  0.4151190000000  0.4629890000000  0.5503490000000 1.0
C      1  0.5502390000000  0.5316110000000  0.4062070000000 1.0
C      1  0.5126490000000  0.5250500000000  0.5208890000000 1.0
C      1  0.4745010000000  0.5660730000000  0.5495130000000 1.0
C      1  0.5943700000000  0.4815700000000  0.5293240000000 1.0
C      1  0.5387570000000  0.4374330000000  0.4275000000000 1.0
C      1  0.5428060000000  0.3982310000000  0.5169840000000 1.0
C      1  0.4664280000000  0.4210350000000  0.4644430000000 1.0
C      1  0.5236190000000  0.5321320000000  0.5880630000000 1.0
C      1  0.5342520000000  0.4240210000000  0.4551030000000 1.0
C      1  0.4862390000000  0.4691840000000  0.5973510000000 1.0
C      1  0.5008540000000  0.5546240000000  0.4816840000000 1.0
C      1  0.5346170000000  0.4483360000000  0.5523580000000 1.0
C      1  0.4839980000000  0.5960170000000  0.4942670000000 1.0
C      1  0.5656490000000  0.4462740000000  0.4252560000000 1.0
C      1  0.5215150000000  0.4374660000000  0.5773630000000 1.0
C      1  0.4760430000000  0.4243980000000  0.5582770000000 1.0
C      1  0.4935470000000  0.4619240000000  0.4107390000000 1.0
C      1  0.5324720000000  0.5099820000000  0.4201320000000 1.0
C      1  0.5794220000000  0.4930530000000  0.4713880000000 1.0
C      1  0.5548770000000  0.5780620000000  0.5440450000000 1.0
C      1  0.4457530000000  0.4918960000000  0.4853810000000 1.0
C      1  0.5254330000000  0.4845180000000  0.5786420000000 1.0
C      1  0.5618210000000  0.5625120000000  0.4419580000000 1.0
C      1  0.5586190000000  0.4270910000000  0.4748450000000 1.0
C      1  0.4684760000000  0.5170570000000  0.5314810000000 1.0
C      1  0.5629360000000  0.4745810000000  0.4273520000000 1.0
C      1  0.5445800000000  0.5365610000000  0.5680860000000 1.0
C      1  0.4500070000000  0.5231620000000  0.4844420000000 1.0
C      1  0.4705470000000  0.4555910000000  0.4918690000000 1.0
C      1  0.3963310000000  0.5201340000000  0.4784200000000 1.0
C      1  0.5101180000000  0.4418920000000  0.4638810000000 1.0
C      1  0.5440640000000  0.5278340000000  0.5249000000000 1.0
C      1  0.4699900000000  0.5367570000000  0.4664530000000 1.0
C      1  0.5272400000000  0.5459550000000  0.3968310000000 1.0
C      1  0.5202490000000  0.4758600000000  0.5500210000000 1.0
C      1  0.5629190000000  0.5135400000000  0.5576490000000 1.0
C      1  0.4452480000000  0.5605120000000  0.5625470000000 1.0
C      1  0.5142360000000  0.4707850000000  0.5066640000000 1.0
C      1  0.4871240000000  0.4302390000000  0.4461650000000 1.0
C      1  0.4936410000000  0.5246400000000  0.4514420000000 1.0
C      1  0.4286560000000  0.4417100000000  0.4935860000000 1.0
C      1  0.4187670000000  0.5430310000000  0.5202250000000 1.0
C      1  0.5870710000000  0.5216440000000  0.4814070000000 1.0
C      1  0.4917870000000  0.4763040000000  0.5440450000000 1.0
C      1  0.5002800000000  0.5520200000000  0.5118930000000 1.0
C      1  0.5343900000000  0.6005220000000  0.4963000000000 1.0
C      1  0.5027360000000  0.4267600000000  0.5457700000000 1.0
C      1  0.4101600000000  0.5161280000000  0.5254400000000 1.0
C      1  0.4400310000000  0.4643870000000  0.4512630000000 1.0
C      1  0.5454600000000  0.4337710000000  0.5005510000000 1.0
C      1  0.4323610000000  0.4781960000000  0.5301140000000 1.0
C      1  0.4990100000000  0.4468560000000  0.4944440000000 1.0
C      1  0.4599530000000  0.4487660000000  0.5577960000000 1.0
C      1  0.4450690000000  0.4270990000000  0.5139550000000 1.0
C      1  0.5557740000000  0.4215170000000  0.5254860000000 1.0
C      1  0.5395070000000  0.4824410000000  0.4115100000000 1.0
C      1  0.4261380000000  0.5587230000000  0.5423560000000 1.0
C      1  0.5215690000000  0.3976160000000  0.4569570000000 1.0
C      1  0.5145240000000  0.5739880000000  0.5256080000000 1.0
C      1  0.4591940000000  0.4026140000000  0.5478600000000 1.0
C      1  0.4577180000000  0.5340830000000  0.5755420000000 1.0
C      1  0.4935660000000  0.5817910000000  0.4701600000000 1.0
C      1  0.4496150000000  0.4992720000000  0.5497810000000 1.0
C      1  0.4751800000000  0.4978950000000  0.5092580000000 1.0
C      1  0.4653780000000  0.4695180000000  0.5190310000000 1.0
C      1  0.5841140000000  0.4622010000000  0.5458280000000 1.0
C      1  0.5313210000000  0.6120410000000  0.4710140000000 1.0
C      1  0.4841560000000  0.4983590000000  0.5992740000000 1.0
C      1  0.4352300000000  0.4905380000000  0.5877010000000 1.0
C      1  0.5044840000000  0.5540740000000  0.5869100000000 1.0
C      1  0.5408130000000  0.4634570000000  0.4984360000000 1.0
C      1  0.4243640000000  0.4724210000000  0.4993910000000 1.0
C      1  0.4158180000000  0.5103090000000  0.4593300000000 1.0
C      1  0.4339420000000  0.4174870000000  0.5403960000000 1.0
C      1  0.4949030000000  0.5204890000000  0.5455100000000 1.0
C      1  0.4157700000000  0.4813810000000  0.4547210000000 1.0
C      1  0.4718350000000  0.5546970000000  0.5214470000000 1.0
C      1  0.5803160000000  0.4453480000000  0.4719120000000 1.0
C      1  0.4632040000000  0.4743770000000  0.4688490000000 1.0
C      1  0.5056150000000  0.3913910000000  0.4800180000000 1.0
C      1  0.5555910000000  0.4883040000000  0.5738280000000 1.0
C      1  0.4421260000000  0.5145320000000  0.4195510000000 1.0
C      1  0.5790900000000  0.5540990000000  0.4640080000000 1.0
C      1  0.4757620000000  0.3992630000000  0.4824880000000 1.0
C      1  0.4305610000000  0.5445520000000  0.4925220000000 1.0
C      1  0.4856070000000  0.5422430000000  0.5658270000000 1.0
C      1  0.5163540000000  0.4009620000000  0.5058210000000 1.0
C      1  0.4795870000000  0.4852990000000  0.4045170000000 1.0
C      1  0.5002460000000  0.5853930000000  0.5490630000000 1.0
C      1  0.4701070000000  0.4760440000000  0.5645490000000 1.0
C      1  0.5214020000000  0.4610810000000  0.4197010000000 1.0
C      1  0.5556820000000  0.5577410000000  0.5234830000000 1.0
C      1  0.4673700000000  0.5101340000000  0.4089320000000 1.0
C      1  0.4820440000000  0.5329840000000  0.3990120000000 1.0
C      1  0.5937790000000  0.5279780000000  0.5109490000000 1.0
C      1  0.5084090000000  0.5041190000000  0.4665750000000 1.0
C      1  0.5616640000000  0.4615520000000  0.5619110000000 1.0
C      1  0.5678540000000  0.5474930000000  0.4197810000000 1.0
C      1  0.4318200000000  0.4408770000000  0.5597870000000 1.0
C      1  0.5355290000000  0.5086580000000  0.4532840000000 1.0
C      1  0.5470710000000  0.5725470000000  0.4949970000000 1.0
C      1  0.5531820000000  0.5154610000000  0.4993060000000 1.0
C      1  0.4092090000000  0.5086880000000  0.5527490000000 1.0
C      1  0.5437520000000  0.5656170000000  0.5658060000000 1.0
C      1  0.5047420000000  0.4993100000000  0.4985260000000 1.0
C      1  0.4477530000000  0.5518360000000  0.4506350000000 1.0
C      1  0.5087860000000  0.5076420000000  0.5853840000000 1.0
C      1  0.5824840000000  0.5083030000000  0.5316220000000 1.0
C      1  0.4976930000000  0.4216080000000  0.5155230000000 1.0
C      1  0.3978230000000  0.4821570000000  0.4886370000000 1.0
C      1  0.4613190000000  0.5782500000000  0.5043730000000 1.0
C      1  0.4296830000000  0.5285890000000  0.4401550000000 1.0
C      1  0.4127630000000  0.4862930000000  0.5698660000000 1.0
END
