TITL C-950527-2551-141 -3.39009033987748e-06 125000 -471.385802786204 0 0 77 (C1) n - 1
REM
REM in /home/bkarasulu/work/CARBON/AIRSS/Generating-Clusters/EDIP-Nigel-Params/with-SteepDescent/Only-C1/SD-CG/HFTN-CG
REM
REM
REM
REM
REM
REM ./C.cell (11c1c37f851c82e70ff6c80c92926a4b)
REM
REM compiler GCC version 9.2.1 20190827 (Red Hat 9.2.1-1)
REM options -cpp -mtune=generic -march=x86-64 -g -O0 -fpre-include=/usr/include/finclude/math-vector-fortran.h
REM seed 1908478876 1224604898 -831794124 70176512 -1221595815 1489993458 -136913704 1013744709 -1218272461 -1604129573 -1518476542 -1842790859 1872985598 1018654814 -1910453122 390565287 830873450 1672073545 -803508062 -1123992288 401371071 -41285785 -344810338 -1296927552 789768841 687339301 -1065641077 -127023367 384165316 580678899 1987142447 -241157342 -1765173245
REM
CELL 1.54180   50.00000   50.00000   50.00000   90.00000   90.00000   90.00000
LATT -1
SFAC C  
C      1  0.4696250000000  0.5008990000000  0.5805910000000 1.0
C      1  0.4576410000000  0.5720180000000  0.4761740000000 1.0
C      1  0.5107830000000  0.4261430000000  0.5095510000000 1.0
C      1  0.4852680000000  0.4781160000000  0.4752950000000 1.0
C      1  0.5090180000000  0.4395800000000  0.5345480000000 1.0
C      1  0.4882970000000  0.5361800000000  0.5493920000000 1.0
C      1  0.5533100000000  0.4529560000000  0.5067520000000 1.0
C      1  0.4493340000000  0.4825080000000  0.5537930000000 1.0
C      1  0.4709870000000  0.4873880000000  0.4983510000000 1.0
C      1  0.4988300000000  0.4370480000000  0.4658620000000 1.0
C      1  0.4543430000000  0.5356140000000  0.5101100000000 1.0
C      1  0.4513080000000  0.5280340000000  0.4583880000000 1.0
C      1  0.5094190000000  0.4578020000000  0.4431240000000 1.0
C      1  0.4668090000000  0.5209440000000  0.4134690000000 1.0
C      1  0.5829630000000  0.5020960000000  0.4933430000000 1.0
C      1  0.4868380000000  0.5253020000000  0.5785420000000 1.0
C      1  0.5529030000000  0.5111190000000  0.5305190000000 1.0
C      1  0.5704140000000  0.5057450000000  0.4673340000000 1.0
C      1  0.4883560000000  0.5703840000000  0.5209560000000 1.0
C      1  0.5292450000000  0.4991510000000  0.5160290000000 1.0
C      1  0.5360860000000  0.4313510000000  0.4947940000000 1.0
C      1  0.4380060000000  0.4739960000000  0.4577800000000 1.0
C      1  0.5491730000000  0.5257630000000  0.4719160000000 1.0
C      1  0.5377800000000  0.4696060000000  0.5786810000000 1.0
C      1  0.5444200000000  0.4480040000000  0.5596850000000 1.0
C      1  0.5075620000000  0.4905390000000  0.5368130000000 1.0
C      1  0.4702100000000  0.5819050000000  0.4542900000000 1.0
C      1  0.4273850000000  0.4694940000000  0.4853850000000 1.0
C      1  0.4602010000000  0.4932100000000  0.4134170000000 1.0
C      1  0.5454350000000  0.5420390000000  0.4472640000000 1.0
C      1  0.4853370000000  0.4755190000000  0.5788260000000 1.0
C      1  0.4336300000000  0.4939590000000  0.4256570000000 1.0
C      1  0.5694890000000  0.4668460000000  0.4876840000000 1.0
C      1  0.5442390000000  0.5317900000000  0.5512190000000 1.0
C      1  0.4940520000000  0.5383860000000  0.4587340000000 1.0
C      1  0.5008840000000  0.5320120000000  0.4903430000000 1.0
C      1  0.4489700000000  0.5461900000000  0.4819250000000 1.0
C      1  0.5656890000000  0.4880580000000  0.5451480000000 1.0
C      1  0.4909820000000  0.4643110000000  0.5304360000000 1.0
C      1  0.5577920000000  0.4917810000000  0.5740770000000 1.0
C      1  0.5723760000000  0.5231720000000  0.5113850000000 1.0
C      1  0.5352870000000  0.4785820000000  0.4417840000000 1.0
C      1  0.5239980000000  0.4291390000000  0.5561710000000 1.0
C      1  0.5096940000000  0.4933700000000  0.4671410000000 1.0
C      1  0.4326730000000  0.5057010000000  0.4530560000000 1.0
C      1  0.4681720000000  0.5539010000000  0.5317900000000 1.0
C      1  0.5345700000000  0.5674020000000  0.4510220000000 1.0
C      1  0.5180640000000  0.5642480000000  0.4739620000000 1.0
C      1  0.4589040000000  0.5401590000000  0.4327900000000 1.0
C      1  0.5029830000000  0.5122830000000  0.4449810000000 1.0
C      1  0.4777900000000  0.5158570000000  0.5068220000000 1.0
C      1  0.5580020000000  0.5436100000000  0.4940130000000 1.0
C      1  0.4308700000000  0.5223430000000  0.5200190000000 1.0
C      1  0.4780840000000  0.4740420000000  0.4279090000000 1.0
C      1  0.5270750000000  0.5061790000000  0.4285060000000 1.0
C      1  0.5230990000000  0.5509030000000  0.5475390000000 1.0
C      1  0.4677410000000  0.4666350000000  0.4542320000000 1.0
C      1  0.4875380000000  0.5116570000000  0.5337620000000 1.0
C      1  0.5561950000000  0.4611310000000  0.5358860000000 1.0
C      1  0.5327080000000  0.5602340000000  0.4994200000000 1.0
C      1  0.5142600000000  0.5592850000000  0.5219760000000 1.0
C      1  0.4082470000000  0.4882540000000  0.4946370000000 1.0
C      1  0.4796710000000  0.5595620000000  0.4398330000000 1.0
C      1  0.5429910000000  0.5186630000000  0.5774320000000 1.0
C      1  0.4621490000000  0.4404230000000  0.5085390000000 1.0
C      1  0.4893150000000  0.4385100000000  0.4944900000000 1.0
C      1  0.5589270000000  0.4794110000000  0.4625970000000 1.0
C      1  0.4646480000000  0.4369740000000  0.5377050000000 1.0
C      1  0.5230230000000  0.5114150000000  0.4879760000000 1.0
C      1  0.5434480000000  0.5283620000000  0.4231130000000 1.0
C      1  0.5138880000000  0.5112770000000  0.5850240000000 1.0
C      1  0.4341960000000  0.4770900000000  0.5303460000000 1.0
C      1  0.5277630000000  0.4328920000000  0.4665580000000 1.0
C      1  0.5123310000000  0.4852980000000  0.5701280000000 1.0
C      1  0.4169520000000  0.4981350000000  0.5197530000000 1.0
C      1  0.4489200000000  0.4679350000000  0.5057040000000 1.0
C      1  0.4704340000000  0.4621850000000  0.5558050000000 1.0
END
