TITL C-951338-5626-687 1.13226601374781e-06 125000 -508.584027165091 0 0 84 (C1) n - 1
REM
REM in /home/bkarasulu/work/CARBON/AIRSS/Generating-Clusters/EDIP-Nigel-Params/with-SteepDescent/Only-C1/SD-CG/HFTN-CG
REM
REM
REM
REM
REM
REM ./C.cell (11c1c37f851c82e70ff6c80c92926a4b)
REM
REM compiler GCC version 9.2.1 20190827 (Red Hat 9.2.1-1)
REM options -cpp -mtune=generic -march=x86-64 -g -O0 -fpre-include=/usr/include/finclude/math-vector-fortran.h
REM seed 13116317 104829629 -1947035002 -2055115922 -1240341011 -1669324783 -398589885 461592797 -1812719928 -578901436 -1088138374 -412765435 -1669699755 -1266124786 -1065777492 585503332 -354113274 -1644408182 1139988876 -1049780750 -643661486 207545408 -1684087998 1862448206 1895397767 -1170026838 1790995671 -802878436 1679349632 -1047298649 -1591210242 1119680791 708824728
REM
CELL 1.54180   50.00000   50.00000   50.00000   90.00000   90.00000   90.00000
LATT -1
SFAC C  
C      1  0.4646310000000  0.4532610000000  0.5388020000000 1.0
C      1  0.4703300000000  0.5225410000000  0.5135500000000 1.0
C      1  0.4470480000000  0.5260700000000  0.5563690000000 1.0
C      1  0.5207310000000  0.4615660000000  0.4290280000000 1.0
C      1  0.4178360000000  0.5109380000000  0.5193470000000 1.0
C      1  0.4696760000000  0.5446460000000  0.5608050000000 1.0
C      1  0.4672220000000  0.4744260000000  0.5174620000000 1.0
C      1  0.4917610000000  0.4782500000000  0.4581660000000 1.0
C      1  0.5931070000000  0.5124100000000  0.4883260000000 1.0
C      1  0.4566570000000  0.5430480000000  0.4553540000000 1.0
C      1  0.4961590000000  0.5840730000000  0.4757450000000 1.0
C      1  0.4775250000000  0.4986680000000  0.5310510000000 1.0
C      1  0.4972270000000  0.5334280000000  0.5677690000000 1.0
C      1  0.4168730000000  0.4836220000000  0.5294010000000 1.0
C      1  0.5359250000000  0.4623960000000  0.5206630000000 1.0
C      1  0.4592070000000  0.5828920000000  0.5316980000000 1.0
C      1  0.4993110000000  0.5611020000000  0.5261040000000 1.0
C      1  0.5600650000000  0.4690300000000  0.5684010000000 1.0
C      1  0.5389540000000  0.5041420000000  0.5042560000000 1.0
C      1  0.4510610000000  0.5827620000000  0.5046630000000 1.0
C      1  0.4493000000000  0.4920270000000  0.4761480000000 1.0
C      1  0.5590270000000  0.5593910000000  0.5064380000000 1.0
C      1  0.5651410000000  0.4858570000000  0.5424060000000 1.0
C      1  0.4384070000000  0.4885230000000  0.4489310000000 1.0
C      1  0.5447750000000  0.4913320000000  0.4581010000000 1.0
C      1  0.5343090000000  0.4248530000000  0.5149380000000 1.0
C      1  0.4372500000000  0.5569950000000  0.5038020000000 1.0
C      1  0.5035570000000  0.4815860000000  0.4153160000000 1.0
C      1  0.4573240000000  0.5012120000000  0.4294480000000 1.0
C      1  0.4952970000000  0.4443900000000  0.4980490000000 1.0
C      1  0.5447580000000  0.5324820000000  0.5452210000000 1.0
C      1  0.5617170000000  0.4499800000000  0.5038470000000 1.0
C      1  0.5399800000000  0.5044950000000  0.5344160000000 1.0
C      1  0.4630320000000  0.4533370000000  0.4298560000000 1.0
C      1  0.5097090000000  0.4699650000000  0.5066070000000 1.0
C      1  0.5219570000000  0.5489310000000  0.5559700000000 1.0
C      1  0.4378390000000  0.4606900000000  0.4412070000000 1.0
C      1  0.4550500000000  0.4672050000000  0.4901000000000 1.0
C      1  0.4968700000000  0.5190510000000  0.4214470000000 1.0
C      1  0.5170350000000  0.4270750000000  0.5407980000000 1.0
C      1  0.4309360000000  0.4511250000000  0.4934100000000 1.0
C      1  0.5118160000000  0.4947330000000  0.5428250000000 1.0
C      1  0.4408460000000  0.5402960000000  0.4787230000000 1.0
C      1  0.5124060000000  0.4526610000000  0.5565620000000 1.0
C      1  0.4777420000000  0.4866420000000  0.5743090000000 1.0
C      1  0.4136280000000  0.4633440000000  0.5103500000000 1.0
C      1  0.4317480000000  0.5340000000000  0.5313400000000 1.0
C      1  0.5636200000000  0.5475960000000  0.5312370000000 1.0
C      1  0.4948100000000  0.5233820000000  0.4982540000000 1.0
C      1  0.4704930000000  0.5554180000000  0.5330000000000 1.0
C      1  0.5230270000000  0.4256040000000  0.4639290000000 1.0
C      1  0.4712200000000  0.5867440000000  0.4855760000000 1.0
C      1  0.5159580000000  0.4241140000000  0.4908910000000 1.0
C      1  0.5541570000000  0.4840920000000  0.4869850000000 1.0
C      1  0.5808840000000  0.4708100000000  0.5190030000000 1.0
C      1  0.5097550000000  0.5461230000000  0.5042420000000 1.0
C      1  0.5145540000000  0.4989390000000  0.4646080000000 1.0
C      1  0.5335470000000  0.5513620000000  0.4655630000000 1.0
C      1  0.5537750000000  0.5409150000000  0.4848480000000 1.0
C      1  0.4457670000000  0.5152750000000  0.4941540000000 1.0
C      1  0.5549730000000  0.4481480000000  0.5465550000000 1.0
C      1  0.4778750000000  0.4318040000000  0.5209370000000 1.0
C      1  0.5456240000000  0.4700120000000  0.4386850000000 1.0
C      1  0.4837770000000  0.4589350000000  0.5624670000000 1.0
C      1  0.5234670000000  0.5780710000000  0.4773670000000 1.0
C      1  0.4786200000000  0.4544030000000  0.4743120000000 1.0
C      1  0.5613750000000  0.5156070000000  0.4489810000000 1.0
C      1  0.5348900000000  0.5760370000000  0.5056800000000 1.0
C      1  0.5762300000000  0.5281700000000  0.4718890000000 1.0
C      1  0.4925400000000  0.4136080000000  0.5362800000000 1.0
C      1  0.4577500000000  0.4978080000000  0.5546580000000 1.0
C      1  0.4792720000000  0.4332960000000  0.4426700000000 1.0
C      1  0.4367660000000  0.4771180000000  0.5491700000000 1.0
C      1  0.5198910000000  0.5761990000000  0.5414770000000 1.0
C      1  0.5325410000000  0.4621710000000  0.5752960000000 1.0
C      1  0.4787000000000  0.4789160000000  0.4311430000000 1.0
C      1  0.5839550000000  0.4862910000000  0.4921070000000 1.0
C      1  0.5191870000000  0.5384650000000  0.4261580000000 1.0
C      1  0.5472780000000  0.5353190000000  0.4326690000000 1.0
C      1  0.5015610000000  0.5036050000000  0.5688350000000 1.0
C      1  0.4703720000000  0.5263310000000  0.4367540000000 1.0
C      1  0.5116070000000  0.4988590000000  0.4944750000000 1.0
C      1  0.5094850000000  0.5296670000000  0.4570950000000 1.0
C      1  0.5079360000000  0.4393430000000  0.4445230000000 1.0
END
