TITL C-950530-3293-489 2.62796988335428e-06 125000 -828.034967629706 0 0 135 (C1) n - 1
REM
REM in /home/bkarasulu/work/CARBON/AIRSS/Generating-Clusters/EDIP-Nigel-Params/with-SteepDescent/Only-C1/SD-CG/HFTN-CG
REM
REM
REM
REM
REM
REM ./C.cell (11c1c37f851c82e70ff6c80c92926a4b)
REM
REM compiler GCC version 9.2.1 20190827 (Red Hat 9.2.1-1)
REM options -cpp -mtune=generic -march=x86-64 -g -O0 -fpre-include=/usr/include/finclude/math-vector-fortran.h
REM seed -698089132 -1403703652 698807029 -1146278424 -1704815734 1168801257 -813699384 -746935940 313932812 1259402804 332673474 357583714 215329236 1075878070 278911293 1091678399 2038180113 -1289355311 694370050 568432540 -1703006732 -713003793 -1760332104 374147100 1861173807 -1951133762 -126623133 762977614 1584263281 472899746 -2143906183 -1718448676 -2115774911
REM
CELL 1.54180   50.00000   50.00000   50.00000   90.00000   90.00000   90.00000
LATT -1
SFAC C  
C      1  0.5569150000000  0.4900330000000  0.4180810000000 1.0
C      1  0.5549650000000  0.5135700000000  0.5152450000000 1.0
C      1  0.5311560000000  0.4344730000000  0.5624090000000 1.0
C      1  0.5939900000000  0.5406480000000  0.4882280000000 1.0
C      1  0.5384950000000  0.5389950000000  0.5096770000000 1.0
C      1  0.4703750000000  0.4381100000000  0.5377640000000 1.0
C      1  0.5157090000000  0.4836790000000  0.6087460000000 1.0
C      1  0.5689850000000  0.5352750000000  0.5583870000000 1.0
C      1  0.5149260000000  0.6007430000000  0.5405220000000 1.0
C      1  0.5342390000000  0.4747310000000  0.4601610000000 1.0
C      1  0.4592930000000  0.5731750000000  0.4576640000000 1.0
C      1  0.5971530000000  0.5098790000000  0.4919340000000 1.0
C      1  0.5216280000000  0.4784610000000  0.5089340000000 1.0
C      1  0.5379590000000  0.4596360000000  0.4921070000000 1.0
C      1  0.4973780000000  0.5702660000000  0.5012840000000 1.0
C      1  0.4508180000000  0.4839150000000  0.5831550000000 1.0
C      1  0.5547610000000  0.4982380000000  0.4638540000000 1.0
C      1  0.5259130000000  0.5376440000000  0.4804300000000 1.0
C      1  0.5428640000000  0.5150410000000  0.4104020000000 1.0
C      1  0.4517580000000  0.4407760000000  0.5609980000000 1.0
C      1  0.5746010000000  0.4907210000000  0.4424310000000 1.0
C      1  0.4126350000000  0.4921700000000  0.5244630000000 1.0
C      1  0.4988470000000  0.5126670000000  0.5431570000000 1.0
C      1  0.4581920000000  0.5074030000000  0.4831190000000 1.0
C      1  0.4256760000000  0.4487010000000  0.5030560000000 1.0
C      1  0.4172200000000  0.5048860000000  0.5530890000000 1.0
C      1  0.5688970000000  0.4978820000000  0.4915020000000 1.0
C      1  0.4087980000000  0.4455740000000  0.4619380000000 1.0
C      1  0.4411930000000  0.4966700000000  0.4617440000000 1.0
C      1  0.4319630000000  0.5288640000000  0.5638430000000 1.0
C      1  0.4623670000000  0.4788000000000  0.4456430000000 1.0
C      1  0.5036140000000  0.5535760000000  0.4155960000000 1.0
C      1  0.4664640000000  0.5619310000000  0.5060190000000 1.0
C      1  0.5413020000000  0.5240150000000  0.4592940000000 1.0
C      1  0.5829710000000  0.4247890000000  0.4799900000000 1.0
C      1  0.5178540000000  0.5092280000000  0.4002520000000 1.0
C      1  0.4104660000000  0.4681570000000  0.4307410000000 1.0
C      1  0.4204100000000  0.5304820000000  0.4937260000000 1.0
C      1  0.4792390000000  0.4328420000000  0.4593710000000 1.0
C      1  0.4365000000000  0.5336000000000  0.4379570000000 1.0
C      1  0.5512090000000  0.5625780000000  0.4296450000000 1.0
C      1  0.4884480000000  0.5514510000000  0.5925070000000 1.0
C      1  0.4649280000000  0.4006050000000  0.4422830000000 1.0
C      1  0.4350510000000  0.4788180000000  0.4180610000000 1.0
C      1  0.4944030000000  0.4449300000000  0.4204000000000 1.0
C      1  0.4576400000000  0.5398330000000  0.5268690000000 1.0
C      1  0.5822660000000  0.5556270000000  0.4671050000000 1.0
C      1  0.5086630000000  0.4314520000000  0.5804020000000 1.0
C      1  0.5078930000000  0.5318760000000  0.5205810000000 1.0
C      1  0.5093740000000  0.5110730000000  0.6087860000000 1.0
C      1  0.4049800000000  0.5045240000000  0.4964840000000 1.0
C      1  0.5174220000000  0.4779080000000  0.5804740000000 1.0
C      1  0.4964960000000  0.4926780000000  0.4095450000000 1.0
C      1  0.5372640000000  0.5793880000000  0.4744330000000 1.0
C      1  0.5446130000000  0.4124300000000  0.5085560000000 1.0
C      1  0.5849610000000  0.5496400000000  0.5147550000000 1.0
C      1  0.5566330000000  0.5830930000000  0.5647620000000 1.0
C      1  0.4795640000000  0.5392230000000  0.4235370000000 1.0
C      1  0.5380980000000  0.4931590000000  0.5294700000000 1.0
C      1  0.4463190000000  0.4309610000000  0.4904960000000 1.0
C      1  0.5242720000000  0.5707020000000  0.4225390000000 1.0
C      1  0.4500160000000  0.4065160000000  0.5070320000000 1.0
C      1  0.5057280000000  0.4346510000000  0.4468080000000 1.0
C      1  0.5180400000000  0.5827370000000  0.5192420000000 1.0
C      1  0.5539430000000  0.5151260000000  0.5745710000000 1.0
C      1  0.4750410000000  0.5293860000000  0.5534020000000 1.0
C      1  0.5416320000000  0.4609350000000  0.5709740000000 1.0
C      1  0.4775490000000  0.3897020000000  0.4647300000000 1.0
C      1  0.4608190000000  0.4844550000000  0.5209020000000 1.0
C      1  0.4741000000000  0.4138860000000  0.5208320000000 1.0
C      1  0.5674510000000  0.4092800000000  0.4951600000000 1.0
C      1  0.4583690000000  0.5127670000000  0.5846680000000 1.0
C      1  0.4933850000000  0.4562360000000  0.5443530000000 1.0
C      1  0.5173980000000  0.4105180000000  0.4562470000000 1.0
C      1  0.4008250000000  0.4494820000000  0.4895490000000 1.0
C      1  0.5077010000000  0.4853090000000  0.4628150000000 1.0
C      1  0.4699400000000  0.5154630000000  0.4062230000000 1.0
C      1  0.4947980000000  0.4569910000000  0.5742960000000 1.0
C      1  0.5246010000000  0.4327740000000  0.5085520000000 1.0
C      1  0.4730380000000  0.4844270000000  0.4936300000000 1.0
C      1  0.5316770000000  0.5293550000000  0.6027130000000 1.0
C      1  0.4629080000000  0.4521800000000  0.4244000000000 1.0
C      1  0.5789100000000  0.5257330000000  0.5311150000000 1.0
C      1  0.4252490000000  0.4808240000000  0.5693440000000 1.0
C      1  0.4446500000000  0.5179640000000  0.5093970000000 1.0
C      1  0.4868870000000  0.4848060000000  0.5355700000000 1.0
C      1  0.4860130000000  0.5233680000000  0.4470450000000 1.0
C      1  0.5198300000000  0.4438420000000  0.5364010000000 1.0
C      1  0.5681840000000  0.4673440000000  0.4972570000000 1.0
C      1  0.4235180000000  0.5371120000000  0.4649600000000 1.0
C      1  0.4566410000000  0.5726010000000  0.5576800000000 1.0
C      1  0.4955350000000  0.4205980000000  0.4988790000000 1.0
C      1  0.4150330000000  0.4878510000000  0.4727370000000 1.0
C      1  0.5552980000000  0.4747200000000  0.5471350000000 1.0
C      1  0.5763840000000  0.4620560000000  0.5261150000000 1.0
C      1  0.4561570000000  0.5523210000000  0.4789000000000 1.0
C      1  0.4834430000000  0.5902370000000  0.4649230000000 1.0
C      1  0.5782130000000  0.4897850000000  0.5604690000000 1.0
C      1  0.5246170000000  0.5460010000000  0.5681500000000 1.0
C      1  0.5387240000000  0.4671790000000  0.4286700000000 1.0
C      1  0.4480050000000  0.4248770000000  0.4377120000000 1.0
C      1  0.5498460000000  0.5568060000000  0.5570310000000 1.0
C      1  0.4594740000000  0.5937030000000  0.5389630000000 1.0
C      1  0.5208950000000  0.5076850000000  0.5662130000000 1.0
C      1  0.4654250000000  0.4579470000000  0.5821010000000 1.0
C      1  0.4592110000000  0.5902420000000  0.5111050000000 1.0
C      1  0.5979030000000  0.4819560000000  0.5378750000000 1.0
C      1  0.6025540000000  0.5074470000000  0.5228480000000 1.0
C      1  0.4764110000000  0.5292500000000  0.4742310000000 1.0
C      1  0.5011840000000  0.3991660000000  0.4769730000000 1.0
C      1  0.5017150000000  0.4924240000000  0.4905230000000 1.0
C      1  0.5118940000000  0.4658930000000  0.4114150000000 1.0
C      1  0.4850560000000  0.5223310000000  0.5961080000000 1.0
C      1  0.5587980000000  0.4456160000000  0.4316840000000 1.0
C      1  0.5379740000000  0.5348330000000  0.4319400000000 1.0
C      1  0.4437990000000  0.5088670000000  0.4195120000000 1.0
C      1  0.4375520000000  0.5518370000000  0.5464080000000 1.0
C      1  0.5177840000000  0.5563330000000  0.5963990000000 1.0
C      1  0.4278590000000  0.4564740000000  0.5524370000000 1.0
C      1  0.5604360000000  0.5707380000000  0.4566920000000 1.0
C      1  0.4318490000000  0.4683250000000  0.5246600000000 1.0
C      1  0.4558620000000  0.5565600000000  0.4321230000000 1.0
C      1  0.3969820000000  0.4812800000000  0.4515380000000 1.0
C      1  0.5787340000000  0.4607020000000  0.4471640000000 1.0
C      1  0.4753910000000  0.4415760000000  0.4867420000000 1.0
C      1  0.4327480000000  0.4286440000000  0.4629120000000 1.0
C      1  0.4816790000000  0.5568540000000  0.5642610000000 1.0
C      1  0.5011960000000  0.5228920000000  0.4920230000000 1.0
C      1  0.5634130000000  0.5682420000000  0.5161380000000 1.0
C      1  0.4891140000000  0.4946770000000  0.4415030000000 1.0
C      1  0.5425240000000  0.5826870000000  0.5034220000000 1.0
C      1  0.5365990000000  0.5991760000000  0.5563810000000 1.0
C      1  0.4778130000000  0.6025360000000  0.4916690000000 1.0
C      1  0.5077620000000  0.5704540000000  0.4711120000000 1.0
C      1  0.5833230000000  0.4522610000000  0.4757290000000 1.0
END
