TITL C-950526-5686-63 -4.75430675608529e-06 125000 -993.429401111929 0 0 159 (C1) n - 1
REM
REM in /home/bkarasulu/work/CARBON/AIRSS/Generating-Clusters/EDIP-Nigel-Params/with-SteepDescent/Only-C1/SD-CG/HFTN-CG
REM
REM
REM
REM
REM
REM ./C.cell (11c1c37f851c82e70ff6c80c92926a4b)
REM
REM compiler GCC version 9.2.1 20190827 (Red Hat 9.2.1-1)
REM options -cpp -mtune=generic -march=x86-64 -g -O0 -fpre-include=/usr/include/finclude/math-vector-fortran.h
REM seed -769053215 620606189 -773317135 1108743356 -2060201563 1932139874 1595706708 -1989860811 -258434920 -1886896410 823689132 1786676548 1639248509 264573982 -1371770595 -1860060203 514225332 1692222478 -186460124 1690963616 -1589640596 1800941628 -503687228 1676614795 441220050 1924507628 -216889466 -1952518874 256376597 436492481 -409582074 -397970940 -169523193
REM
CELL 1.54180   50.00000   50.00000   50.00000   90.00000   90.00000   90.00000
LATT -1
SFAC C  
C      1  0.5275110000000  0.4739220000000  0.4245730000000 1.0
C      1  0.4638730000000  0.3991560000000  0.4741690000000 1.0
C      1  0.5001690000000  0.4507530000000  0.5436110000000 1.0
C      1  0.4649060000000  0.5270550000000  0.5062740000000 1.0
C      1  0.5149280000000  0.5828320000000  0.4729070000000 1.0
C      1  0.5564500000000  0.5760470000000  0.5338020000000 1.0
C      1  0.4528840000000  0.5377430000000  0.4529730000000 1.0
C      1  0.4014660000000  0.5077880000000  0.4565240000000 1.0
C      1  0.4038390000000  0.4588090000000  0.4619280000000 1.0
C      1  0.4814480000000  0.5049750000000  0.4957030000000 1.0
C      1  0.5584380000000  0.4644350000000  0.4246060000000 1.0
C      1  0.4304380000000  0.5235590000000  0.4140910000000 1.0
C      1  0.4420470000000  0.5605780000000  0.5351460000000 1.0
C      1  0.5373300000000  0.5916910000000  0.4912280000000 1.0
C      1  0.5898770000000  0.5392330000000  0.4777550000000 1.0
C      1  0.5567350000000  0.5131060000000  0.5277890000000 1.0
C      1  0.5908050000000  0.5469320000000  0.5675070000000 1.0
C      1  0.5087580000000  0.4963330000000  0.5379440000000 1.0
C      1  0.5518240000000  0.4866720000000  0.5967280000000 1.0
C      1  0.5691650000000  0.4215280000000  0.5095910000000 1.0
C      1  0.4596780000000  0.5567070000000  0.4135230000000 1.0
C      1  0.4750620000000  0.4401800000000  0.4630140000000 1.0
C      1  0.5815990000000  0.4567040000000  0.5705640000000 1.0
C      1  0.5284370000000  0.4104480000000  0.5488020000000 1.0
C      1  0.5626250000000  0.5263810000000  0.4095600000000 1.0
C      1  0.4553260000000  0.4210360000000  0.5378340000000 1.0
C      1  0.4919810000000  0.6015160000000  0.4692920000000 1.0
C      1  0.4077640000000  0.5012630000000  0.5148280000000 1.0
C      1  0.5457930000000  0.4949960000000  0.4736420000000 1.0
C      1  0.5083010000000  0.5618800000000  0.4264610000000 1.0
C      1  0.4143980000000  0.4364020000000  0.5136410000000 1.0
C      1  0.4371730000000  0.4654590000000  0.4903350000000 1.0
C      1  0.5449330000000  0.5416660000000  0.5198570000000 1.0
C      1  0.5452840000000  0.4674780000000  0.5208740000000 1.0
C      1  0.5755350000000  0.4806060000000  0.4441680000000 1.0
C      1  0.4671880000000  0.5764260000000  0.5724890000000 1.0
C      1  0.5845930000000  0.5122790000000  0.4851550000000 1.0
C      1  0.4395670000000  0.4010250000000  0.4919570000000 1.0
C      1  0.5299550000000  0.4487100000000  0.5027580000000 1.0
C      1  0.5743940000000  0.4680520000000  0.5107950000000 1.0
C      1  0.3984290000000  0.4831910000000  0.5367960000000 1.0
C      1  0.5614130000000  0.5786290000000  0.4794120000000 1.0
C      1  0.4841600000000  0.5040640000000  0.5976760000000 1.0
C      1  0.4813320000000  0.5324980000000  0.5570800000000 1.0
C      1  0.3964950000000  0.5279180000000  0.5069970000000 1.0
C      1  0.5544700000000  0.5633260000000  0.4544310000000 1.0
C      1  0.4505610000000  0.4455390000000  0.5563170000000 1.0
C      1  0.4493350000000  0.5058090000000  0.4541960000000 1.0
C      1  0.5431850000000  0.4729900000000  0.5561660000000 1.0
C      1  0.4814210000000  0.6114180000000  0.4939160000000 1.0
C      1  0.4387180000000  0.5261490000000  0.4956040000000 1.0
C      1  0.5961860000000  0.5470080000000  0.5401170000000 1.0
C      1  0.4371090000000  0.4185490000000  0.5156560000000 1.0
C      1  0.4587350000000  0.4745300000000  0.4140280000000 1.0
C      1  0.4899040000000  0.5568730000000  0.5738730000000 1.0
C      1  0.4023420000000  0.4850160000000  0.4742690000000 1.0
C      1  0.4836960000000  0.4901020000000  0.5218170000000 1.0
C      1  0.5135130000000  0.5400330000000  0.4056220000000 1.0
C      1  0.4704960000000  0.4656770000000  0.5728310000000 1.0
C      1  0.4308560000000  0.5133000000000  0.5311160000000 1.0
C      1  0.4759330000000  0.4872420000000  0.4460730000000 1.0
C      1  0.4928840000000  0.5628480000000  0.5178570000000 1.0
C      1  0.5209290000000  0.5453880000000  0.5390600000000 1.0
C      1  0.4947850000000  0.5174310000000  0.4711140000000 1.0
C      1  0.5288270000000  0.5371650000000  0.4919050000000 1.0
C      1  0.5552240000000  0.4348910000000  0.4310780000000 1.0
C      1  0.4537550000000  0.5761120000000  0.4785840000000 1.0
C      1  0.5611040000000  0.4266660000000  0.4590490000000 1.0
C      1  0.4910140000000  0.4767300000000  0.5907910000000 1.0
C      1  0.5354660000000  0.5119690000000  0.5955580000000 1.0
C      1  0.5398430000000  0.4604120000000  0.5918970000000 1.0
C      1  0.5814750000000  0.4993380000000  0.5110660000000 1.0
C      1  0.5350670000000  0.5200130000000  0.4084310000000 1.0
C      1  0.4798610000000  0.5666640000000  0.4324830000000 1.0
C      1  0.4737640000000  0.5940950000000  0.5488800000000 1.0
C      1  0.4080600000000  0.5576280000000  0.4735580000000 1.0
C      1  0.5734510000000  0.4288300000000  0.5359700000000 1.0
C      1  0.5889590000000  0.4519420000000  0.5420570000000 1.0
C      1  0.5331070000000  0.4957590000000  0.5191900000000 1.0
C      1  0.4806180000000  0.4558410000000  0.4158260000000 1.0
C      1  0.4418350000000  0.5607160000000  0.5659520000000 1.0
C      1  0.4122340000000  0.5528560000000  0.5173630000000 1.0
C      1  0.5741670000000  0.4540550000000  0.4799890000000 1.0
C      1  0.5012010000000  0.4222370000000  0.5542620000000 1.0
C      1  0.5048270000000  0.4691790000000  0.4046370000000 1.0
C      1  0.5469300000000  0.4667080000000  0.4668600000000 1.0
C      1  0.5407220000000  0.5385770000000  0.4647790000000 1.0
C      1  0.5309300000000  0.5594110000000  0.5941160000000 1.0
C      1  0.4969260000000  0.5080890000000  0.4424980000000 1.0
C      1  0.3942530000000  0.5314130000000  0.4760360000000 1.0
C      1  0.5810090000000  0.5652980000000  0.5231040000000 1.0
C      1  0.5461770000000  0.5131380000000  0.4514920000000 1.0
C      1  0.4552240000000  0.4889730000000  0.5644150000000 1.0
C      1  0.4694170000000  0.5447750000000  0.5297180000000 1.0
C      1  0.4973560000000  0.3991020000000  0.5124510000000 1.0
C      1  0.4948930000000  0.4628270000000  0.4651010000000 1.0
C      1  0.6250440000000  0.4919730000000  0.5002650000000 1.0
C      1  0.4905140000000  0.4050550000000  0.4842660000000 1.0
C      1  0.4633270000000  0.5910900000000  0.5013320000000 1.0
C      1  0.4372500000000  0.5504950000000  0.4757270000000 1.0
C      1  0.5951490000000  0.4673750000000  0.4632720000000 1.0
C      1  0.5259320000000  0.4018250000000  0.5199460000000 1.0
C      1  0.5047780000000  0.5864450000000  0.5358040000000 1.0
C      1  0.5255340000000  0.5054740000000  0.4920710000000 1.0
C      1  0.4536740000000  0.5874310000000  0.5282700000000 1.0
C      1  0.4259600000000  0.5026290000000  0.4351140000000 1.0
C      1  0.4844810000000  0.4599590000000  0.5183300000000 1.0
C      1  0.4109210000000  0.4905670000000  0.5631110000000 1.0
C      1  0.6149380000000  0.4812830000000  0.4774380000000 1.0
C      1  0.5818420000000  0.5439240000000  0.4493750000000 1.0
C      1  0.5039680000000  0.5497340000000  0.5997920000000 1.0
C      1  0.4221720000000  0.4134160000000  0.4705660000000 1.0
C      1  0.5214040000000  0.4565670000000  0.4494930000000 1.0
C      1  0.4313900000000  0.4747670000000  0.4238540000000 1.0
C      1  0.4711370000000  0.5845950000000  0.4557740000000 1.0
C      1  0.5061640000000  0.4171280000000  0.4375520000000 1.0
C      1  0.4385930000000  0.5325900000000  0.5777500000000 1.0
C      1  0.4509450000000  0.4602020000000  0.5200420000000 1.0
C      1  0.5655490000000  0.5350020000000  0.5700060000000 1.0
C      1  0.4188500000000  0.5189800000000  0.5594670000000 1.0
C      1  0.5121860000000  0.4091410000000  0.4647370000000 1.0
C      1  0.5721800000000  0.5184610000000  0.4356890000000 1.0
C      1  0.4483990000000  0.4148520000000  0.4510270000000 1.0
C      1  0.4835190000000  0.5443640000000  0.4700700000000 1.0
C      1  0.4366550000000  0.4985950000000  0.4811260000000 1.0
C      1  0.5414720000000  0.4201920000000  0.5017160000000 1.0
C      1  0.4972330000000  0.4942420000000  0.3935000000000 1.0
C      1  0.5342800000000  0.5898010000000  0.5208900000000 1.0
C      1  0.4818500000000  0.4081560000000  0.5367240000000 1.0
C      1  0.4641040000000  0.5313940000000  0.3986170000000 1.0
C      1  0.5588900000000  0.5081640000000  0.5581810000000 1.0
C      1  0.5495800000000  0.5373850000000  0.5935320000000 1.0
C      1  0.4099390000000  0.4381220000000  0.4833640000000 1.0
C      1  0.5078420000000  0.5203910000000  0.6042310000000 1.0
C      1  0.5020440000000  0.4562630000000  0.4944220000000 1.0
C      1  0.5074350000000  0.5219390000000  0.5500030000000 1.0
C      1  0.4038090000000  0.5720940000000  0.4979650000000 1.0
C      1  0.5579200000000  0.4403480000000  0.5795780000000 1.0
C      1  0.5154110000000  0.5681940000000  0.5597240000000 1.0
C      1  0.4225690000000  0.4540940000000  0.5602370000000 1.0
C      1  0.4910820000000  0.5211800000000  0.4003160000000 1.0
C      1  0.4792950000000  0.4302790000000  0.4336750000000 1.0
C      1  0.5767430000000  0.5594760000000  0.4950380000000 1.0
C      1  0.4288190000000  0.4539450000000  0.4449920000000 1.0
C      1  0.5280070000000  0.4282930000000  0.4233420000000 1.0
C      1  0.5767040000000  0.4835520000000  0.5810360000000 1.0
C      1  0.6094030000000  0.5025490000000  0.5210800000000 1.0
C      1  0.4505900000000  0.4566780000000  0.4650010000000 1.0
C      1  0.5250800000000  0.5036370000000  0.4316850000000 1.0
C      1  0.4644630000000  0.5148590000000  0.5761570000000 1.0
C      1  0.5400990000000  0.4118320000000  0.4735710000000 1.0
C      1  0.4095210000000  0.4562400000000  0.5350090000000 1.0
C      1  0.5505160000000  0.4296520000000  0.5532170000000 1.0
C      1  0.4365990000000  0.5479440000000  0.4285970000000 1.0
C      1  0.4521180000000  0.4905200000000  0.5355880000000 1.0
C      1  0.6141080000000  0.5284920000000  0.5296840000000 1.0
C      1  0.5118030000000  0.4738160000000  0.5588950000000 1.0
C      1  0.5271980000000  0.5756790000000  0.4451130000000 1.0
C      1  0.5039600000000  0.5573870000000  0.4885320000000 1.0
END
