TITL C-950522-5749-409 1.58038054658219e-06 125000 -195.828629983444 0 0 33 (C1) n - 1
REM
REM in /home/bkarasulu/work/CARBON/AIRSS/Generating-Clusters/EDIP-Nigel-Params/with-SteepDescent/Only-C1/SD-CG/HFTN-CG
REM
REM
REM
REM
REM
REM ./C.cell (11c1c37f851c82e70ff6c80c92926a4b)
REM
REM compiler GCC version 9.2.1 20190827 (Red Hat 9.2.1-1)
REM options -cpp -mtune=generic -march=x86-64 -g -O0 -fpre-include=/usr/include/finclude/math-vector-fortran.h
REM seed 882846279 -396931268 -1484637051 1703210001 1339393288 1768023702 1721361610 -230225862 -1492141300 298453206 -1737796021 1456120567 977081654 145403734 -659174615 667190386 -1614520468 903712791 1051315180 1920413494 -750290289 1307062266 1649990031 -1806613586 1474764316 -316151913 356878883 2022309012 -1047116481 1885514389 -57104305 1734091357 -1324687084
REM
CELL 1.54180   50.00000   50.00000   50.00000   90.00000   90.00000   90.00000
LATT -1
SFAC C  
C      1  0.4930410000000  0.5404220000000  0.4597160000000 1.0
C      1  0.5129610000000  0.5123780000000  0.5488580000000 1.0
C      1  0.5256680000000  0.5272360000000  0.5281170000000 1.0
C      1  0.4675670000000  0.4906100000000  0.5113050000000 1.0
C      1  0.4754470000000  0.5063380000000  0.5536350000000 1.0
C      1  0.5123270000000  0.4969830000000  0.4858590000000 1.0
C      1  0.5562720000000  0.4874270000000  0.5108650000000 1.0
C      1  0.5278240000000  0.4490880000000  0.5222740000000 1.0
C      1  0.4532200000000  0.5365560000000  0.5205180000000 1.0
C      1  0.4552880000000  0.5074990000000  0.4631720000000 1.0
C      1  0.5402900000000  0.4738990000000  0.5336580000000 1.0
C      1  0.4945460000000  0.5577690000000  0.5004790000000 1.0
C      1  0.4589070000000  0.5108400000000  0.5301010000000 1.0
C      1  0.5382170000000  0.5207940000000  0.4501210000000 1.0
C      1  0.5113100000000  0.5156510000000  0.4614890000000 1.0
C      1  0.4663220000000  0.5343090000000  0.4712780000000 1.0
C      1  0.4748340000000  0.4743270000000  0.4410020000000 1.0
C      1  0.5002700000000  0.4530490000000  0.5097790000000 1.0
C      1  0.4714880000000  0.5402620000000  0.4994320000000 1.0
C      1  0.5370620000000  0.4510520000000  0.4933840000000 1.0
C      1  0.5039180000000  0.5622690000000  0.4742330000000 1.0
C      1  0.5216320000000  0.5048220000000  0.4358210000000 1.0
C      1  0.4600250000000  0.4859460000000  0.4832910000000 1.0
C      1  0.5045480000000  0.4678660000000  0.4818100000000 1.0
C      1  0.4826770000000  0.4777530000000  0.5542450000000 1.0
C      1  0.4807750000000  0.4696650000000  0.5258660000000 1.0
C      1  0.5064430000000  0.4704540000000  0.5682340000000 1.0
C      1  0.4770080000000  0.4670340000000  0.4681950000000 1.0
C      1  0.5297430000000  0.5029820000000  0.5103770000000 1.0
C      1  0.5256260000000  0.4874780000000  0.5564020000000 1.0
C      1  0.5136590000000  0.5505000000000  0.5190740000000 1.0
C      1  0.5592700000000  0.4686490000000  0.4904280000000 1.0
C      1  0.4618150000000  0.4980940000000  0.4369800000000 1.0
END
