TITL C-950536-5891-246 -1.33649883832468e-06 125000 -290.285588774059 0 0 48 (C1) n - 1
REM
REM in /home/bkarasulu/work/CARBON/AIRSS/Generating-Clusters/EDIP-Nigel-Params/with-SteepDescent/Only-C1/SD-CG/HFTN-CG
REM
REM
REM
REM
REM
REM ./C.cell (11c1c37f851c82e70ff6c80c92926a4b)
REM
REM compiler GCC version 9.2.1 20190827 (Red Hat 9.2.1-1)
REM options -cpp -mtune=generic -march=x86-64 -g -O0 -fpre-include=/usr/include/finclude/math-vector-fortran.h
REM seed 365836863 20598581 610789402 -204061102 -1340325480 959737336 -633069033 945767348 798853289 -138965962 -208133655 330997123 -2142704849 421453200 77529054 -803416444 1239215245 1917348793 2042153088 1089342060 -1190354991 158072598 -1084978635 1226841520 1910651260 -1681480558 -486786875 -709941600 1942749002 1347717996 1097307309 1834351487 930662067
REM
CELL 1.54180   50.00000   50.00000   50.00000   90.00000   90.00000   90.00000
LATT -1
SFAC C  
C      1  0.4870290000000  0.5474420000000  0.4616120000000 1.0
C      1  0.4628950000000  0.5100490000000  0.4817560000000 1.0
C      1  0.4348710000000  0.5040120000000  0.4923830000000 1.0
C      1  0.5408240000000  0.5666320000000  0.5049290000000 1.0
C      1  0.4752470000000  0.5562440000000  0.4880600000000 1.0
C      1  0.4757070000000  0.5264440000000  0.5311260000000 1.0
C      1  0.4832860000000  0.4775560000000  0.4514170000000 1.0
C      1  0.5312010000000  0.4756150000000  0.4927060000000 1.0
C      1  0.5456690000000  0.4939400000000  0.5136070000000 1.0
C      1  0.4752890000000  0.4542490000000  0.4386930000000 1.0
C      1  0.4847030000000  0.5791510000000  0.5010590000000 1.0
C      1  0.5659970000000  0.5137040000000  0.4794660000000 1.0
C      1  0.5144620000000  0.4866900000000  0.5775620000000 1.0
C      1  0.4748200000000  0.4281230000000  0.4439430000000 1.0
C      1  0.4841330000000  0.5031960000000  0.4372000000000 1.0
C      1  0.5149010000000  0.4282230000000  0.4956640000000 1.0
C      1  0.5353440000000  0.5615680000000  0.5306050000000 1.0
C      1  0.4709290000000  0.4412240000000  0.5038160000000 1.0
C      1  0.4903360000000  0.4883010000000  0.5633260000000 1.0
C      1  0.5460260000000  0.4779380000000  0.5400790000000 1.0
C      1  0.4772840000000  0.4832310000000  0.4801940000000 1.0
C      1  0.4482260000000  0.5217890000000  0.5368470000000 1.0
C      1  0.5223310000000  0.5145270000000  0.5376030000000 1.0
C      1  0.4294980000000  0.5105240000000  0.5201830000000 1.0
C      1  0.4985680000000  0.4652000000000  0.5274010000000 1.0
C      1  0.5270000000000  0.4554690000000  0.5328240000000 1.0
C      1  0.4856360000000  0.5739200000000  0.5275050000000 1.0
C      1  0.5700060000000  0.5064870000000  0.5050950000000 1.0
C      1  0.4591970000000  0.4640690000000  0.4932720000000 1.0
C      1  0.5314550000000  0.5571660000000  0.4817190000000 1.0
C      1  0.4351260000000  0.4765990000000  0.5022150000000 1.0
C      1  0.5324480000000  0.4476180000000  0.5048290000000 1.0
C      1  0.5143610000000  0.5360950000000  0.4722530000000 1.0
C      1  0.5494770000000  0.5030900000000  0.4596680000000 1.0
C      1  0.5341320000000  0.4972850000000  0.5603060000000 1.0
C      1  0.4696150000000  0.5233830000000  0.4543230000000 1.0
C      1  0.5066040000000  0.5184090000000  0.4964840000000 1.0
C      1  0.5029300000000  0.4880930000000  0.4967520000000 1.0
C      1  0.4808340000000  0.4149730000000  0.4664500000000 1.0
C      1  0.4881160000000  0.4227290000000  0.4920200000000 1.0
C      1  0.5410220000000  0.4770820000000  0.4653650000000 1.0
C      1  0.4820630000000  0.4636310000000  0.5520100000000 1.0
C      1  0.4946080000000  0.5029310000000  0.5369610000000 1.0
C      1  0.4898360000000  0.5507250000000  0.5424300000000 1.0
C      1  0.5102750000000  0.5113860000000  0.4307000000000 1.0
C      1  0.4788230000000  0.5284220000000  0.5009810000000 1.0
C      1  0.5281070000000  0.5209460000000  0.4501860000000 1.0
C      1  0.5187510000000  0.5439170000000  0.5444190000000 1.0
END
