TITL C-950527-2551-489 3.20997386994974e-06 125000 -407.850855965706 0 0 67 (C1) n - 1
REM
REM in /home/bkarasulu/work/CARBON/AIRSS/Generating-Clusters/EDIP-Nigel-Params/with-SteepDescent/Only-C1/SD-CG/HFTN-CG
REM
REM
REM
REM
REM
REM ./C.cell (11c1c37f851c82e70ff6c80c92926a4b)
REM
REM compiler GCC version 9.2.1 20190827 (Red Hat 9.2.1-1)
REM options -cpp -mtune=generic -march=x86-64 -g -O0 -fpre-include=/usr/include/finclude/math-vector-fortran.h
REM seed 227583942 1614726567 -853644098 -654977818 483807617 -1923532708 106645668 -574313368 103203498 2045489715 939770698 999949636 -638117231 -1426119736 -1277743627 -1740438280 897971493 87541247 826284284 1332065636 632235762 766716867 -1682229523 -1333500538 -1911643731 -332982790 -1632738365 -132161515 -1003115519 -1218652119 -1618810675 -1143912276 -2092889398
REM
CELL 1.54180   50.00000   50.00000   50.00000   90.00000   90.00000   90.00000
LATT -1
SFAC C  
C      1  0.5228530000000  0.4568810000000  0.4807920000000 1.0
C      1  0.5622150000000  0.4730600000000  0.4999620000000 1.0
C      1  0.4553540000000  0.5049000000000  0.4496850000000 1.0
C      1  0.5241870000000  0.4650540000000  0.4523620000000 1.0
C      1  0.5338690000000  0.4884940000000  0.5644110000000 1.0
C      1  0.5040680000000  0.4923590000000  0.5706440000000 1.0
C      1  0.5142230000000  0.4100750000000  0.5052120000000 1.0
C      1  0.5645910000000  0.4829980000000  0.5272520000000 1.0
C      1  0.5330360000000  0.4806780000000  0.4967790000000 1.0
C      1  0.4765810000000  0.5338780000000  0.5697290000000 1.0
C      1  0.5438460000000  0.5612640000000  0.5213440000000 1.0
C      1  0.5492100000000  0.4722500000000  0.4420630000000 1.0
C      1  0.4585070000000  0.5701610000000  0.5249260000000 1.0
C      1  0.4608420000000  0.4985470000000  0.5415170000000 1.0
C      1  0.4893980000000  0.5408010000000  0.4398310000000 1.0
C      1  0.5280750000000  0.4460500000000  0.5333040000000 1.0
C      1  0.4943690000000  0.4119280000000  0.5274000000000 1.0
C      1  0.4893840000000  0.4568460000000  0.4905900000000 1.0
C      1  0.5249930000000  0.5356630000000  0.5612550000000 1.0
C      1  0.4878110000000  0.5345610000000  0.5222710000000 1.0
C      1  0.5036590000000  0.4865430000000  0.4496400000000 1.0
C      1  0.5028420000000  0.4171410000000  0.4800970000000 1.0
C      1  0.5547810000000  0.5368870000000  0.5094830000000 1.0
C      1  0.5496230000000  0.5001940000000  0.4434920000000 1.0
C      1  0.4336960000000  0.5338000000000  0.4634070000000 1.0
C      1  0.5576430000000  0.5127880000000  0.5287350000000 1.0
C      1  0.5375930000000  0.4268940000000  0.5130610000000 1.0
C      1  0.5298980000000  0.5491190000000  0.4676610000000 1.0
C      1  0.4447530000000  0.5466030000000  0.5352970000000 1.0
C      1  0.4984900000000  0.4981260000000  0.4220060000000 1.0
C      1  0.5154140000000  0.5213980000000  0.5215660000000 1.0
C      1  0.5214510000000  0.5560750000000  0.5394170000000 1.0
C      1  0.4277140000000  0.5094520000000  0.5049550000000 1.0
C      1  0.5560960000000  0.5385580000000  0.4783790000000 1.0
C      1  0.4626390000000  0.4777440000000  0.4624580000000 1.0
C      1  0.5256600000000  0.5106700000000  0.4890970000000 1.0
C      1  0.4695950000000  0.4503200000000  0.4535060000000 1.0
C      1  0.4852730000000  0.4281940000000  0.4620080000000 1.0
C      1  0.5189480000000  0.5397540000000  0.4414380000000 1.0
C      1  0.4461450000000  0.4906330000000  0.5172130000000 1.0
C      1  0.4756670000000  0.5163750000000  0.4278680000000 1.0
C      1  0.5034390000000  0.4351990000000  0.5452000000000 1.0
C      1  0.4560660000000  0.5495410000000  0.4728860000000 1.0
C      1  0.4870170000000  0.4836390000000  0.5460750000000 1.0
C      1  0.5253480000000  0.5127310000000  0.4307490000000 1.0
C      1  0.4704190000000  0.4471270000000  0.5149790000000 1.0
C      1  0.4809790000000  0.4544860000000  0.5428710000000 1.0
C      1  0.4683280000000  0.4177010000000  0.5158950000000 1.0
C      1  0.5439920000000  0.5146330000000  0.5547230000000 1.0
C      1  0.4602280000000  0.5746360000000  0.4867260000000 1.0
C      1  0.5446060000000  0.4681010000000  0.5449130000000 1.0
C      1  0.4899900000000  0.5713980000000  0.4920130000000 1.0
C      1  0.4455580000000  0.4627740000000  0.5076130000000 1.0
C      1  0.4270380000000  0.5095960000000  0.4759560000000 1.0
C      1  0.4267780000000  0.5341700000000  0.5180320000000 1.0
C      1  0.5045740000000  0.4910320000000  0.5221730000000 1.0
C      1  0.4989580000000  0.5043260000000  0.4748620000000 1.0
C      1  0.5191570000000  0.5732610000000  0.4812300000000 1.0
C      1  0.5017090000000  0.5223650000000  0.5749460000000 1.0
C      1  0.4889330000000  0.4865770000000  0.4968270000000 1.0
C      1  0.4878850000000  0.5643340000000  0.5209650000000 1.0
C      1  0.5476090000000  0.4399280000000  0.4893030000000 1.0
C      1  0.4808050000000  0.5361870000000  0.4669870000000 1.0
C      1  0.5371540000000  0.5801220000000  0.5018800000000 1.0
C      1  0.5585970000000  0.5115410000000  0.4682740000000 1.0
C      1  0.4670050000000  0.5278270000000  0.5431990000000 1.0
C      1  0.4428350000000  0.4630510000000  0.4786090000000 1.0
END
