TITL C-951334-9093-371 -2.75319960660935e-06 125000 -1128.39304517729 0 0 181 (C1) n - 1
REM
REM in /home/bkarasulu/work/CARBON/AIRSS/Generating-Clusters/EDIP-Nigel-Params/with-SteepDescent/Only-C1/SD-CG/HFTN-CG
REM
REM
REM
REM
REM
REM ./C.cell (11c1c37f851c82e70ff6c80c92926a4b)
REM
REM compiler GCC version 9.2.1 20190827 (Red Hat 9.2.1-1)
REM options -cpp -mtune=generic -march=x86-64 -g -O0 -fpre-include=/usr/include/finclude/math-vector-fortran.h
REM seed -701870803 -1608314948 -1607715224 120711839 2132459117 268263105 -216894194 -1663335164 -1458367816 1294148825 1522304810 -1497801886 1274559176 -534024821 1047654524 1104799554 -142902853 476934439 512924448 1281093740 1992529106 1939843555 -1906922899 -1182460843 -1006244162 -1683899741 1032155659 1453344074 -1446341811 -1918435171 -780808795 1701227336 -1635727884
REM
CELL 1.54180   50.00000   50.00000   50.00000   90.00000   90.00000   90.00000
LATT -1
SFAC C  
C      1  0.5197840000000  0.4358380000000  0.5430460000000 1.0
C      1  0.4402450000000  0.4313280000000  0.5374320000000 1.0
C      1  0.5429170000000  0.5147760000000  0.4351890000000 1.0
C      1  0.4645010000000  0.5064160000000  0.3967930000000 1.0
C      1  0.6038800000000  0.4624530000000  0.5282020000000 1.0
C      1  0.4835560000000  0.5163290000000  0.4422130000000 1.0
C      1  0.5429720000000  0.4597290000000  0.3955990000000 1.0
C      1  0.5402520000000  0.5526950000000  0.4045360000000 1.0
C      1  0.3913150000000  0.4899990000000  0.5303090000000 1.0
C      1  0.4659610000000  0.6006000000000  0.4559000000000 1.0
C      1  0.5138820000000  0.5986960000000  0.5088660000000 1.0
C      1  0.6124440000000  0.5345400000000  0.5207360000000 1.0
C      1  0.5295010000000  0.5036350000000  0.4594850000000 1.0
C      1  0.5598330000000  0.4120700000000  0.5079990000000 1.0
C      1  0.5618640000000  0.4429680000000  0.5881540000000 1.0
C      1  0.5251580000000  0.5713580000000  0.5119510000000 1.0
C      1  0.4333130000000  0.5871780000000  0.5566730000000 1.0
C      1  0.4166890000000  0.4527310000000  0.5754890000000 1.0
C      1  0.6105890000000  0.5194390000000  0.5440140000000 1.0
C      1  0.5014330000000  0.4694150000000  0.5978290000000 1.0
C      1  0.5623300000000  0.5378380000000  0.4396310000000 1.0
C      1  0.5724860000000  0.4251240000000  0.5332910000000 1.0
C      1  0.4589200000000  0.5517740000000  0.4802650000000 1.0
C      1  0.4344930000000  0.5270970000000  0.5460730000000 1.0
C      1  0.5379510000000  0.6159350000000  0.5134600000000 1.0
C      1  0.4253620000000  0.5864130000000  0.5300890000000 1.0
C      1  0.4782910000000  0.5492480000000  0.5302090000000 1.0
C      1  0.4823180000000  0.4523620000000  0.5807330000000 1.0
C      1  0.3888110000000  0.5074770000000  0.5534610000000 1.0
C      1  0.5932020000000  0.4353830000000  0.4807400000000 1.0
C      1  0.5899920000000  0.4849490000000  0.5692360000000 1.0
C      1  0.4590300000000  0.4375350000000  0.4336460000000 1.0
C      1  0.4470840000000  0.5721690000000  0.5754190000000 1.0
C      1  0.5218840000000  0.5719700000000  0.5570530000000 1.0
C      1  0.5530150000000  0.4150080000000  0.5822150000000 1.0
C      1  0.5378180000000  0.4575730000000  0.4879310000000 1.0
C      1  0.4882930000000  0.5234400000000  0.4133800000000 1.0
C      1  0.5028790000000  0.4577170000000  0.4861480000000 1.0
C      1  0.5371870000000  0.5654070000000  0.4841220000000 1.0
C      1  0.5303460000000  0.4075810000000  0.5411680000000 1.0
C      1  0.4650030000000  0.5029010000000  0.5846050000000 1.0
C      1  0.5152380000000  0.4734250000000  0.3912170000000 1.0
C      1  0.4398340000000  0.5987380000000  0.5078800000000 1.0
C      1  0.4988300000000  0.4665160000000  0.4150630000000 1.0
C      1  0.4723550000000  0.4555860000000  0.4105210000000 1.0
C      1  0.4394430000000  0.4801240000000  0.5279630000000 1.0
C      1  0.4769730000000  0.5517560000000  0.4112120000000 1.0
C      1  0.5681570000000  0.4189620000000  0.4812470000000 1.0
C      1  0.4270130000000  0.4215050000000  0.4667130000000 1.0
C      1  0.4129260000000  0.5630920000000  0.5168940000000 1.0
C      1  0.5078070000000  0.5020330000000  0.5650020000000 1.0
C      1  0.5702700000000  0.4759000000000  0.4492740000000 1.0
C      1  0.5083870000000  0.3892820000000  0.5013090000000 1.0
C      1  0.4402900000000  0.5229380000000  0.4069360000000 1.0
C      1  0.4057710000000  0.5723710000000  0.4887510000000 1.0
C      1  0.5608330000000  0.4931520000000  0.4264800000000 1.0
C      1  0.4292160000000  0.5377640000000  0.5191300000000 1.0
C      1  0.5441420000000  0.5732470000000  0.5367660000000 1.0
C      1  0.4922640000000  0.5136640000000  0.4855790000000 1.0
C      1  0.4514380000000  0.4043020000000  0.4690900000000 1.0
C      1  0.4907180000000  0.5437010000000  0.4852440000000 1.0
C      1  0.5857170000000  0.5328200000000  0.4570450000000 1.0
C      1  0.5492880000000  0.5394070000000  0.4891440000000 1.0
C      1  0.5039230000000  0.4198130000000  0.4207730000000 1.0
C      1  0.4508660000000  0.5028500000000  0.5491380000000 1.0
C      1  0.5118300000000  0.4466070000000  0.4326300000000 1.0
C      1  0.4888960000000  0.5985390000000  0.5277700000000 1.0
C      1  0.4569360000000  0.5234520000000  0.4542100000000 1.0
C      1  0.5475720000000  0.4825790000000  0.5306530000000 1.0
C      1  0.5417400000000  0.4429720000000  0.4208250000000 1.0
C      1  0.4919790000000  0.4347640000000  0.5329830000000 1.0
C      1  0.5574180000000  0.5267900000000  0.5345020000000 1.0
C      1  0.5919920000000  0.4433820000000  0.5470430000000 1.0
C      1  0.5627910000000  0.4466980000000  0.4449260000000 1.0
C      1  0.4474440000000  0.5772760000000  0.4623090000000 1.0
C      1  0.5443550000000  0.4892790000000  0.4821900000000 1.0
C      1  0.4762810000000  0.5730460000000  0.5743050000000 1.0
C      1  0.4878930000000  0.5966140000000  0.4354080000000 1.0
C      1  0.5268250000000  0.5470000000000  0.5711240000000 1.0
C      1  0.4350850000000  0.4367550000000  0.5901710000000 1.0
C      1  0.5534960000000  0.5873090000000  0.4694290000000 1.0
C      1  0.4009710000000  0.4826660000000  0.4551050000000 1.0
C      1  0.4461130000000  0.4827330000000  0.5952370000000 1.0
C      1  0.4858860000000  0.4047780000000  0.5434460000000 1.0
C      1  0.5456250000000  0.5037740000000  0.5883960000000 1.0
C      1  0.5360990000000  0.4918330000000  0.5621860000000 1.0
C      1  0.4154390000000  0.5318330000000  0.5678480000000 1.0
C      1  0.5900130000000  0.5742140000000  0.5075910000000 1.0
C      1  0.5105610000000  0.5613590000000  0.4698130000000 1.0
C      1  0.4587960000000  0.4530920000000  0.5114730000000 1.0
C      1  0.5030690000000  0.5317020000000  0.5611850000000 1.0
C      1  0.5970980000000  0.5480450000000  0.5021060000000 1.0
C      1  0.4240820000000  0.4812080000000  0.5768000000000 1.0
C      1  0.4685470000000  0.5968770000000  0.5062540000000 1.0
C      1  0.5056270000000  0.5995490000000  0.4787130000000 1.0
C      1  0.4848150000000  0.4698630000000  0.5071220000000 1.0
C      1  0.4972490000000  0.4200610000000  0.4638370000000 1.0
C      1  0.5742760000000  0.5025450000000  0.4957640000000 1.0
C      1  0.5367420000000  0.5790770000000  0.4168450000000 1.0
C      1  0.5224630000000  0.3983480000000  0.4278890000000 1.0
C      1  0.5123100000000  0.5548900000000  0.4421050000000 1.0
C      1  0.4433320000000  0.4807860000000  0.4325730000000 1.0
C      1  0.4763860000000  0.5105130000000  0.5338850000000 1.0
C      1  0.4930150000000  0.4691380000000  0.4586580000000 1.0
C      1  0.4300780000000  0.4400380000000  0.4436010000000 1.0
C      1  0.5330270000000  0.3998120000000  0.5130300000000 1.0
C      1  0.5100790000000  0.3927270000000  0.5594940000000 1.0
C      1  0.4609010000000  0.4687750000000  0.4570420000000 1.0
C      1  0.5311790000000  0.4979820000000  0.5086300000000 1.0
C      1  0.5130860000000  0.6065570000000  0.4501740000000 1.0
C      1  0.4371350000000  0.5098390000000  0.4344180000000 1.0
C      1  0.6022410000000  0.5114080000000  0.4497060000000 1.0
C      1  0.5216840000000  0.4082000000000  0.5848970000000 1.0
C      1  0.4784810000000  0.6071830000000  0.4813160000000 1.0
C      1  0.4559690000000  0.4549670000000  0.5957990000000 1.0
C      1  0.5182880000000  0.5435750000000  0.6001600000000 1.0
C      1  0.4110900000000  0.4618700000000  0.4367060000000 1.0
C      1  0.4434850000000  0.4688440000000  0.4836850000000 1.0
C      1  0.5915590000000  0.4426700000000  0.4519550000000 1.0
C      1  0.4106770000000  0.5102970000000  0.4483360000000 1.0
C      1  0.5915170000000  0.5326220000000  0.5638770000000 1.0
C      1  0.5478120000000  0.4364460000000  0.4682660000000 1.0
C      1  0.5080550000000  0.3838750000000  0.4734180000000 1.0
C      1  0.5275440000000  0.4584270000000  0.5895550000000 1.0
C      1  0.4922930000000  0.4881160000000  0.5459720000000 1.0
C      1  0.4892490000000  0.5672730000000  0.4316110000000 1.0
C      1  0.5572460000000  0.4085790000000  0.5534200000000 1.0
C      1  0.4053540000000  0.4780760000000  0.4844970000000 1.0
C      1  0.5954790000000  0.4844730000000  0.4881440000000 1.0
C      1  0.4905380000000  0.4290060000000  0.4951810000000 1.0
C      1  0.5972160000000  0.4855080000000  0.4591590000000 1.0
C      1  0.4825450000000  0.3913990000000  0.5163070000000 1.0
C      1  0.5149930000000  0.4358100000000  0.5732960000000 1.0
C      1  0.4610320000000  0.5306040000000  0.5941650000000 1.0
C      1  0.5308890000000  0.5018720000000  0.3895330000000 1.0
C      1  0.4546240000000  0.4781460000000  0.4051620000000 1.0
C      1  0.4472790000000  0.5516890000000  0.4126850000000 1.0
C      1  0.5599750000000  0.6098300000000  0.4895310000000 1.0
C      1  0.4914250000000  0.5747370000000  0.5476060000000 1.0
C      1  0.5224510000000  0.5145640000000  0.6057560000000 1.0
C      1  0.4367170000000  0.5459770000000  0.5862370000000 1.0
C      1  0.4518650000000  0.5566830000000  0.5111500000000 1.0
C      1  0.5564630000000  0.6007770000000  0.5325960000000 1.0
C      1  0.4050800000000  0.5034410000000  0.5773840000000 1.0
C      1  0.4367380000000  0.4154250000000  0.5140890000000 1.0
C      1  0.5980120000000  0.4912400000000  0.5414540000000 1.0
C      1  0.5700900000000  0.5478490000000  0.5490110000000 1.0
C      1  0.5778860000000  0.5317690000000  0.4857910000000 1.0
C      1  0.5717800000000  0.5013270000000  0.5267840000000 1.0
C      1  0.4157600000000  0.4438840000000  0.5476530000000 1.0
C      1  0.4063390000000  0.4536240000000  0.5015940000000 1.0
C      1  0.5566540000000  0.4862570000000  0.3981920000000 1.0
C      1  0.5804380000000  0.4570650000000  0.5701580000000 1.0
C      1  0.5789020000000  0.5995080000000  0.5119140000000 1.0
C      1  0.5882660000000  0.4585320000000  0.5019350000000 1.0
C      1  0.5392220000000  0.5950440000000  0.4416140000000 1.0
C      1  0.5236900000000  0.5240810000000  0.4098980000000 1.0
C      1  0.4225530000000  0.5165960000000  0.4983110000000 1.0
C      1  0.4335970000000  0.5658300000000  0.4370320000000 1.0
C      1  0.4237970000000  0.4315950000000  0.4940360000000 1.0
C      1  0.4113130000000  0.4666800000000  0.5287540000000 1.0
C      1  0.4038530000000  0.5526390000000  0.4671410000000 1.0
C      1  0.5813940000000  0.5101570000000  0.5816690000000 1.0
C      1  0.5673590000000  0.5474380000000  0.4130230000000 1.0
C      1  0.4452360000000  0.4946570000000  0.5003880000000 1.0
C      1  0.3963590000000  0.5014210000000  0.5027960000000 1.0
C      1  0.4757340000000  0.4990070000000  0.5055520000000 1.0
C      1  0.5028690000000  0.5474270000000  0.5126900000000 1.0
C      1  0.5227030000000  0.4018770000000  0.4567040000000 1.0
C      1  0.5567420000000  0.4556150000000  0.5140000000000 1.0
C      1  0.4058090000000  0.5632360000000  0.4408570000000 1.0
C      1  0.4799880000000  0.4601340000000  0.5499640000000 1.0
C      1  0.5003120000000  0.4999690000000  0.4604640000000 1.0
C      1  0.4221180000000  0.5294540000000  0.4709960000000 1.0
C      1  0.4274180000000  0.5907340000000  0.4817500000000 1.0
C      1  0.5415820000000  0.4143270000000  0.4130880000000 1.0
C      1  0.4972150000000  0.4975400000000  0.5927450000000 1.0
C      1  0.4852790000000  0.5467090000000  0.5857600000000 1.0
C      1  0.4599740000000  0.4046350000000  0.4990250000000 1.0
C      1  0.5356380000000  0.5274600000000  0.5131410000000 1.0
C      1  0.4712470000000  0.4145980000000  0.4495970000000 1.0
END
