TITL C-951345-2650-186 -1.65851115889619e-06 125000 -1011.16847133222 0 0 163 (C1) n - 1
REM
REM in /home/bkarasulu/work/CARBON/AIRSS/Generating-Clusters/EDIP-Nigel-Params/with-SteepDescent/Only-C1/SD-CG/HFTN-CG
REM
REM
REM
REM
REM
REM ./C.cell (11c1c37f851c82e70ff6c80c92926a4b)
REM
REM compiler GCC version 9.2.1 20190827 (Red Hat 9.2.1-1)
REM options -cpp -mtune=generic -march=x86-64 -g -O0 -fpre-include=/usr/include/finclude/math-vector-fortran.h
REM seed 1398638579 903010736 1845268947 -654581939 -1947690835 -633091100 -1501239836 -674771635 586682410 2019546341 -1783231540 81274618 1253546944 -772821500 -212044892 -1611450090 -949894785 52168017 -514875793 1520719731 -210960566 515660632 1769815740 1408725138 1591758046 276035110 -416405871 -2006265533 -230779570 -1575818775 774283525 -1838836603 -1197297179
REM
CELL 1.54180   50.00000   50.00000   50.00000   90.00000   90.00000   90.00000
LATT -1
SFAC C  
C      1  0.4627530000000  0.5815640000000  0.5672890000000 1.0
C      1  0.4293680000000  0.5504520000000  0.4436620000000 1.0
C      1  0.5633700000000  0.5540030000000  0.4552560000000 1.0
C      1  0.4649490000000  0.5321030000000  0.3988510000000 1.0
C      1  0.4635700000000  0.5057060000000  0.5151810000000 1.0
C      1  0.4587290000000  0.4308820000000  0.4354000000000 1.0
C      1  0.4541970000000  0.5733400000000  0.4792730000000 1.0
C      1  0.4041440000000  0.5017950000000  0.5261670000000 1.0
C      1  0.4368960000000  0.4374510000000  0.5555770000000 1.0
C      1  0.4961040000000  0.4739410000000  0.4356850000000 1.0
C      1  0.5566800000000  0.4227290000000  0.4862570000000 1.0
C      1  0.4339360000000  0.5336920000000  0.5627080000000 1.0
C      1  0.5724060000000  0.4949700000000  0.5597000000000 1.0
C      1  0.5940360000000  0.5755550000000  0.4860830000000 1.0
C      1  0.4200820000000  0.5566540000000  0.5520580000000 1.0
C      1  0.5634930000000  0.5194960000000  0.5075270000000 1.0
C      1  0.5082980000000  0.4286960000000  0.5880290000000 1.0
C      1  0.4020880000000  0.4798320000000  0.4782910000000 1.0
C      1  0.5293960000000  0.5889320000000  0.5373170000000 1.0
C      1  0.4524180000000  0.4987580000000  0.4321030000000 1.0
C      1  0.4755190000000  0.4940410000000  0.5556530000000 1.0
C      1  0.5850830000000  0.4696550000000  0.4988450000000 1.0
C      1  0.4084810000000  0.5280230000000  0.4808780000000 1.0
C      1  0.5549700000000  0.4738280000000  0.5073250000000 1.0
C      1  0.4169840000000  0.5792020000000  0.5088100000000 1.0
C      1  0.4151870000000  0.4899350000000  0.5528120000000 1.0
C      1  0.5489980000000  0.5170290000000  0.5904540000000 1.0
C      1  0.5349770000000  0.4327360000000  0.5766450000000 1.0
C      1  0.5303430000000  0.5460780000000  0.4962380000000 1.0
C      1  0.4904580000000  0.5906810000000  0.4507100000000 1.0
C      1  0.4219500000000  0.4623050000000  0.5599480000000 1.0
C      1  0.5252870000000  0.5323340000000  0.5255840000000 1.0
C      1  0.5624020000000  0.4543360000000  0.4147670000000 1.0
C      1  0.4588840000000  0.5337440000000  0.5793960000000 1.0
C      1  0.4792740000000  0.4350660000000  0.5134690000000 1.0
C      1  0.5007040000000  0.5564610000000  0.5914560000000 1.0
C      1  0.5321550000000  0.5195640000000  0.5647380000000 1.0
C      1  0.5052990000000  0.5283480000000  0.5806780000000 1.0
C      1  0.4961070000000  0.3849760000000  0.5049490000000 1.0
C      1  0.4731330000000  0.4592440000000  0.6078240000000 1.0
C      1  0.5368070000000  0.4607800000000  0.4690490000000 1.0
C      1  0.4000780000000  0.5043420000000  0.4627420000000 1.0
C      1  0.4381490000000  0.5212240000000  0.4822890000000 1.0
C      1  0.5243200000000  0.5992200000000  0.5109040000000 1.0
C      1  0.5465570000000  0.4585500000000  0.5835890000000 1.0
C      1  0.4159490000000  0.4962500000000  0.4381070000000 1.0
C      1  0.5340430000000  0.4037290000000  0.4839590000000 1.0
C      1  0.4906110000000  0.5029360000000  0.5013620000000 1.0
C      1  0.5515960000000  0.4742980000000  0.5590630000000 1.0
C      1  0.4489460000000  0.5350390000000  0.4583180000000 1.0
C      1  0.5924490000000  0.5228760000000  0.5000170000000 1.0
C      1  0.4913380000000  0.4805170000000  0.4826500000000 1.0
C      1  0.4890150000000  0.4748200000000  0.5371890000000 1.0
C      1  0.4611220000000  0.4253290000000  0.5705480000000 1.0
C      1  0.5157440000000  0.5779640000000  0.4607450000000 1.0
C      1  0.4238510000000  0.5773550000000  0.4796180000000 1.0
C      1  0.4487570000000  0.4203350000000  0.4614390000000 1.0
C      1  0.4497950000000  0.5322820000000  0.5074590000000 1.0
C      1  0.5889120000000  0.4501850000000  0.5453600000000 1.0
C      1  0.4856470000000  0.4236430000000  0.4216130000000 1.0
C      1  0.4680270000000  0.4619680000000  0.5201890000000 1.0
C      1  0.5062570000000  0.4927640000000  0.4587120000000 1.0
C      1  0.4257060000000  0.4367230000000  0.5065220000000 1.0
C      1  0.5439540000000  0.4249260000000  0.5488300000000 1.0
C      1  0.4561230000000  0.5040280000000  0.4032260000000 1.0
C      1  0.5283440000000  0.4403450000000  0.4028220000000 1.0
C      1  0.5312020000000  0.4530330000000  0.5064200000000 1.0
C      1  0.5088490000000  0.4062850000000  0.4353620000000 1.0
C      1  0.5267900000000  0.4893030000000  0.5590900000000 1.0
C      1  0.4617590000000  0.3989990000000  0.4735110000000 1.0
C      1  0.4097310000000  0.5550240000000  0.4650980000000 1.0
C      1  0.5744340000000  0.5052920000000  0.5868720000000 1.0
C      1  0.4752960000000  0.4857980000000  0.3892540000000 1.0
C      1  0.5004720000000  0.4352110000000  0.4685280000000 1.0
C      1  0.5439840000000  0.5353430000000  0.4712160000000 1.0
C      1  0.5837150000000  0.4633380000000  0.4690720000000 1.0
C      1  0.4817330000000  0.5234790000000  0.5613670000000 1.0
C      1  0.4813420000000  0.5754020000000  0.4249140000000 1.0
C      1  0.5246850000000  0.5610840000000  0.4358010000000 1.0
C      1  0.5181570000000  0.4806570000000  0.5306270000000 1.0
C      1  0.5231090000000  0.5324970000000  0.4475520000000 1.0
C      1  0.4874060000000  0.3900910000000  0.4787110000000 1.0
C      1  0.5069550000000  0.5510720000000  0.3901750000000 1.0
C      1  0.6041630000000  0.4944830000000  0.5075630000000 1.0
C      1  0.4598330000000  0.5540160000000  0.4202670000000 1.0
C      1  0.4590970000000  0.5613970000000  0.5066680000000 1.0
C      1  0.5635440000000  0.5223560000000  0.5387230000000 1.0
C      1  0.5955140000000  0.4769340000000  0.5531070000000 1.0
C      1  0.4410250000000  0.5034970000000  0.5952970000000 1.0
C      1  0.5727680000000  0.4867060000000  0.4526810000000 1.0
C      1  0.5876450000000  0.5401100000000  0.5428740000000 1.0
C      1  0.5074530000000  0.5603200000000  0.4863960000000 1.0
C      1  0.4178640000000  0.4593640000000  0.4650680000000 1.0
C      1  0.4434910000000  0.5877960000000  0.5238220000000 1.0
C      1  0.4999250000000  0.5472920000000  0.5374340000000 1.0
C      1  0.6086210000000  0.5219000000000  0.5468720000000 1.0
C      1  0.5326010000000  0.5137910000000  0.4281750000000 1.0
C      1  0.4986230000000  0.4722280000000  0.4048570000000 1.0
C      1  0.5716740000000  0.4226010000000  0.5099550000000 1.0
C      1  0.5918550000000  0.5563800000000  0.4640910000000 1.0
C      1  0.4432360000000  0.4891760000000  0.4861680000000 1.0
C      1  0.5475530000000  0.5964760000000  0.4933840000000 1.0
C      1  0.5068510000000  0.5671970000000  0.4129540000000 1.0
C      1  0.4705760000000  0.5607350000000  0.5873430000000 1.0
C      1  0.5153920000000  0.4502000000000  0.4491610000000 1.0
C      1  0.5172060000000  0.5759880000000  0.5779800000000 1.0
C      1  0.4833170000000  0.5941600000000  0.5506340000000 1.0
C      1  0.4959090000000  0.5206540000000  0.4550270000000 1.0
C      1  0.4989980000000  0.4420950000000  0.4001400000000 1.0
C      1  0.4925210000000  0.5992970000000  0.5012100000000 1.0
C      1  0.4944480000000  0.4272500000000  0.5393960000000 1.0
C      1  0.4802450000000  0.4347040000000  0.5932190000000 1.0
C      1  0.4737210000000  0.5956450000000  0.4747610000000 1.0
C      1  0.5421360000000  0.4917630000000  0.4655060000000 1.0
C      1  0.5709250000000  0.5800290000000  0.5021130000000 1.0
C      1  0.5990420000000  0.5286970000000  0.4719100000000 1.0
C      1  0.5539450000000  0.5242600000000  0.4142140000000 1.0
C      1  0.5454770000000  0.5763360000000  0.5774060000000 1.0
C      1  0.4928780000000  0.4524640000000  0.5555080000000 1.0
C      1  0.5612150000000  0.4434940000000  0.4645890000000 1.0
C      1  0.4075110000000  0.5548520000000  0.5246620000000 1.0
C      1  0.5068680000000  0.5764970000000  0.5506690000000 1.0
C      1  0.5255740000000  0.4742470000000  0.5949720000000 1.0
C      1  0.4888780000000  0.5621180000000  0.5113410000000 1.0
C      1  0.4222180000000  0.4668190000000  0.4378850000000 1.0
C      1  0.4224510000000  0.5096300000000  0.5731150000000 1.0
C      1  0.6111660000000  0.4954950000000  0.5366750000000 1.0
C      1  0.5931240000000  0.5512060000000  0.5158170000000 1.0
C      1  0.5900210000000  0.5090130000000  0.4550630000000 1.0
C      1  0.5037560000000  0.5125850000000  0.6051310000000 1.0
C      1  0.4973230000000  0.5025530000000  0.3803360000000 1.0
C      1  0.4378500000000  0.5800280000000  0.5517210000000 1.0
C      1  0.4659990000000  0.4734350000000  0.4423880000000 1.0
C      1  0.5722970000000  0.5036540000000  0.4078230000000 1.0
C      1  0.4686130000000  0.5231950000000  0.4414340000000 1.0
C      1  0.4095300000000  0.4563810000000  0.5182990000000 1.0
C      1  0.5291440000000  0.5004990000000  0.6057610000000 1.0
C      1  0.4293400000000  0.4358930000000  0.4772810000000 1.0
C      1  0.5219460000000  0.3960830000000  0.5099980000000 1.0
C      1  0.4508740000000  0.4766690000000  0.5992960000000 1.0
C      1  0.5444370000000  0.4989610000000  0.4966160000000 1.0
C      1  0.5371850000000  0.5965470000000  0.4673700000000 1.0
C      1  0.5606750000000  0.5502100000000  0.4260760000000 1.0
C      1  0.4363980000000  0.4229240000000  0.5296190000000 1.0
C      1  0.5181540000000  0.5046370000000  0.5130970000000 1.0
C      1  0.5082570000000  0.4069710000000  0.4662720000000 1.0
C      1  0.4649580000000  0.4760680000000  0.4715030000000 1.0
C      1  0.3996900000000  0.4800750000000  0.5074450000000 1.0
C      1  0.4418590000000  0.4508270000000  0.4230140000000 1.0
C      1  0.5708770000000  0.4298980000000  0.5369210000000 1.0
C      1  0.4581910000000  0.4052320000000  0.5263210000000 1.0
C      1  0.4423310000000  0.4769170000000  0.5149120000000 1.0
C      1  0.5587080000000  0.4337140000000  0.4360020000000 1.0
C      1  0.4012360000000  0.5283390000000  0.5114730000000 1.0
C      1  0.5524090000000  0.5879410000000  0.5534610000000 1.0
C      1  0.5219080000000  0.4176130000000  0.5307440000000 1.0
C      1  0.5290660000000  0.4297470000000  0.4305430000000 1.0
C      1  0.4623130000000  0.4690930000000  0.5719960000000 1.0
C      1  0.5717590000000  0.4802180000000  0.4235430000000 1.0
C      1  0.4727230000000  0.6012940000000  0.5243980000000 1.0
C      1  0.5014430000000  0.4503700000000  0.4936880000000 1.0
C      1  0.4748390000000  0.4072520000000  0.5505910000000 1.0
C      1  0.4899910000000  0.5300360000000  0.3847640000000 1.0
END
