TITL C-950533-5798-93 9.75411826405345e-07 125000 -355.670586238159 0 0 59 (C1) n - 1
REM
REM in /home/bkarasulu/work/CARBON/AIRSS/Generating-Clusters/EDIP-Nigel-Params/with-SteepDescent/Only-C1/SD-CG/HFTN-CG
REM
REM
REM
REM
REM
REM ./C.cell (11c1c37f851c82e70ff6c80c92926a4b)
REM
REM compiler GCC version 9.2.1 20190827 (Red Hat 9.2.1-1)
REM options -cpp -mtune=generic -march=x86-64 -g -O0 -fpre-include=/usr/include/finclude/math-vector-fortran.h
REM seed -1106500829 2048363385 -44105985 1444883532 1161046722 48123442 -559888478 -1275039339 -27475265 1803649321 -1411306046 1544752589 1576964326 -578749468 -1438487989 525896741 -461835581 -981452334 -1055898520 780667946 803918546 135631706 582259651 -1459222349 -1771722774 519511524 2115270976 -164682361 -1533267898 -871071544 -415405609 -910694375 1644265139
REM
CELL 1.54180   50.00000   50.00000   50.00000   90.00000   90.00000   90.00000
LATT -1
SFAC C  
C      1  0.5296430000000  0.5609960000000  0.5242100000000 1.0
C      1  0.4705490000000  0.4646940000000  0.4415870000000 1.0
C      1  0.5565670000000  0.4935620000000  0.4596370000000 1.0
C      1  0.5060490000000  0.4996770000000  0.4281890000000 1.0
C      1  0.5627290000000  0.5183340000000  0.5515670000000 1.0
C      1  0.5595960000000  0.4641960000000  0.5015150000000 1.0
C      1  0.5480340000000  0.4630660000000  0.5492880000000 1.0
C      1  0.5351640000000  0.5151570000000  0.5150280000000 1.0
C      1  0.4940210000000  0.5782900000000  0.5034020000000 1.0
C      1  0.4922970000000  0.4301310000000  0.4754100000000 1.0
C      1  0.4720300000000  0.5267270000000  0.5548610000000 1.0
C      1  0.5154440000000  0.4485830000000  0.5164030000000 1.0
C      1  0.4968860000000  0.5319490000000  0.4969160000000 1.0
C      1  0.5130180000000  0.5133310000000  0.4541810000000 1.0
C      1  0.4489950000000  0.5290420000000  0.5356060000000 1.0
C      1  0.4343540000000  0.5075340000000  0.4925970000000 1.0
C      1  0.5789700000000  0.5127140000000  0.5303590000000 1.0
C      1  0.4447820000000  0.4706870000000  0.5473200000000 1.0
C      1  0.5650100000000  0.4885770000000  0.4883440000000 1.0
C      1  0.4878040000000  0.4969830000000  0.5124380000000 1.0
C      1  0.5279810000000  0.4829560000000  0.4219460000000 1.0
C      1  0.4833470000000  0.5534400000000  0.5141260000000 1.0
C      1  0.4502490000000  0.4413840000000  0.5051070000000 1.0
C      1  0.4931380000000  0.5329250000000  0.4665220000000 1.0
C      1  0.4378840000000  0.4582570000000  0.4828290000000 1.0
C      1  0.4450130000000  0.5362050000000  0.4684580000000 1.0
C      1  0.5185110000000  0.4638360000000  0.4632850000000 1.0
C      1  0.4359440000000  0.5465740000000  0.4928770000000 1.0
C      1  0.4529210000000  0.5509410000000  0.5159770000000 1.0
C      1  0.4571530000000  0.4916020000000  0.5639530000000 1.0
C      1  0.5662340000000  0.5379650000000  0.4908810000000 1.0
C      1  0.4267950000000  0.4843650000000  0.5294120000000 1.0
C      1  0.4845680000000  0.4931200000000  0.5692440000000 1.0
C      1  0.5634290000000  0.5131160000000  0.5057750000000 1.0
C      1  0.5435140000000  0.4549750000000  0.5229330000000 1.0
C      1  0.5264990000000  0.4696920000000  0.5638730000000 1.0
C      1  0.5136270000000  0.5791240000000  0.4844620000000 1.0
C      1  0.4693780000000  0.4269870000000  0.4908060000000 1.0
C      1  0.5173170000000  0.4939970000000  0.5043420000000 1.0
C      1  0.4447820000000  0.5053000000000  0.5196960000000 1.0
C      1  0.5518280000000  0.5447660000000  0.4675610000000 1.0
C      1  0.5158450000000  0.4368830000000  0.4902770000000 1.0
C      1  0.4748410000000  0.4930310000000  0.4827110000000 1.0
C      1  0.4677790000000  0.5186360000000  0.4658350000000 1.0
C      1  0.4918870000000  0.5459220000000  0.5426120000000 1.0
C      1  0.4920980000000  0.4669420000000  0.5287120000000 1.0
C      1  0.5327600000000  0.5660240000000  0.4698320000000 1.0
C      1  0.5000760000000  0.4732690000000  0.5566930000000 1.0
C      1  0.4633770000000  0.4550220000000  0.5294420000000 1.0
C      1  0.5424420000000  0.5199850000000  0.4542960000000 1.0
C      1  0.5093090000000  0.4904340000000  0.4745300000000 1.0
C      1  0.5212430000000  0.5456110000000  0.5466390000000 1.0
C      1  0.4662550000000  0.4654210000000  0.4719410000000 1.0
C      1  0.4943150000000  0.4475260000000  0.4507880000000 1.0
C      1  0.4812790000000  0.4868070000000  0.4284280000000 1.0
C      1  0.5408280000000  0.4720230000000  0.4448190000000 1.0
C      1  0.5353160000000  0.5192090000000  0.5449140000000 1.0
C      1  0.4213530000000  0.4805590000000  0.4916010000000 1.0
C      1  0.5269430000000  0.5409350000000  0.5030060000000 1.0
END
