TITL C-950522-5749-690 -2.10438347803417e-06 125000 -596.618533167566 0 0 97 (C1) n - 1
REM
REM in /home/bkarasulu/work/CARBON/AIRSS/Generating-Clusters/EDIP-Nigel-Params/with-SteepDescent/Only-C1/SD-CG/HFTN-CG
REM
REM
REM
REM
REM
REM ./C.cell (11c1c37f851c82e70ff6c80c92926a4b)
REM
REM compiler GCC version 9.2.1 20190827 (Red Hat 9.2.1-1)
REM options -cpp -mtune=generic -march=x86-64 -g -O0 -fpre-include=/usr/include/finclude/math-vector-fortran.h
REM seed 634291803 76832265 -847492703 -1986590361 373617578 1309583131 -1505349313 -171628927 1640666951 -1495899160 821031700 -1773247812 -1157741272 -864484501 -2017739479 -304554463 1353823632 -332177979 1148034183 -1472055017 1959289443 1891229392 -148460361 1011136662 1782564301 1422830830 -1336522205 1945353317 -2094932916 667146148 2098713872 1987257720 1882846554
REM
CELL 1.54180   50.00000   50.00000   50.00000   90.00000   90.00000   90.00000
LATT -1
SFAC C  
C      1  0.5610090000000  0.5518950000000  0.4910100000000 1.0
C      1  0.5132370000000  0.4506710000000  0.4715650000000 1.0
C      1  0.5761930000000  0.5308440000000  0.5017010000000 1.0
C      1  0.4769090000000  0.4842700000000  0.4114120000000 1.0
C      1  0.4890780000000  0.5759760000000  0.5447250000000 1.0
C      1  0.4642730000000  0.5572340000000  0.4507790000000 1.0
C      1  0.4744020000000  0.4725340000000  0.5679060000000 1.0
C      1  0.4347160000000  0.5255370000000  0.5442090000000 1.0
C      1  0.4105320000000  0.5097230000000  0.4966430000000 1.0
C      1  0.5319090000000  0.5192430000000  0.5246970000000 1.0
C      1  0.4852170000000  0.5192710000000  0.5837010000000 1.0
C      1  0.5209320000000  0.4989380000000  0.5478750000000 1.0
C      1  0.4054780000000  0.5060470000000  0.4677480000000 1.0
C      1  0.5047120000000  0.5065980000000  0.4623690000000 1.0
C      1  0.5601490000000  0.4503860000000  0.4550640000000 1.0
C      1  0.5673820000000  0.4911270000000  0.5363890000000 1.0
C      1  0.5569120000000  0.5180280000000  0.5880190000000 1.0
C      1  0.5364040000000  0.4671910000000  0.4608190000000 1.0
C      1  0.5216710000000  0.5500980000000  0.5759280000000 1.0
C      1  0.4575280000000  0.5416220000000  0.5498570000000 1.0
C      1  0.4827980000000  0.5473270000000  0.4306640000000 1.0
C      1  0.5636150000000  0.4498680000000  0.5112170000000 1.0
C      1  0.5288910000000  0.5015480000000  0.4449110000000 1.0
C      1  0.4307350000000  0.4775300000000  0.5462400000000 1.0
C      1  0.4984790000000  0.4911630000000  0.3950860000000 1.0
C      1  0.4208970000000  0.4724740000000  0.4948520000000 1.0
C      1  0.5024150000000  0.5431860000000  0.5007970000000 1.0
C      1  0.4626290000000  0.5668650000000  0.5356430000000 1.0
C      1  0.5766950000000  0.4646210000000  0.4368260000000 1.0
C      1  0.4774010000000  0.5160840000000  0.4529660000000 1.0
C      1  0.4798190000000  0.4271370000000  0.5514460000000 1.0
C      1  0.5007200000000  0.4926720000000  0.5068320000000 1.0
C      1  0.5910860000000  0.4820460000000  0.4537890000000 1.0
C      1  0.4231270000000  0.5227010000000  0.4481120000000 1.0
C      1  0.4577910000000  0.5670020000000  0.4970290000000 1.0
C      1  0.5209430000000  0.5470650000000  0.5268880000000 1.0
C      1  0.5443660000000  0.5396470000000  0.4722140000000 1.0
C      1  0.5400730000000  0.4773480000000  0.5373230000000 1.0
C      1  0.5495860000000  0.5404100000000  0.5720860000000 1.0
C      1  0.5128480000000  0.4260580000000  0.5146660000000 1.0
C      1  0.5511560000000  0.5105760000000  0.4648620000000 1.0
C      1  0.4196070000000  0.5355190000000  0.5039840000000 1.0
C      1  0.5110080000000  0.5300790000000  0.5951670000000 1.0
C      1  0.5145070000000  0.4510550000000  0.5002930000000 1.0
C      1  0.4420780000000  0.5410270000000  0.4617650000000 1.0
C      1  0.5135300000000  0.5834530000000  0.5015980000000 1.0
C      1  0.4566330000000  0.4574030000000  0.4492070000000 1.0
C      1  0.4156520000000  0.4779930000000  0.4671750000000 1.0
C      1  0.5114180000000  0.5455760000000  0.4346690000000 1.0
C      1  0.4830990000000  0.5276560000000  0.5546550000000 1.0
C      1  0.5612560000000  0.5451000000000  0.5455020000000 1.0
C      1  0.4797420000000  0.4224670000000  0.4792190000000 1.0
C      1  0.5038540000000  0.5505320000000  0.5512310000000 1.0
C      1  0.5495190000000  0.4827210000000  0.4849120000000 1.0
C      1  0.4894740000000  0.4905120000000  0.5844710000000 1.0
C      1  0.5630130000000  0.5203700000000  0.5271020000000 1.0
C      1  0.5050620000000  0.5748840000000  0.4755580000000 1.0
C      1  0.5182000000000  0.4872510000000  0.5772400000000 1.0
C      1  0.5028090000000  0.5904390000000  0.5255340000000 1.0
C      1  0.5257660000000  0.5220560000000  0.4226990000000 1.0
C      1  0.4653740000000  0.4512400000000  0.4784860000000 1.0
C      1  0.4762560000000  0.4597930000000  0.4274000000000 1.0
C      1  0.4546450000000  0.4993250000000  0.5262310000000 1.0
C      1  0.5189670000000  0.4564320000000  0.5699770000000 1.0
C      1  0.4448540000000  0.4349990000000  0.5186790000000 1.0
C      1  0.4750770000000  0.5740080000000  0.4725320000000 1.0
C      1  0.5038550000000  0.4247880000000  0.4618100000000 1.0
C      1  0.5452380000000  0.5641630000000  0.5307370000000 1.0
C      1  0.4647910000000  0.5076960000000  0.4243360000000 1.0
C      1  0.4460940000000  0.4713200000000  0.5693450000000 1.0
C      1  0.4408630000000  0.4509470000000  0.4963200000000 1.0
C      1  0.4989760000000  0.4223140000000  0.4345820000000 1.0
C      1  0.5278600000000  0.4763020000000  0.5086740000000 1.0
C      1  0.4669140000000  0.4201960000000  0.5277170000000 1.0
C      1  0.5125290000000  0.5153100000000  0.4907520000000 1.0
C      1  0.5318360000000  0.5076770000000  0.5961180000000 1.0
C      1  0.4530020000000  0.5165610000000  0.5006010000000 1.0
C      1  0.4842690000000  0.5006910000000  0.5354600000000 1.0
C      1  0.5735860000000  0.4457650000000  0.4824720000000 1.0
C      1  0.4861790000000  0.4364590000000  0.4157630000000 1.0
C      1  0.4264440000000  0.5027650000000  0.5590200000000 1.0
C      1  0.4422080000000  0.4829820000000  0.4550600000000 1.0
C      1  0.5868520000000  0.4734890000000  0.4822480000000 1.0
C      1  0.5467490000000  0.4345790000000  0.5299700000000 1.0
C      1  0.4907470000000  0.4491890000000  0.5642520000000 1.0
C      1  0.4624110000000  0.4988990000000  0.4749680000000 1.0
C      1  0.5811320000000  0.5096060000000  0.4575720000000 1.0
C      1  0.4332180000000  0.5533960000000  0.4862400000000 1.0
C      1  0.5420010000000  0.4442820000000  0.5567100000000 1.0
C      1  0.4815170000000  0.4777590000000  0.4866620000000 1.0
C      1  0.4369840000000  0.5013870000000  0.4313540000000 1.0
C      1  0.5203730000000  0.5529200000000  0.4616460000000 1.0
C      1  0.5806430000000  0.4716800000000  0.5204900000000 1.0
C      1  0.5153260000000  0.5116790000000  0.3989790000000 1.0
C      1  0.5919540000000  0.5176070000000  0.4825990000000 1.0
C      1  0.4872880000000  0.4135970000000  0.5072790000000 1.0
C      1  0.4720460000000  0.5415390000000  0.5081110000000 1.0
END
