TITL C-951338-5626-509 -2.45840899018807e-06 125000 -1248.25663908842 0 0 200 (C1) n - 1
REM
REM in /home/bkarasulu/work/CARBON/AIRSS/Generating-Clusters/EDIP-Nigel-Params/with-SteepDescent/Only-C1/SD-CG/HFTN-CG
REM
REM
REM
REM
REM
REM ./C.cell (11c1c37f851c82e70ff6c80c92926a4b)
REM
REM compiler GCC version 9.2.1 20190827 (Red Hat 9.2.1-1)
REM options -cpp -mtune=generic -march=x86-64 -g -O0 -fpre-include=/usr/include/finclude/math-vector-fortran.h
REM seed -710628873 1606561791 -352897819 94967702 -1439145351 -1470126126 2127104709 1848099517 490342058 2015818015 -2098722233 277022335 566203929 -258683923 -414779913 -1112277625 443952474 251784998 30013585 449914637 1211813442 -722669776 -127456359 -775655669 -1193847005 -1197546997 -779724054 883421437 -932895694 2019167435 647499525 -1705699772 -1962687897
REM
CELL 1.54180   50.00000   50.00000   50.00000   90.00000   90.00000   90.00000
LATT -1
SFAC C  
C      1  0.3881680000000  0.4719510000000  0.5087960000000 1.0
C      1  0.5106330000000  0.4701730000000  0.4472850000000 1.0
C      1  0.5576820000000  0.5992080000000  0.4813400000000 1.0
C      1  0.4694540000000  0.4552940000000  0.5319560000000 1.0
C      1  0.5870690000000  0.4978070000000  0.4345340000000 1.0
C      1  0.5471640000000  0.5895690000000  0.4317600000000 1.0
C      1  0.5898710000000  0.5455720000000  0.5602780000000 1.0
C      1  0.5306710000000  0.4846150000000  0.5890080000000 1.0
C      1  0.5142230000000  0.5643210000000  0.5093150000000 1.0
C      1  0.6134700000000  0.4740090000000  0.4682130000000 1.0
C      1  0.5312120000000  0.5607140000000  0.5619090000000 1.0
C      1  0.5241280000000  0.4226380000000  0.4369330000000 1.0
C      1  0.5799020000000  0.4866670000000  0.4923540000000 1.0
C      1  0.4415040000000  0.5214460000000  0.4841780000000 1.0
C      1  0.5543300000000  0.4929600000000  0.6045000000000 1.0
C      1  0.5166120000000  0.5953520000000  0.4656720000000 1.0
C      1  0.5505080000000  0.4573410000000  0.4040730000000 1.0
C      1  0.4085530000000  0.5530300000000  0.5344550000000 1.0
C      1  0.4772620000000  0.5312360000000  0.4330840000000 1.0
C      1  0.4829990000000  0.3930940000000  0.4499160000000 1.0
C      1  0.4318910000000  0.4150470000000  0.5280020000000 1.0
C      1  0.5189060000000  0.5978590000000  0.4355190000000 1.0
C      1  0.4771360000000  0.5343030000000  0.4022080000000 1.0
C      1  0.4441410000000  0.5866130000000  0.4270120000000 1.0
C      1  0.4576530000000  0.5499370000000  0.5963710000000 1.0
C      1  0.5350180000000  0.4114620000000  0.4783890000000 1.0
C      1  0.5555700000000  0.5690640000000  0.5473940000000 1.0
C      1  0.4794940000000  0.4725860000000  0.4312090000000 1.0
C      1  0.4859490000000  0.5284960000000  0.5157030000000 1.0
C      1  0.5920210000000  0.5688680000000  0.5073080000000 1.0
C      1  0.4322680000000  0.4134020000000  0.4979980000000 1.0
C      1  0.4827090000000  0.5666440000000  0.5479830000000 1.0
C      1  0.5330210000000  0.4788170000000  0.5141260000000 1.0
C      1  0.5827090000000  0.5473580000000  0.4358710000000 1.0
C      1  0.5368980000000  0.4609410000000  0.4672510000000 1.0
C      1  0.4716640000000  0.3812110000000  0.4947910000000 1.0
C      1  0.4172240000000  0.4725180000000  0.4190850000000 1.0
C      1  0.5234770000000  0.5182640000000  0.4006730000000 1.0
C      1  0.5019540000000  0.5704810000000  0.5973210000000 1.0
C      1  0.5829340000000  0.4472490000000  0.4443360000000 1.0
C      1  0.3827560000000  0.4821050000000  0.4814980000000 1.0
C      1  0.4870890000000  0.4801990000000  0.5351790000000 1.0
C      1  0.5535070000000  0.5739250000000  0.4086740000000 1.0
C      1  0.5110330000000  0.4904410000000  0.3944060000000 1.0
C      1  0.4968080000000  0.5163520000000  0.5695730000000 1.0
C      1  0.5218830000000  0.4649980000000  0.4052130000000 1.0
C      1  0.4620970000000  0.4459890000000  0.4308600000000 1.0
C      1  0.5248280000000  0.4602320000000  0.4937210000000 1.0
C      1  0.5590440000000  0.4862220000000  0.4665930000000 1.0
C      1  0.5011760000000  0.5482030000000  0.5314710000000 1.0
C      1  0.6078250000000  0.5290260000000  0.4716870000000 1.0
C      1  0.5438700000000  0.4315930000000  0.4571050000000 1.0
C      1  0.5076210000000  0.5251070000000  0.6113490000000 1.0
C      1  0.4052540000000  0.5151680000000  0.4436940000000 1.0
C      1  0.4625750000000  0.5289530000000  0.5529690000000 1.0
C      1  0.4376670000000  0.5968420000000  0.4985520000000 1.0
C      1  0.5067900000000  0.4147250000000  0.4858690000000 1.0
C      1  0.4540050000000  0.5713770000000  0.5369290000000 1.0
C      1  0.5584550000000  0.4978770000000  0.5458990000000 1.0
C      1  0.4969400000000  0.5010680000000  0.4709320000000 1.0
C      1  0.6010610000000  0.5595780000000  0.4794690000000 1.0
C      1  0.5214920000000  0.5173950000000  0.4855570000000 1.0
C      1  0.4372630000000  0.4940060000000  0.6029240000000 1.0
C      1  0.5977420000000  0.5235620000000  0.4436190000000 1.0
C      1  0.4843070000000  0.4791050000000  0.6054860000000 1.0
C      1  0.4755340000000  0.4473720000000  0.5038050000000 1.0
C      1  0.4507410000000  0.4464260000000  0.5923210000000 1.0
C      1  0.5043540000000  0.5405920000000  0.3921470000000 1.0
C      1  0.5057780000000  0.4215960000000  0.5219460000000 1.0
C      1  0.4961700000000  0.4528710000000  0.6045420000000 1.0
C      1  0.4875930000000  0.5453380000000  0.6009880000000 1.0
C      1  0.5346250000000  0.5371660000000  0.6041790000000 1.0
C      1  0.5960350000000  0.4729810000000  0.4467070000000 1.0
C      1  0.5500430000000  0.4542250000000  0.6039000000000 1.0
C      1  0.3936860000000  0.5321540000000  0.4897700000000 1.0
C      1  0.4127530000000  0.5001410000000  0.4173850000000 1.0
C      1  0.6004360000000  0.4521720000000  0.5106520000000 1.0
C      1  0.3919370000000  0.4644770000000  0.4616220000000 1.0
C      1  0.4987980000000  0.5849000000000  0.4177310000000 1.0
C      1  0.5569600000000  0.5474520000000  0.4206620000000 1.0
C      1  0.5586520000000  0.5424680000000  0.5191680000000 1.0
C      1  0.5775760000000  0.5607360000000  0.4610690000000 1.0
C      1  0.4348810000000  0.5519200000000  0.4836440000000 1.0
C      1  0.5203600000000  0.6193420000000  0.5023250000000 1.0
C      1  0.4596940000000  0.5014740000000  0.3924170000000 1.0
C      1  0.5892000000000  0.5449160000000  0.5291940000000 1.0
C      1  0.4377480000000  0.4642990000000  0.5348300000000 1.0
C      1  0.4852890000000  0.3824740000000  0.5461410000000 1.0
C      1  0.5304100000000  0.5640530000000  0.5912190000000 1.0
C      1  0.5300090000000  0.4272360000000  0.5677640000000 1.0
C      1  0.4172600000000  0.4407130000000  0.5319290000000 1.0
C      1  0.5024080000000  0.4449270000000  0.4024080000000 1.0
C      1  0.5157260000000  0.5611350000000  0.4600180000000 1.0
C      1  0.5003150000000  0.6017530000000  0.5448480000000 1.0
C      1  0.4710010000000  0.5898830000000  0.4185370000000 1.0
C      1  0.5088940000000  0.5674570000000  0.3982530000000 1.0
C      1  0.4840580000000  0.4300620000000  0.5432720000000 1.0
C      1  0.4102400000000  0.5456680000000  0.4431970000000 1.0
C      1  0.5903340000000  0.5164320000000  0.4925400000000 1.0
C      1  0.4394030000000  0.5424690000000  0.4043550000000 1.0
C      1  0.5342960000000  0.5428580000000  0.4411650000000 1.0
C      1  0.5556260000000  0.4384530000000  0.5789510000000 1.0
C      1  0.4944010000000  0.3882240000000  0.4773410000000 1.0
C      1  0.4484450000000  0.3947910000000  0.4829460000000 1.0
C      1  0.6149750000000  0.5017590000000  0.5329750000000 1.0
C      1  0.4567510000000  0.4750620000000  0.5959020000000 1.0
C      1  0.5850430000000  0.4329240000000  0.4953830000000 1.0
C      1  0.4830420000000  0.4904650000000  0.4057380000000 1.0
C      1  0.5654460000000  0.5344530000000  0.4873120000000 1.0
C      1  0.5474040000000  0.5140880000000  0.4721040000000 1.0
C      1  0.4963920000000  0.4381560000000  0.4660280000000 1.0
C      1  0.4826250000000  0.6012660000000  0.5208790000000 1.0
C      1  0.4508030000000  0.5140440000000  0.4385010000000 1.0
C      1  0.4260680000000  0.4748730000000  0.4861220000000 1.0
C      1  0.5409220000000  0.5211050000000  0.5328180000000 1.0
C      1  0.4971120000000  0.4604260000000  0.4878710000000 1.0
C      1  0.4372570000000  0.6043080000000  0.4483470000000 1.0
C      1  0.5404910000000  0.4911880000000  0.4353560000000 1.0
C      1  0.4663910000000  0.4337410000000  0.4584250000000 1.0
C      1  0.4413150000000  0.5307270000000  0.5302500000000 1.0
C      1  0.5233130000000  0.5484210000000  0.4860980000000 1.0
C      1  0.4702720000000  0.5213800000000  0.4755030000000 1.0
C      1  0.5626210000000  0.4406270000000  0.4246610000000 1.0
C      1  0.5943350000000  0.4580850000000  0.5392730000000 1.0
C      1  0.4973950000000  0.5116590000000  0.4419430000000 1.0
C      1  0.5860280000000  0.4310710000000  0.4671920000000 1.0
C      1  0.4214420000000  0.5545510000000  0.5618680000000 1.0
C      1  0.4050620000000  0.5295000000000  0.5172870000000 1.0
C      1  0.4118850000000  0.4451890000000  0.4573070000000 1.0
C      1  0.5197540000000  0.5346680000000  0.5513480000000 1.0
C      1  0.6046930000000  0.4830550000000  0.5506000000000 1.0
C      1  0.5675890000000  0.4775560000000  0.3952420000000 1.0
C      1  0.5476800000000  0.3991840000000  0.5011120000000 1.0
C      1  0.4856080000000  0.5841850000000  0.5761110000000 1.0
C      1  0.4725890000000  0.4069060000000  0.5587950000000 1.0
C      1  0.4820020000000  0.4292690000000  0.4139240000000 1.0
C      1  0.5550410000000  0.5240910000000  0.4009540000000 1.0
C      1  0.5629940000000  0.4812040000000  0.5183540000000 1.0
C      1  0.5883590000000  0.4952620000000  0.5704190000000 1.0
C      1  0.5397450000000  0.6210840000000  0.4820320000000 1.0
C      1  0.4426070000000  0.4101420000000  0.5559740000000 1.0
C      1  0.4815290000000  0.4959740000000  0.5090120000000 1.0
C      1  0.5780020000000  0.5702940000000  0.5661260000000 1.0
C      1  0.4077140000000  0.5521910000000  0.4722570000000 1.0
C      1  0.5266500000000  0.3890060000000  0.5192680000000 1.0
C      1  0.4612090000000  0.4871600000000  0.4488200000000 1.0
C      1  0.5044340000000  0.4999120000000  0.5955880000000 1.0
C      1  0.5230300000000  0.4490930000000  0.6117730000000 1.0
C      1  0.5747830000000  0.4416870000000  0.5548560000000 1.0
C      1  0.4301450000000  0.4846980000000  0.5141850000000 1.0
C      1  0.4984020000000  0.4113060000000  0.4310640000000 1.0
C      1  0.4762400000000  0.5001130000000  0.5553350000000 1.0
C      1  0.4987430000000  0.5882320000000  0.4988700000000 1.0
C      1  0.4567910000000  0.4047990000000  0.4565840000000 1.0
C      1  0.4288920000000  0.4508510000000  0.4327050000000 1.0
C      1  0.5271970000000  0.4380180000000  0.5390830000000 1.0
C      1  0.5692230000000  0.5890640000000  0.5063350000000 1.0
C      1  0.5264440000000  0.3992810000000  0.5673660000000 1.0
C      1  0.4758030000000  0.4332470000000  0.5982110000000 1.0
C      1  0.4544410000000  0.6063050000000  0.5202500000000 1.0
C      1  0.4567080000000  0.5781290000000  0.5852280000000 1.0
C      1  0.4139450000000  0.4327720000000  0.4850250000000 1.0
C      1  0.4259960000000  0.4848550000000  0.5654870000000 1.0
C      1  0.4260990000000  0.5099550000000  0.5826880000000 1.0
C      1  0.4801460000000  0.5429630000000  0.4909960000000 1.0
C      1  0.5241340000000  0.5067360000000  0.5125090000000 1.0
C      1  0.4388050000000  0.5133910000000  0.4105520000000 1.0
C      1  0.3993310000000  0.4726690000000  0.5604620000000 1.0
C      1  0.6036630000000  0.5221310000000  0.5180770000000 1.0
C      1  0.5625330000000  0.4223340000000  0.5382130000000 1.0
C      1  0.4468720000000  0.5084800000000  0.5109470000000 1.0
C      1  0.4831090000000  0.5560210000000  0.4542310000000 1.0
C      1  0.4414840000000  0.5346980000000  0.5747130000000 1.0
C      1  0.5147890000000  0.3856040000000  0.5455970000000 1.0
C      1  0.4245630000000  0.5027060000000  0.4668970000000 1.0
C      1  0.4801320000000  0.4082660000000  0.5868160000000 1.0
C      1  0.4539880000000  0.5669770000000  0.4652680000000 1.0
C      1  0.5527880000000  0.5931470000000  0.5304660000000 1.0
C      1  0.4381610000000  0.5784940000000  0.5619070000000 1.0
C      1  0.5640680000000  0.4980950000000  0.4151500000000 1.0
C      1  0.5586980000000  0.5203810000000  0.5971820000000 1.0
C      1  0.4330620000000  0.5583060000000  0.4273810000000 1.0
C      1  0.5200280000000  0.4690300000000  0.5394250000000 1.0
C      1  0.5234880000000  0.5166770000000  0.4316750000000 1.0
C      1  0.3827010000000  0.5100840000000  0.4733410000000 1.0
C      1  0.4542870000000  0.4484020000000  0.4827920000000 1.0
C      1  0.5360450000000  0.4836430000000  0.5598160000000 1.0
C      1  0.3861940000000  0.4806860000000  0.5361510000000 1.0
C      1  0.5688510000000  0.4156980000000  0.5117860000000 1.0
C      1  0.4340330000000  0.5685480000000  0.5094840000000 1.0
C      1  0.6150240000000  0.4714230000000  0.4955510000000 1.0
C      1  0.5789750000000  0.5221080000000  0.5752690000000 1.0
C      1  0.5639470000000  0.5865010000000  0.4564830000000 1.0
C      1  0.4052960000000  0.4432830000000  0.5597230000000 1.0
C      1  0.4312130000000  0.4319800000000  0.5739130000000 1.0
C      1  0.4595320000000  0.4796800000000  0.4785230000000 1.0
C      1  0.4747420000000  0.3744750000000  0.5217540000000 1.0
C      1  0.4003630000000  0.4457320000000  0.5078200000000 1.0
C      1  0.4505580000000  0.5954820000000  0.4715120000000 1.0
C      1  0.5261190000000  0.6067760000000  0.5282690000000 1.0
END
