TITL C-951338-5626-733 -1.33169283925766e-06 125000 -641.855183913414 0 0 103 (C1) n - 1
REM
REM in /home/bkarasulu/work/CARBON/AIRSS/Generating-Clusters/EDIP-Nigel-Params/with-SteepDescent/Only-C1/SD-CG/HFTN-CG
REM
REM
REM
REM
REM
REM ./C.cell (11c1c37f851c82e70ff6c80c92926a4b)
REM
REM compiler GCC version 9.2.1 20190827 (Red Hat 9.2.1-1)
REM options -cpp -mtune=generic -march=x86-64 -g -O0 -fpre-include=/usr/include/finclude/math-vector-fortran.h
REM seed -1366286522 -977155752 -1888679683 1246019421 -2021782791 -1432114611 -1403531462 -1834403251 206314451 -2137075216 1187194668 1111242501 -957464200 -647470165 -251588853 2007077094 -1242408875 1081898031 -951056317 -1323639854 -1982760740 586471785 -2017226039 -17637713 685649484 1108024243 -1926740468 315676506 401744680 -182381831 -790769950 1093423849 -2017826518
REM
CELL 1.54180   50.00000   50.00000   50.00000   90.00000   90.00000   90.00000
LATT -1
SFAC C  
C      1  0.5174810000000  0.5955970000000  0.4918130000000 1.0
C      1  0.5071840000000  0.5671140000000  0.5654130000000 1.0
C      1  0.5658530000000  0.4861610000000  0.4639600000000 1.0
C      1  0.4646740000000  0.5398520000000  0.4426410000000 1.0
C      1  0.5216670000000  0.4028440000000  0.4763010000000 1.0
C      1  0.5608950000000  0.5273670000000  0.5536330000000 1.0
C      1  0.4364050000000  0.5296820000000  0.5550810000000 1.0
C      1  0.5521370000000  0.5724430000000  0.5381210000000 1.0
C      1  0.4553560000000  0.5382730000000  0.4858890000000 1.0
C      1  0.5400960000000  0.5178030000000  0.5357760000000 1.0
C      1  0.5215680000000  0.4547170000000  0.4888080000000 1.0
C      1  0.5273260000000  0.4715240000000  0.4344110000000 1.0
C      1  0.5074660000000  0.4082990000000  0.4996690000000 1.0
C      1  0.5863240000000  0.4862030000000  0.5092100000000 1.0
C      1  0.5163230000000  0.5047310000000  0.5764180000000 1.0
C      1  0.5486110000000  0.5081870000000  0.5055610000000 1.0
C      1  0.5857000000000  0.5387180000000  0.5216190000000 1.0
C      1  0.5873720000000  0.5318090000000  0.5491480000000 1.0
C      1  0.4870750000000  0.4516450000000  0.5188630000000 1.0
C      1  0.4937360000000  0.5313050000000  0.4876090000000 1.0
C      1  0.5842940000000  0.4729520000000  0.4833490000000 1.0
C      1  0.4514290000000  0.5143040000000  0.5083700000000 1.0
C      1  0.4464880000000  0.5163120000000  0.4434780000000 1.0
C      1  0.4970980000000  0.5010730000000  0.4844750000000 1.0
C      1  0.5277440000000  0.4944780000000  0.5509250000000 1.0
C      1  0.4259080000000  0.4401450000000  0.4821630000000 1.0
C      1  0.5403570000000  0.5850360000000  0.4538660000000 1.0
C      1  0.5434750000000  0.5043390000000  0.4748750000000 1.0
C      1  0.5834160000000  0.5062180000000  0.4497740000000 1.0
C      1  0.4622870000000  0.4454190000000  0.4387450000000 1.0
C      1  0.5486850000000  0.4760700000000  0.5595450000000 1.0
C      1  0.5128310000000  0.4359390000000  0.5112420000000 1.0
C      1  0.5439530000000  0.5886730000000  0.4819360000000 1.0
C      1  0.4836840000000  0.4864510000000  0.4351740000000 1.0
C      1  0.5849260000000  0.5266160000000  0.4728000000000 1.0
C      1  0.4709700000000  0.4296880000000  0.5350420000000 1.0
C      1  0.4672030000000  0.5662480000000  0.4884300000000 1.0
C      1  0.4933610000000  0.5315180000000  0.5215870000000 1.0
C      1  0.5558700000000  0.5637090000000  0.4908150000000 1.0
C      1  0.4942450000000  0.5932090000000  0.4620960000000 1.0
C      1  0.4270490000000  0.4851010000000  0.5308300000000 1.0
C      1  0.4950810000000  0.4551160000000  0.4720660000000 1.0
C      1  0.4982870000000  0.5086830000000  0.4220640000000 1.0
C      1  0.4412120000000  0.4188600000000  0.4718930000000 1.0
C      1  0.4743860000000  0.4619890000000  0.4928250000000 1.0
C      1  0.4332560000000  0.4996710000000  0.5552370000000 1.0
C      1  0.4529380000000  0.5421700000000  0.5778740000000 1.0
C      1  0.4452790000000  0.4842160000000  0.5764450000000 1.0
C      1  0.4279870000000  0.4659990000000  0.4688520000000 1.0
C      1  0.5521460000000  0.4640680000000  0.4492940000000 1.0
C      1  0.5173430000000  0.4851800000000  0.5029570000000 1.0
C      1  0.4914440000000  0.4616060000000  0.5682550000000 1.0
C      1  0.5685670000000  0.5626190000000  0.5169080000000 1.0
C      1  0.5738090000000  0.5155380000000  0.4250030000000 1.0
C      1  0.4673480000000  0.5827200000000  0.4647560000000 1.0
C      1  0.5275000000000  0.4996770000000  0.4192990000000 1.0
C      1  0.4201330000000  0.4414830000000  0.5092420000000 1.0
C      1  0.5280040000000  0.4387500000000  0.5373990000000 1.0
C      1  0.5048720000000  0.5408200000000  0.5790290000000 1.0
C      1  0.5140880000000  0.5737260000000  0.4532540000000 1.0
C      1  0.5041610000000  0.4778270000000  0.4535320000000 1.0
C      1  0.5230590000000  0.5669550000000  0.5382450000000 1.0
C      1  0.4448540000000  0.4668700000000  0.4451200000000 1.0
C      1  0.4788350000000  0.4035200000000  0.4957600000000 1.0
C      1  0.4683920000000  0.4907090000000  0.4849210000000 1.0
C      1  0.4246230000000  0.5168590000000  0.4628220000000 1.0
C      1  0.4837550000000  0.5042840000000  0.5332990000000 1.0
C      1  0.5072670000000  0.5829830000000  0.5159110000000 1.0
C      1  0.5074430000000  0.4376820000000  0.5599810000000 1.0
C      1  0.4788370000000  0.5714550000000  0.5572350000000 1.0
C      1  0.4572920000000  0.5673350000000  0.4431130000000 1.0
C      1  0.4618210000000  0.4087830000000  0.5175640000000 1.0
C      1  0.5465150000000  0.5205950000000  0.4291620000000 1.0
C      1  0.5094790000000  0.4272110000000  0.4367210000000 1.0
C      1  0.5435710000000  0.4435980000000  0.4690770000000 1.0
C      1  0.5502690000000  0.4581910000000  0.5387090000000 1.0
C      1  0.4282680000000  0.4561380000000  0.5315610000000 1.0
C      1  0.4764410000000  0.5023690000000  0.5634870000000 1.0
C      1  0.5112390000000  0.5434120000000  0.4595750000000 1.0
C      1  0.5795710000000  0.5159310000000  0.5020030000000 1.0
C      1  0.4242310000000  0.4931460000000  0.4806780000000 1.0
C      1  0.5629720000000  0.4680070000000  0.5148620000000 1.0
C      1  0.4784940000000  0.5276170000000  0.5784830000000 1.0
C      1  0.5043250000000  0.4824010000000  0.5312470000000 1.0
C      1  0.4737570000000  0.5536570000000  0.5321260000000 1.0
C      1  0.5200610000000  0.5385760000000  0.5307870000000 1.0
C      1  0.4473060000000  0.5388960000000  0.5289090000000 1.0
C      1  0.4489470000000  0.4441690000000  0.5486450000000 1.0
C      1  0.4613810000000  0.4609930000000  0.5690710000000 1.0
C      1  0.4685640000000  0.4120780000000  0.4697010000000 1.0
C      1  0.4790740000000  0.5747020000000  0.5130280000000 1.0
C      1  0.5637440000000  0.5470490000000  0.4675380000000 1.0
C      1  0.5404600000000  0.5293400000000  0.4574810000000 1.0
C      1  0.4930780000000  0.5344660000000  0.4364780000000 1.0
C      1  0.5311090000000  0.4195480000000  0.4559320000000 1.0
C      1  0.4840680000000  0.4328930000000  0.4535250000000 1.0
C      1  0.5009180000000  0.4824130000000  0.5857170000000 1.0
C      1  0.5181860000000  0.4481890000000  0.4195100000000 1.0
C      1  0.4277390000000  0.5417920000000  0.4752560000000 1.0
C      1  0.4162450000000  0.4980370000000  0.5078110000000 1.0
C      1  0.4601950000000  0.4913400000000  0.4515720000000 1.0
C      1  0.4886770000000  0.4174290000000  0.5545670000000 1.0
C      1  0.4585780000000  0.5698910000000  0.5771600000000 1.0
END
