TITL C-950529-3362-30 -2.88375126514927e-06 125000 -441.453232074042 0 0 72 (C1) n - 1
REM
REM in /home/bkarasulu/work/CARBON/AIRSS/Generating-Clusters/EDIP-Nigel-Params/with-SteepDescent/Only-C1/SD-CG/HFTN-CG
REM
REM
REM
REM
REM
REM ./C.cell (11c1c37f851c82e70ff6c80c92926a4b)
REM
REM compiler GCC version 9.2.1 20190827 (Red Hat 9.2.1-1)
REM options -cpp -mtune=generic -march=x86-64 -g -O0 -fpre-include=/usr/include/finclude/math-vector-fortran.h
REM seed 1358938456 1075621000 -4256131 -939773799 -535409764 1928726410 -625496035 -714068935 -1441312273 1696716303 -1115954690 -1041193696 -139504716 354038283 -361816841 735630496 -84380581 -960482679 769371677 1148927104 -1145044986 -1685057254 1529573903 -692229360 165378570 1356013618 1368827412 997556215 -557843918 -1855259659 -109747372 755251397 -959788947
REM
CELL 1.54180   50.00000   50.00000   50.00000   90.00000   90.00000   90.00000
LATT -1
SFAC C  
C      1  0.4941350000000  0.5475180000000  0.5427260000000 1.0
C      1  0.4558370000000  0.5614870000000  0.5247450000000 1.0
C      1  0.5108480000000  0.4655940000000  0.5689870000000 1.0
C      1  0.4453780000000  0.4704030000000  0.5281740000000 1.0
C      1  0.5207720000000  0.4238770000000  0.4954060000000 1.0
C      1  0.4928650000000  0.5599700000000  0.4599550000000 1.0
C      1  0.5429320000000  0.4348150000000  0.4803060000000 1.0
C      1  0.4717410000000  0.5236270000000  0.4867300000000 1.0
C      1  0.5275110000000  0.4508240000000  0.4608870000000 1.0
C      1  0.4469840000000  0.5681500000000  0.4733900000000 1.0
C      1  0.5710090000000  0.4738780000000  0.5396410000000 1.0
C      1  0.4257560000000  0.4760710000000  0.5069570000000 1.0
C      1  0.5271850000000  0.5942490000000  0.5195560000000 1.0
C      1  0.4341220000000  0.4657320000000  0.4788230000000 1.0
C      1  0.4837400000000  0.5172660000000  0.4357960000000 1.0
C      1  0.4526120000000  0.4439370000000  0.5345300000000 1.0
C      1  0.4979170000000  0.4832420000000  0.4612300000000 1.0
C      1  0.5642630000000  0.5069920000000  0.5586810000000 1.0
C      1  0.4739260000000  0.5313160000000  0.5577310000000 1.0
C      1  0.4718520000000  0.4920000000000  0.4423420000000 1.0
C      1  0.5375860000000  0.5155240000000  0.5577970000000 1.0
C      1  0.5691560000000  0.5372040000000  0.4685850000000 1.0
C      1  0.5631700000000  0.4451740000000  0.4972230000000 1.0
C      1  0.5649520000000  0.5264810000000  0.4942450000000 1.0
C      1  0.4490220000000  0.5396950000000  0.5437490000000 1.0
C      1  0.4754340000000  0.5359440000000  0.4571990000000 1.0
C      1  0.5206560000000  0.4598980000000  0.5080580000000 1.0
C      1  0.4523640000000  0.4404640000000  0.4727130000000 1.0
C      1  0.5340020000000  0.4513650000000  0.5338490000000 1.0
C      1  0.4304130000000  0.5221780000000  0.4600750000000 1.0
C      1  0.5384350000000  0.4736850000000  0.4458930000000 1.0
C      1  0.4212350000000  0.5234800000000  0.4868500000000 1.0
C      1  0.5142980000000  0.5027980000000  0.4804350000000 1.0
C      1  0.4866320000000  0.4264230000000  0.5418270000000 1.0
C      1  0.5257880000000  0.5233910000000  0.4591650000000 1.0
C      1  0.4830240000000  0.5724270000000  0.5317000000000 1.0
C      1  0.5348810000000  0.4712730000000  0.5545020000000 1.0
C      1  0.5432610000000  0.5701410000000  0.5120770000000 1.0
C      1  0.4220620000000  0.5063240000000  0.5094710000000 1.0
C      1  0.5348130000000  0.5247980000000  0.5311450000000 1.0
C      1  0.4728370000000  0.4494330000000  0.4538410000000 1.0
C      1  0.5800480000000  0.4929900000000  0.5189960000000 1.0
C      1  0.4499330000000  0.4921970000000  0.5466830000000 1.0
C      1  0.4999470000000  0.4391230000000  0.4574170000000 1.0
C      1  0.4575580000000  0.4963160000000  0.4855780000000 1.0
C      1  0.5620810000000  0.4479860000000  0.5255400000000 1.0
C      1  0.5184420000000  0.5559310000000  0.4999810000000 1.0
C      1  0.4910050000000  0.4642760000000  0.5100930000000 1.0
C      1  0.5626220000000  0.4964040000000  0.4935100000000 1.0
C      1  0.4754930000000  0.5017030000000  0.5569720000000 1.0
C      1  0.5125840000000  0.5147230000000  0.4335330000000 1.0
C      1  0.5007970000000  0.5816860000000  0.5087420000000 1.0
C      1  0.4967940000000  0.4197300000000  0.4793430000000 1.0
C      1  0.5580150000000  0.5398940000000  0.5199930000000 1.0
C      1  0.5097350000000  0.5343250000000  0.5196080000000 1.0
C      1  0.4449700000000  0.4948810000000  0.4573280000000 1.0
C      1  0.4759380000000  0.4395030000000  0.5181990000000 1.0
C      1  0.5001160000000  0.4412510000000  0.5607200000000 1.0
C      1  0.5601210000000  0.4907770000000  0.4569630000000 1.0
C      1  0.4385610000000  0.5143690000000  0.5324830000000 1.0
C      1  0.4925900000000  0.4862740000000  0.5725600000000 1.0
C      1  0.5783360000000  0.5175980000000  0.5355440000000 1.0
C      1  0.4470950000000  0.5458980000000  0.4524580000000 1.0
C      1  0.4541500000000  0.5492210000000  0.4969370000000 1.0
C      1  0.5335240000000  0.4868900000000  0.4973550000000 1.0
C      1  0.4697130000000  0.4239510000000  0.4927330000000 1.0
C      1  0.5547110000000  0.5192270000000  0.4522250000000 1.0
C      1  0.5188270000000  0.5514160000000  0.4694370000000 1.0
C      1  0.5195450000000  0.4870440000000  0.4287570000000 1.0
C      1  0.4966000000000  0.5161660000000  0.5002550000000 1.0
C      1  0.4781200000000  0.4733350000000  0.4839840000000 1.0
C      1  0.4766220000000  0.5758680000000  0.4790820000000 1.0
END
