TITL C-951337-3020-471 -3.99207921011745e-06 125000 -700.550280204568 0 0 113 (C1) n - 1
REM
REM in /home/bkarasulu/work/CARBON/AIRSS/Generating-Clusters/EDIP-Nigel-Params/with-SteepDescent/Only-C1/SD-CG/HFTN-CG
REM
REM
REM
REM
REM
REM ./C.cell (11c1c37f851c82e70ff6c80c92926a4b)
REM
REM compiler GCC version 9.2.1 20190827 (Red Hat 9.2.1-1)
REM options -cpp -mtune=generic -march=x86-64 -g -O0 -fpre-include=/usr/include/finclude/math-vector-fortran.h
REM seed 558022254 289441174 -1094186458 145436253 -1781554612 902357020 837998859 -1598450188 -1106659647 1437334195 1347183745 -198284479 1323976247 -1698083778 1859189683 -1919652969 -1979524264 1857893590 -819608024 1639231937 -309199946 -1880119858 -1566438378 207239795 -948855949 -1774502580 -1169706006 -861833667 -797812847 1593761074 1502795639 -936198328 -1579605816
REM
CELL 1.54180   50.00000   50.00000   50.00000   90.00000   90.00000   90.00000
LATT -1
SFAC C  
C      1  0.5274210000000  0.4338650000000  0.4216540000000 1.0
C      1  0.4314920000000  0.5494800000000  0.5172440000000 1.0
C      1  0.4473790000000  0.5243650000000  0.4470250000000 1.0
C      1  0.5905280000000  0.5381740000000  0.4892230000000 1.0
C      1  0.4747860000000  0.5566350000000  0.4264810000000 1.0
C      1  0.4333740000000  0.4332120000000  0.4669950000000 1.0
C      1  0.4705690000000  0.5257020000000  0.4692120000000 1.0
C      1  0.5209280000000  0.5844830000000  0.5288110000000 1.0
C      1  0.4806470000000  0.5801730000000  0.5691940000000 1.0
C      1  0.5420850000000  0.4614750000000  0.4103750000000 1.0
C      1  0.5220260000000  0.4736990000000  0.5774880000000 1.0
C      1  0.5059400000000  0.5450360000000  0.5253730000000 1.0
C      1  0.4896380000000  0.5798520000000  0.5222480000000 1.0
C      1  0.4693950000000  0.5758030000000  0.5440450000000 1.0
C      1  0.4673190000000  0.4853610000000  0.5857620000000 1.0
C      1  0.5750820000000  0.5367460000000  0.5160940000000 1.0
C      1  0.5233730000000  0.5399440000000  0.5016750000000 1.0
C      1  0.4812060000000  0.4312720000000  0.5569290000000 1.0
C      1  0.4993790000000  0.4339920000000  0.4320750000000 1.0
C      1  0.4395630000000  0.5658390000000  0.4945410000000 1.0
C      1  0.5013610000000  0.4699120000000  0.4247780000000 1.0
C      1  0.5488960000000  0.4706040000000  0.5673850000000 1.0
C      1  0.4501940000000  0.5520160000000  0.5425510000000 1.0
C      1  0.4289600000000  0.4746540000000  0.5411310000000 1.0
C      1  0.5489160000000  0.5096850000000  0.4647700000000 1.0
C      1  0.5137630000000  0.5011090000000  0.5823950000000 1.0
C      1  0.5409950000000  0.4196220000000  0.4936350000000 1.0
C      1  0.5563130000000  0.4482970000000  0.5506510000000 1.0
C      1  0.4557290000000  0.4764060000000  0.4410650000000 1.0
C      1  0.5521180000000  0.4658170000000  0.4391380000000 1.0
C      1  0.5507610000000  0.5423750000000  0.4620490000000 1.0
C      1  0.5738030000000  0.4572720000000  0.5266350000000 1.0
C      1  0.4410170000000  0.4937810000000  0.5895000000000 1.0
C      1  0.5274030000000  0.4123060000000  0.5390540000000 1.0
C      1  0.4367170000000  0.5043090000000  0.5428620000000 1.0
C      1  0.4476250000000  0.5385970000000  0.5709010000000 1.0
C      1  0.5316280000000  0.5229730000000  0.5741510000000 1.0
C      1  0.4928240000000  0.4973300000000  0.4931410000000 1.0
C      1  0.4796820000000  0.4197000000000  0.4811740000000 1.0
C      1  0.5263420000000  0.4336700000000  0.4718970000000 1.0
C      1  0.5313660000000  0.5646240000000  0.5473020000000 1.0
C      1  0.4640640000000  0.5035100000000  0.4962420000000 1.0
C      1  0.5014780000000  0.4212270000000  0.4600550000000 1.0
C      1  0.4583060000000  0.5321280000000  0.4202360000000 1.0
C      1  0.4715080000000  0.4628660000000  0.4622710000000 1.0
C      1  0.4969990000000  0.4754170000000  0.4732210000000 1.0
C      1  0.5338180000000  0.5072190000000  0.4205550000000 1.0
C      1  0.5818120000000  0.5086210000000  0.4452520000000 1.0
C      1  0.4518480000000  0.4712010000000  0.5007230000000 1.0
C      1  0.4509270000000  0.4593530000000  0.5298790000000 1.0
C      1  0.4668110000000  0.5669990000000  0.4532850000000 1.0
C      1  0.5297240000000  0.5368440000000  0.4135030000000 1.0
C      1  0.4179000000000  0.4940930000000  0.4730350000000 1.0
C      1  0.4446200000000  0.4302970000000  0.5268360000000 1.0
C      1  0.4034980000000  0.5078460000000  0.5257860000000 1.0
C      1  0.5204010000000  0.4089470000000  0.5121940000000 1.0
C      1  0.5386350000000  0.4831860000000  0.5322720000000 1.0
C      1  0.4589330000000  0.4424820000000  0.4788170000000 1.0
C      1  0.5008670000000  0.5384090000000  0.4270920000000 1.0
C      1  0.4078580000000  0.4791780000000  0.5212120000000 1.0
C      1  0.5401960000000  0.5887090000000  0.5058460000000 1.0
C      1  0.4150830000000  0.4437180000000  0.4869030000000 1.0
C      1  0.4917920000000  0.4207710000000  0.5091440000000 1.0
C      1  0.5144620000000  0.5778250000000  0.4670270000000 1.0
C      1  0.5758730000000  0.4782290000000  0.4494230000000 1.0
C      1  0.5443150000000  0.4383860000000  0.4478160000000 1.0
C      1  0.5720000000000  0.5579880000000  0.4778510000000 1.0
C      1  0.5633780000000  0.5712450000000  0.5028570000000 1.0
C      1  0.4107780000000  0.5199080000000  0.4818140000000 1.0
C      1  0.4901880000000  0.5192810000000  0.5338430000000 1.0
C      1  0.4749690000000  0.4604030000000  0.5499550000000 1.0
C      1  0.4356530000000  0.4969470000000  0.4495940000000 1.0
C      1  0.4975080000000  0.4491660000000  0.5092600000000 1.0
C      1  0.5647490000000  0.5151820000000  0.5560860000000 1.0
C      1  0.5234180000000  0.5058030000000  0.4490080000000 1.0
C      1  0.4278910000000  0.4231830000000  0.5041410000000 1.0
C      1  0.5915290000000  0.4885610000000  0.4919070000000 1.0
C      1  0.4434500000000  0.5543040000000  0.4670280000000 1.0
C      1  0.5288210000000  0.5966300000000  0.4817380000000 1.0
C      1  0.4330090000000  0.5133680000000  0.5707340000000 1.0
C      1  0.4857100000000  0.5067870000000  0.5840770000000 1.0
C      1  0.5921400000000  0.5127280000000  0.4742540000000 1.0
C      1  0.5572890000000  0.5362670000000  0.4314160000000 1.0
C      1  0.4711540000000  0.4168380000000  0.5326790000000 1.0
C      1  0.5467030000000  0.5235620000000  0.5108420000000 1.0
C      1  0.5220190000000  0.4824820000000  0.4049970000000 1.0
C      1  0.4610210000000  0.5184270000000  0.5244670000000 1.0
C      1  0.5811080000000  0.4874460000000  0.5198570000000 1.0
C      1  0.5295490000000  0.4399720000000  0.5422650000000 1.0
C      1  0.5033920000000  0.4949360000000  0.5215970000000 1.0
C      1  0.4859150000000  0.5808760000000  0.4707800000000 1.0
C      1  0.5002920000000  0.4641590000000  0.5338360000000 1.0
C      1  0.5217510000000  0.5487300000000  0.4719370000000 1.0
C      1  0.4925420000000  0.5558060000000  0.5762440000000 1.0
C      1  0.4753460000000  0.4848370000000  0.4203430000000 1.0
C      1  0.4767560000000  0.5899530000000  0.4971580000000 1.0
C      1  0.5846720000000  0.5132370000000  0.5349090000000 1.0
C      1  0.5028930000000  0.5291770000000  0.4562060000000 1.0
C      1  0.4216790000000  0.4724660000000  0.4945540000000 1.0
C      1  0.4184900000000  0.5246580000000  0.5082550000000 1.0
C      1  0.4489690000000  0.5917490000000  0.4992810000000 1.0
C      1  0.5190460000000  0.5487450000000  0.5672890000000 1.0
C      1  0.5405680000000  0.5121230000000  0.5378460000000 1.0
C      1  0.5156390000000  0.4578920000000  0.4883570000000 1.0
C      1  0.4775760000000  0.5124970000000  0.4115950000000 1.0
C      1  0.5404680000000  0.4725740000000  0.5014350000000 1.0
C      1  0.5118110000000  0.4805270000000  0.4502550000000 1.0
C      1  0.5487450000000  0.5004350000000  0.4923350000000 1.0
C      1  0.5034250000000  0.4515430000000  0.5814750000000 1.0
C      1  0.5818320000000  0.4658340000000  0.4765750000000 1.0
C      1  0.4766890000000  0.4588180000000  0.5890930000000 1.0
C      1  0.5625010000000  0.4502740000000  0.4979420000000 1.0
C      1  0.4747010000000  0.5340510000000  0.5828020000000 1.0
END
