TITL C-951342-2639-653 -1.57662108085239e-06 125000 -653.616250474299 0 0 107 (C1) n - 1
REM
REM in /home/bkarasulu/work/CARBON/AIRSS/Generating-Clusters/EDIP-Nigel-Params/with-SteepDescent/Only-C1/SD-CG/HFTN-CG
REM
REM
REM
REM
REM
REM ./C.cell (11c1c37f851c82e70ff6c80c92926a4b)
REM
REM compiler GCC version 9.2.1 20190827 (Red Hat 9.2.1-1)
REM options -cpp -mtune=generic -march=x86-64 -g -O0 -fpre-include=/usr/include/finclude/math-vector-fortran.h
REM seed -246328809 577772047 247053466 -118288441 1744496547 812855098 -403504862 -1675733180 1408371520 -1081412414 275256315 -1986973111 -1220884675 -1376574365 1214540545 -1247853497 -916470183 419563947 -2085813709 -1517676375 1209656458 -1966604543 -52813367 -1810772855 40946 -132399848 1395154978 1665333090 -665059083 165314517 593795323 50857842 798028431
REM
CELL 1.54180   50.00000   50.00000   50.00000   90.00000   90.00000   90.00000
LATT -1
SFAC C  
C      1  0.4470230000000  0.4300710000000  0.5054270000000 1.0
C      1  0.4050900000000  0.5332930000000  0.5435830000000 1.0
C      1  0.5503560000000  0.4995800000000  0.5623290000000 1.0
C      1  0.4933060000000  0.5073970000000  0.5430550000000 1.0
C      1  0.5298320000000  0.4709450000000  0.5895580000000 1.0
C      1  0.4660480000000  0.5328360000000  0.5326780000000 1.0
C      1  0.5397420000000  0.5753220000000  0.5534730000000 1.0
C      1  0.4991390000000  0.5078990000000  0.4467290000000 1.0
C      1  0.4284290000000  0.4484090000000  0.5194810000000 1.0
C      1  0.4964040000000  0.5973290000000  0.5010600000000 1.0
C      1  0.4810090000000  0.4156410000000  0.5412850000000 1.0
C      1  0.4423690000000  0.4590710000000  0.4666130000000 1.0
C      1  0.4140880000000  0.4659480000000  0.4740320000000 1.0
C      1  0.4772670000000  0.4960450000000  0.4305520000000 1.0
C      1  0.4904690000000  0.4741490000000  0.4793320000000 1.0
C      1  0.5613020000000  0.4730370000000  0.5671210000000 1.0
C      1  0.5728120000000  0.5040990000000  0.5201770000000 1.0
C      1  0.5226530000000  0.5148150000000  0.4047480000000 1.0
C      1  0.5249190000000  0.5927700000000  0.5089020000000 1.0
C      1  0.4530210000000  0.5446260000000  0.5565530000000 1.0
C      1  0.4125000000000  0.5068520000000  0.5364720000000 1.0
C      1  0.5723990000000  0.5360370000000  0.4838340000000 1.0
C      1  0.5014280000000  0.5332500000000  0.4101710000000 1.0
C      1  0.4814920000000  0.4799430000000  0.5842590000000 1.0
C      1  0.5102730000000  0.5332940000000  0.5377540000000 1.0
C      1  0.4977940000000  0.5038640000000  0.5736340000000 1.0
C      1  0.5010580000000  0.4071860000000  0.5576370000000 1.0
C      1  0.5225950000000  0.4690370000000  0.5462410000000 1.0
C      1  0.5370100000000  0.4362910000000  0.5122490000000 1.0
C      1  0.5846020000000  0.5109100000000  0.4783210000000 1.0
C      1  0.5913120000000  0.4686700000000  0.4972080000000 1.0
C      1  0.4767270000000  0.4231200000000  0.4680060000000 1.0
C      1  0.4438670000000  0.4934940000000  0.5552250000000 1.0
C      1  0.5739570000000  0.5538300000000  0.5303940000000 1.0
C      1  0.4598210000000  0.5104330000000  0.4844210000000 1.0
C      1  0.4717930000000  0.5631170000000  0.4758520000000 1.0
C      1  0.4476100000000  0.4931000000000  0.5273840000000 1.0
C      1  0.5873850000000  0.4831000000000  0.4732690000000 1.0
C      1  0.4279670000000  0.4468730000000  0.5475250000000 1.0
C      1  0.5633150000000  0.4763940000000  0.4556770000000 1.0
C      1  0.4500260000000  0.4323700000000  0.4766520000000 1.0
C      1  0.5602340000000  0.5562320000000  0.5546510000000 1.0
C      1  0.4712280000000  0.5480950000000  0.4499140000000 1.0
C      1  0.5628700000000  0.4545670000000  0.4360290000000 1.0
C      1  0.4917470000000  0.4162350000000  0.4933130000000 1.0
C      1  0.5203840000000  0.5503350000000  0.4518510000000 1.0
C      1  0.4481080000000  0.5173420000000  0.5121000000000 1.0
C      1  0.5196710000000  0.5887650000000  0.5379100000000 1.0
C      1  0.4612810000000  0.4800870000000  0.4787940000000 1.0
C      1  0.5110710000000  0.4396310000000  0.4983020000000 1.0
C      1  0.5424930000000  0.4984350000000  0.5117510000000 1.0
C      1  0.5133090000000  0.5447730000000  0.5649890000000 1.0
C      1  0.5187150000000  0.5522010000000  0.4810290000000 1.0
C      1  0.4939010000000  0.5326930000000  0.5826550000000 1.0
C      1  0.5559080000000  0.5465340000000  0.5083710000000 1.0
C      1  0.4870360000000  0.5184950000000  0.4902700000000 1.0
C      1  0.4953470000000  0.4646770000000  0.5077780000000 1.0
C      1  0.5679400000000  0.5542870000000  0.4606990000000 1.0
C      1  0.5025810000000  0.4585570000000  0.5876150000000 1.0
C      1  0.4418060000000  0.4491720000000  0.5708950000000 1.0
C      1  0.4574230000000  0.4724090000000  0.5687230000000 1.0
C      1  0.4876570000000  0.4983440000000  0.4011860000000 1.0
C      1  0.5177800000000  0.4326100000000  0.4379710000000 1.0
C      1  0.5413580000000  0.4711810000000  0.4742630000000 1.0
C      1  0.5685850000000  0.5198230000000  0.5472420000000 1.0
C      1  0.4891060000000  0.4355010000000  0.4436210000000 1.0
C      1  0.5550300000000  0.5796120000000  0.4710560000000 1.0
C      1  0.4118150000000  0.4926790000000  0.4602120000000 1.0
C      1  0.4255090000000  0.5436040000000  0.5574270000000 1.0
C      1  0.4156500000000  0.5135670000000  0.4821310000000 1.0
C      1  0.4435520000000  0.5598210000000  0.4851040000000 1.0
C      1  0.4724590000000  0.4533430000000  0.4267230000000 1.0
C      1  0.5529060000000  0.5052330000000  0.4478480000000 1.0
C      1  0.5235440000000  0.4219220000000  0.5634670000000 1.0
C      1  0.5358460000000  0.5917320000000  0.4538540000000 1.0
C      1  0.5465350000000  0.4328480000000  0.4444110000000 1.0
C      1  0.4865120000000  0.5906020000000  0.4743510000000 1.0
C      1  0.4504150000000  0.5089950000000  0.4338950000000 1.0
C      1  0.5349770000000  0.5269070000000  0.5201230000000 1.0
C      1  0.5550830000000  0.4240910000000  0.4951170000000 1.0
C      1  0.5866990000000  0.4778750000000  0.5236720000000 1.0
C      1  0.4913870000000  0.5788630000000  0.5337120000000 1.0
C      1  0.5472870000000  0.5431050000000  0.4409290000000 1.0
C      1  0.5391290000000  0.5694180000000  0.4945060000000 1.0
C      1  0.4920350000000  0.5470590000000  0.4927520000000 1.0
C      1  0.4446920000000  0.4605970000000  0.4366570000000 1.0
C      1  0.4504750000000  0.5269110000000  0.4578520000000 1.0
C      1  0.5439510000000  0.4624870000000  0.5258430000000 1.0
C      1  0.4114940000000  0.4684730000000  0.5034740000000 1.0
C      1  0.4899220000000  0.5508670000000  0.5230840000000 1.0
C      1  0.4682520000000  0.5428110000000  0.5796360000000 1.0
C      1  0.5072460000000  0.4459130000000  0.5605510000000 1.0
C      1  0.5039300000000  0.5006860000000  0.4749150000000 1.0
C      1  0.5473870000000  0.5171430000000  0.4200840000000 1.0
C      1  0.4083500000000  0.4983690000000  0.5077340000000 1.0
C      1  0.5268990000000  0.4978780000000  0.5797630000000 1.0
C      1  0.4840160000000  0.4683300000000  0.4042430000000 1.0
C      1  0.5049280000000  0.4835610000000  0.5281940000000 1.0
C      1  0.5084750000000  0.5927980000000  0.4561950000000 1.0
C      1  0.4975550000000  0.5364020000000  0.4395010000000 1.0
C      1  0.4298040000000  0.4884240000000  0.4348850000000 1.0
C      1  0.5542050000000  0.4208900000000  0.4684630000000 1.0
C      1  0.5341310000000  0.4982370000000  0.4816940000000 1.0
C      1  0.5177690000000  0.4531960000000  0.4708730000000 1.0
C      1  0.4217170000000  0.5426650000000  0.4777390000000 1.0
C      1  0.4713300000000  0.4160050000000  0.5151190000000 1.0
C      1  0.5693540000000  0.4606530000000  0.5414170000000 1.0
END
