TITL C-950532-2784-703 -1.57281052902764e-06 125000 -783.992019916765 0 0 126 (C1) n - 1
REM
REM in /home/bkarasulu/work/CARBON/AIRSS/Generating-Clusters/EDIP-Nigel-Params/with-SteepDescent/Only-C1/SD-CG/HFTN-CG
REM
REM
REM
REM
REM
REM ./C.cell (11c1c37f851c82e70ff6c80c92926a4b)
REM
REM compiler GCC version 9.2.1 20190827 (Red Hat 9.2.1-1)
REM options -cpp -mtune=generic -march=x86-64 -g -O0 -fpre-include=/usr/include/finclude/math-vector-fortran.h
REM seed -740948178 1428508822 -1513231278 -259092416 -379611283 -133771428 1647964131 1584998199 -1556491196 578653918 -66612532 -157425690 81111878 1444506332 172106673 -486385867 960262473 870161613 -1999710068 -575134291 1976907668 1477225770 -1319767860 507919984 411243169 309308427 -1913263866 -1834740681 1995034185 -595938277 503034218 766690530 1791528785
REM
CELL 1.54180   50.00000   50.00000   50.00000   90.00000   90.00000   90.00000
LATT -1
SFAC C  
C      1  0.5537210000000  0.5450560000000  0.5684320000000 1.0
C      1  0.4819910000000  0.4933080000000  0.6062440000000 1.0
C      1  0.5636580000000  0.5243180000000  0.4285580000000 1.0
C      1  0.4418530000000  0.5533030000000  0.4643520000000 1.0
C      1  0.4167440000000  0.4603550000000  0.4568960000000 1.0
C      1  0.4020560000000  0.4670450000000  0.4824490000000 1.0
C      1  0.4700040000000  0.5082950000000  0.5587680000000 1.0
C      1  0.5617900000000  0.4847840000000  0.5184190000000 1.0
C      1  0.4925320000000  0.5168590000000  0.5962070000000 1.0
C      1  0.4907250000000  0.5311180000000  0.4085230000000 1.0
C      1  0.4348490000000  0.4704750000000  0.5491250000000 1.0
C      1  0.5562190000000  0.4977530000000  0.4687480000000 1.0
C      1  0.5288910000000  0.4973270000000  0.4016650000000 1.0
C      1  0.4594560000000  0.4074480000000  0.4376830000000 1.0
C      1  0.4759630000000  0.5623950000000  0.5736350000000 1.0
C      1  0.4126480000000  0.5060100000000  0.5112180000000 1.0
C      1  0.4321340000000  0.4401830000000  0.5476430000000 1.0
C      1  0.5229510000000  0.4882820000000  0.4310880000000 1.0
C      1  0.5197720000000  0.4682200000000  0.5874680000000 1.0
C      1  0.5575270000000  0.4963770000000  0.4149770000000 1.0
C      1  0.5471550000000  0.4832350000000  0.4923420000000 1.0
C      1  0.4397860000000  0.4140980000000  0.5072550000000 1.0
C      1  0.5476450000000  0.5527390000000  0.5397530000000 1.0
C      1  0.4382440000000  0.4154330000000  0.4776350000000 1.0
C      1  0.5959560000000  0.5194270000000  0.5237040000000 1.0
C      1  0.5306370000000  0.4137900000000  0.4831030000000 1.0
C      1  0.4145890000000  0.4582290000000  0.5077470000000 1.0
C      1  0.5080700000000  0.5778400000000  0.4807910000000 1.0
C      1  0.4647690000000  0.4774050000000  0.5532870000000 1.0
C      1  0.5289750000000  0.5090260000000  0.4515880000000 1.0
C      1  0.5433250000000  0.4393120000000  0.4925060000000 1.0
C      1  0.5328680000000  0.5420300000000  0.5863280000000 1.0
C      1  0.4889710000000  0.5537680000000  0.4464340000000 1.0
C      1  0.5577620000000  0.4597890000000  0.5356390000000 1.0
C      1  0.4306570000000  0.4946010000000  0.4176450000000 1.0
C      1  0.5585860000000  0.4978940000000  0.5647270000000 1.0
C      1  0.5249190000000  0.5933880000000  0.5378410000000 1.0
C      1  0.4008660000000  0.4974900000000  0.4848510000000 1.0
C      1  0.5096940000000  0.4666420000000  0.4690790000000 1.0
C      1  0.4775270000000  0.5033340000000  0.4509130000000 1.0
C      1  0.4647460000000  0.4873820000000  0.4038070000000 1.0
C      1  0.5280360000000  0.5636330000000  0.4977500000000 1.0
C      1  0.4790040000000  0.4649370000000  0.4092100000000 1.0
C      1  0.5526000000000  0.5985310000000  0.5336170000000 1.0
C      1  0.4818050000000  0.4514570000000  0.4337760000000 1.0
C      1  0.5276540000000  0.4608770000000  0.4452110000000 1.0
C      1  0.5718260000000  0.4745970000000  0.4561170000000 1.0
C      1  0.4689460000000  0.4535880000000  0.5078690000000 1.0
C      1  0.4313410000000  0.5303860000000  0.5123640000000 1.0
C      1  0.4389040000000  0.5381470000000  0.5604750000000 1.0
C      1  0.5614030000000  0.5634880000000  0.4596630000000 1.0
C      1  0.5399600000000  0.5403690000000  0.4224300000000 1.0
C      1  0.5916080000000  0.4905210000000  0.5223550000000 1.0
C      1  0.5479050000000  0.4480320000000  0.4266220000000 1.0
C      1  0.5208880000000  0.5652290000000  0.5291700000000 1.0
C      1  0.4582230000000  0.4273400000000  0.5474700000000 1.0
C      1  0.4196450000000  0.4804770000000  0.5252450000000 1.0
C      1  0.4848560000000  0.5564290000000  0.4180000000000 1.0
C      1  0.4620160000000  0.4016090000000  0.4654700000000 1.0
C      1  0.5179290000000  0.4800340000000  0.4936430000000 1.0
C      1  0.4618110000000  0.4631640000000  0.4796810000000 1.0
C      1  0.4565790000000  0.4356700000000  0.4380930000000 1.0
C      1  0.5717460000000  0.4486720000000  0.4694860000000 1.0
C      1  0.5011110000000  0.5199360000000  0.4620150000000 1.0
C      1  0.4557240000000  0.5212300000000  0.5303240000000 1.0
C      1  0.5047240000000  0.5107990000000  0.4929380000000 1.0
C      1  0.5755420000000  0.5198920000000  0.4773380000000 1.0
C      1  0.4197820000000  0.5548570000000  0.5246260000000 1.0
C      1  0.4782240000000  0.5451840000000  0.5011300000000 1.0
C      1  0.5116710000000  0.5709870000000  0.4525250000000 1.0
C      1  0.5110540000000  0.4367490000000  0.4343700000000 1.0
C      1  0.4511620000000  0.5638630000000  0.5586780000000 1.0
C      1  0.4830210000000  0.4713910000000  0.4579780000000 1.0
C      1  0.5672510000000  0.4703880000000  0.4275480000000 1.0
C      1  0.4551440000000  0.4910110000000  0.4889860000000 1.0
C      1  0.4512990000000  0.5101320000000  0.4685040000000 1.0
C      1  0.4915950000000  0.4691640000000  0.5959990000000 1.0
C      1  0.4737830000000  0.5384450000000  0.5909290000000 1.0
C      1  0.5673230000000  0.5740010000000  0.5323730000000 1.0
C      1  0.4941710000000  0.5429070000000  0.5275300000000 1.0
C      1  0.4349770000000  0.5400390000000  0.4403150000000 1.0
C      1  0.4194830000000  0.4321570000000  0.5208920000000 1.0
C      1  0.5820480000000  0.4419620000000  0.4955000000000 1.0
C      1  0.5762410000000  0.5328510000000  0.5056920000000 1.0
C      1  0.4510090000000  0.5355280000000  0.4872120000000 1.0
C      1  0.5627120000000  0.4368900000000  0.5167170000000 1.0
C      1  0.5198330000000  0.5258680000000  0.4047570000000 1.0
C      1  0.5942300000000  0.5273690000000  0.5505630000000 1.0
C      1  0.5494030000000  0.5293760000000  0.5203320000000 1.0
C      1  0.4463770000000  0.5802940000000  0.5358010000000 1.0
C      1  0.4225100000000  0.4869650000000  0.4445410000000 1.0
C      1  0.4802800000000  0.5708790000000  0.4874440000000 1.0
C      1  0.5737840000000  0.5235540000000  0.5693770000000 1.0
C      1  0.5999010000000  0.4777760000000  0.5464730000000 1.0
C      1  0.5769260000000  0.5377220000000  0.4539340000000 1.0
C      1  0.5213900000000  0.5182510000000  0.5941970000000 1.0
C      1  0.5117010000000  0.4555250000000  0.5174630000000 1.0
C      1  0.4137120000000  0.5082120000000  0.4613900000000 1.0
C      1  0.5172080000000  0.4960820000000  0.5372660000000 1.0
C      1  0.5047900000000  0.4077930000000  0.4986520000000 1.0
C      1  0.4716060000000  0.5111940000000  0.4205020000000 1.0
C      1  0.5778740000000  0.5638720000000  0.5063080000000 1.0
C      1  0.4667370000000  0.5683110000000  0.4612900000000 1.0
C      1  0.5461620000000  0.5039100000000  0.5359690000000 1.0
C      1  0.4796530000000  0.4755100000000  0.5253880000000 1.0
C      1  0.4255360000000  0.5808860000000  0.5177300000000 1.0
C      1  0.5563990000000  0.5722900000000  0.4880750000000 1.0
C      1  0.4874300000000  0.4133220000000  0.4744900000000 1.0
C      1  0.4771110000000  0.4574360000000  0.5732430000000 1.0
C      1  0.5122400000000  0.5972920000000  0.5620400000000 1.0
C      1  0.5108770000000  0.4145870000000  0.4554850000000 1.0
C      1  0.5202680000000  0.4485030000000  0.5655280000000 1.0
C      1  0.4741980000000  0.5016500000000  0.5096060000000 1.0
C      1  0.4417730000000  0.4437830000000  0.4635660000000 1.0
C      1  0.4671230000000  0.4262050000000  0.5195080000000 1.0
C      1  0.4485070000000  0.5259970000000  0.5844150000000 1.0
C      1  0.5278240000000  0.4634450000000  0.5414480000000 1.0
C      1  0.5351930000000  0.4940250000000  0.5847920000000 1.0
C      1  0.4991810000000  0.4253530000000  0.5226380000000 1.0
C      1  0.5371210000000  0.5604560000000  0.4437190000000 1.0
C      1  0.5270040000000  0.5322080000000  0.4998480000000 1.0
C      1  0.5753830000000  0.4718550000000  0.5591530000000 1.0
C      1  0.4428950000000  0.5224090000000  0.4196210000000 1.0
C      1  0.4939100000000  0.4356240000000  0.5602440000000 1.0
C      1  0.4972230000000  0.5172570000000  0.5444780000000 1.0
C      1  0.4937590000000  0.5836410000000  0.5758140000000 1.0
END
