TITL C-950525-1983-66 -2.64093228525468e-06 125000 -1036.35805031547 0 0 165 (C1) n - 1
REM
REM in /home/bkarasulu/work/CARBON/AIRSS/Generating-Clusters/EDIP-Nigel-Params/with-SteepDescent/Only-C1/SD-CG/HFTN-CG
REM
REM
REM
REM
REM
REM ./C.cell (11c1c37f851c82e70ff6c80c92926a4b)
REM
REM compiler GCC version 9.2.1 20190827 (Red Hat 9.2.1-1)
REM options -cpp -mtune=generic -march=x86-64 -g -O0 -fpre-include=/usr/include/finclude/math-vector-fortran.h
REM seed -648563309 1592179192 -1950069568 -1155481935 417923056 1187906133 2020614387 1652785831 59557246 -101883736 1781349610 -1382172940 443634551 -400935440 -1199079011 365166556 -2024951244 268230642 -420719249 1466421791 -450216071 -2109696573 -978888661 -617696989 -1391025447 260249090 -1177478808 -1534984139 388835132 -2027960743 -1697532557 -978782006 -1636167431
REM
CELL 1.54180   50.00000   50.00000   50.00000   90.00000   90.00000   90.00000
LATT -1
SFAC C  
C      1  0.5339660000000  0.6062900000000  0.4976970000000 1.0
C      1  0.5166910000000  0.5410840000000  0.4275260000000 1.0
C      1  0.4878950000000  0.4465430000000  0.4601550000000 1.0
C      1  0.5941740000000  0.5342440000000  0.4822310000000 1.0
C      1  0.4812590000000  0.5750260000000  0.4157890000000 1.0
C      1  0.4399780000000  0.4982070000000  0.5973180000000 1.0
C      1  0.5648600000000  0.5505020000000  0.4212130000000 1.0
C      1  0.4101220000000  0.4993360000000  0.4303360000000 1.0
C      1  0.4548590000000  0.4548000000000  0.4973620000000 1.0
C      1  0.5230790000000  0.4355960000000  0.4049230000000 1.0
C      1  0.5183740000000  0.4489760000000  0.4588530000000 1.0
C      1  0.5933750000000  0.4717250000000  0.5406940000000 1.0
C      1  0.5114530000000  0.5661320000000  0.4846960000000 1.0
C      1  0.4376040000000  0.4099330000000  0.5330920000000 1.0
C      1  0.5945680000000  0.4859420000000  0.4960790000000 1.0
C      1  0.4914400000000  0.4715890000000  0.3894910000000 1.0
C      1  0.4953620000000  0.4455560000000  0.4038790000000 1.0
C      1  0.5303420000000  0.4427830000000  0.5159280000000 1.0
C      1  0.5416890000000  0.4799860000000  0.3968470000000 1.0
C      1  0.4310290000000  0.4480870000000  0.4508030000000 1.0
C      1  0.4596260000000  0.4926520000000  0.4548960000000 1.0
C      1  0.5522810000000  0.5158480000000  0.4347910000000 1.0
C      1  0.4830380000000  0.6053270000000  0.4825180000000 1.0
C      1  0.5823200000000  0.5176800000000  0.4323330000000 1.0
C      1  0.5283930000000  0.5738650000000  0.5297180000000 1.0
C      1  0.4419170000000  0.4287440000000  0.4890840000000 1.0
C      1  0.5950200000000  0.4948420000000  0.5233350000000 1.0
C      1  0.4877950000000  0.5183020000000  0.5982520000000 1.0
C      1  0.4958430000000  0.4846400000000  0.5190950000000 1.0
C      1  0.4741140000000  0.5538780000000  0.5328470000000 1.0
C      1  0.5308630000000  0.5469260000000  0.5788440000000 1.0
C      1  0.4093770000000  0.4962740000000  0.4581470000000 1.0
C      1  0.5370240000000  0.4051580000000  0.4690350000000 1.0
C      1  0.4330600000000  0.4715230000000  0.5847850000000 1.0
C      1  0.5533690000000  0.5222590000000  0.5488310000000 1.0
C      1  0.5327140000000  0.5383250000000  0.3844170000000 1.0
C      1  0.5214670000000  0.4769320000000  0.4430360000000 1.0
C      1  0.4976680000000  0.5822410000000  0.5697900000000 1.0
C      1  0.4517890000000  0.4551290000000  0.4286780000000 1.0
C      1  0.5149300000000  0.3961930000000  0.4836350000000 1.0
C      1  0.4798880000000  0.4701260000000  0.5938610000000 1.0
C      1  0.5023760000000  0.5631050000000  0.5467200000000 1.0
C      1  0.5605160000000  0.5515730000000  0.5604030000000 1.0
C      1  0.4571270000000  0.4312510000000  0.5664670000000 1.0
C      1  0.4711210000000  0.4333910000000  0.4177960000000 1.0
C      1  0.4570080000000  0.5120460000000  0.4318740000000 1.0
C      1  0.5467690000000  0.4861880000000  0.4263290000000 1.0
C      1  0.4873770000000  0.4586510000000  0.5330420000000 1.0
C      1  0.4737680000000  0.4695910000000  0.4435990000000 1.0
C      1  0.5168910000000  0.5253590000000  0.5263600000000 1.0
C      1  0.4531960000000  0.5772050000000  0.4154920000000 1.0
C      1  0.5391920000000  0.5248990000000  0.5966170000000 1.0
C      1  0.5543740000000  0.4496210000000  0.5656180000000 1.0
C      1  0.4831330000000  0.4546820000000  0.4887770000000 1.0
C      1  0.5733320000000  0.5689620000000  0.5140560000000 1.0
C      1  0.4787640000000  0.4205970000000  0.4437970000000 1.0
C      1  0.5340420000000  0.4587090000000  0.5437830000000 1.0
C      1  0.4995100000000  0.4364390000000  0.5140650000000 1.0
C      1  0.4341480000000  0.5162500000000  0.5691880000000 1.0
C      1  0.4242940000000  0.5538390000000  0.5360110000000 1.0
C      1  0.5114670000000  0.5344460000000  0.5557560000000 1.0
C      1  0.4608250000000  0.5579870000000  0.4869310000000 1.0
C      1  0.4684100000000  0.4960030000000  0.6076080000000 1.0
C      1  0.5115360000000  0.5191180000000  0.3828490000000 1.0
C      1  0.4937770000000  0.4064740000000  0.5376160000000 1.0
C      1  0.5009560000000  0.4813170000000  0.5746950000000 1.0
C      1  0.5941860000000  0.5225090000000  0.5317640000000 1.0
C      1  0.4887170000000  0.5098720000000  0.5685590000000 1.0
C      1  0.5893910000000  0.5535430000000  0.4623760000000 1.0
C      1  0.4554100000000  0.4948160000000  0.5329710000000 1.0
C      1  0.5324700000000  0.5580240000000  0.5024110000000 1.0
C      1  0.4580850000000  0.4587150000000  0.5769770000000 1.0
C      1  0.4166090000000  0.5204280000000  0.4737240000000 1.0
C      1  0.4143190000000  0.4686500000000  0.4685240000000 1.0
C      1  0.5235730000000  0.4843470000000  0.5935660000000 1.0
C      1  0.4890170000000  0.5456640000000  0.4181800000000 1.0
C      1  0.4957240000000  0.6082710000000  0.5261620000000 1.0
C      1  0.4894320000000  0.5284720000000  0.4642540000000 1.0
C      1  0.4037300000000  0.5081210000000  0.5276090000000 1.0
C      1  0.4195160000000  0.5704580000000  0.4896600000000 1.0
C      1  0.5716210000000  0.4463810000000  0.4460730000000 1.0
C      1  0.4691560000000  0.5851640000000  0.5700270000000 1.0
C      1  0.5884270000000  0.4572690000000  0.4942310000000 1.0
C      1  0.5207010000000  0.4951370000000  0.5287090000000 1.0
C      1  0.4895370000000  0.4008540000000  0.4909820000000 1.0
C      1  0.5880650000000  0.5425950000000  0.5100450000000 1.0
C      1  0.4723760000000  0.5356500000000  0.4407720000000 1.0
C      1  0.5908660000000  0.4957420000000  0.4480920000000 1.0
C      1  0.4903300000000  0.5883700000000  0.4405660000000 1.0
C      1  0.4498710000000  0.5264330000000  0.4921350000000 1.0
C      1  0.5418370000000  0.4522220000000  0.3928970000000 1.0
C      1  0.4682050000000  0.4192760000000  0.5399660000000 1.0
C      1  0.5453840000000  0.5314160000000  0.4937200000000 1.0
C      1  0.5852550000000  0.4508570000000  0.5222650000000 1.0
C      1  0.5707070000000  0.4423140000000  0.4754720000000 1.0
C      1  0.4739710000000  0.6014110000000  0.5099800000000 1.0
C      1  0.5217090000000  0.5920520000000  0.4502030000000 1.0
C      1  0.5427920000000  0.4855890000000  0.5102110000000 1.0
C      1  0.4087470000000  0.5424340000000  0.4914390000000 1.0
C      1  0.5555680000000  0.5133480000000  0.5156530000000 1.0
C      1  0.5068440000000  0.4580090000000  0.5566160000000 1.0
C      1  0.5378610000000  0.5487600000000  0.4098770000000 1.0
C      1  0.5562600000000  0.5861120000000  0.4898680000000 1.0
C      1  0.5092810000000  0.4340660000000  0.5762180000000 1.0
C      1  0.5136560000000  0.4098730000000  0.5581700000000 1.0
C      1  0.4286480000000  0.4272480000000  0.5568270000000 1.0
C      1  0.4723660000000  0.5056180000000  0.4778200000000 1.0
C      1  0.4241160000000  0.4532610000000  0.5415990000000 1.0
C      1  0.5231320000000  0.6026360000000  0.5245020000000 1.0
C      1  0.4854990000000  0.5267940000000  0.3946180000000 1.0
C      1  0.3937970000000  0.4893020000000  0.5095590000000 1.0
C      1  0.5802470000000  0.4728450000000  0.5666600000000 1.0
C      1  0.4945360000000  0.4829980000000  0.4265300000000 1.0
C      1  0.4609530000000  0.5585070000000  0.5749700000000 1.0
C      1  0.4623350000000  0.4043090000000  0.4853720000000 1.0
C      1  0.4520840000000  0.4641250000000  0.5269310000000 1.0
C      1  0.5172230000000  0.5334680000000  0.4550770000000 1.0
C      1  0.4593320000000  0.4988530000000  0.5619320000000 1.0
C      1  0.4287720000000  0.5193510000000  0.4253420000000 1.0
C      1  0.4607300000000  0.5742650000000  0.5131890000000 1.0
C      1  0.4108500000000  0.5344440000000  0.5191100000000 1.0
C      1  0.4894680000000  0.5331550000000  0.5134690000000 1.0
C      1  0.4963860000000  0.4493970000000  0.6084340000000 1.0
C      1  0.5752920000000  0.4246540000000  0.5297430000000 1.0
C      1  0.5636850000000  0.4223130000000  0.5563340000000 1.0
C      1  0.4684810000000  0.5927360000000  0.4607520000000 1.0
C      1  0.4531920000000  0.5236860000000  0.5230260000000 1.0
C      1  0.5368470000000  0.4405270000000  0.5897520000000 1.0
C      1  0.4112070000000  0.5018860000000  0.5549780000000 1.0
C      1  0.5924730000000  0.5054290000000  0.4755260000000 1.0
C      1  0.5380470000000  0.5175380000000  0.4668440000000 1.0
C      1  0.5900110000000  0.5265410000000  0.5612790000000 1.0
C      1  0.5154370000000  0.4901310000000  0.3881050000000 1.0
C      1  0.4217830000000  0.5457910000000  0.4306010000000 1.0
C      1  0.4303440000000  0.4194860000000  0.4539140000000 1.0
C      1  0.4819240000000  0.5480960000000  0.5940860000000 1.0
C      1  0.5798440000000  0.5009600000000  0.5776560000000 1.0
C      1  0.5293820000000  0.4236450000000  0.4469560000000 1.0
C      1  0.4314850000000  0.5760020000000  0.5172440000000 1.0
C      1  0.4889110000000  0.5479160000000  0.4864710000000 1.0
C      1  0.5496370000000  0.4175970000000  0.5147590000000 1.0
C      1  0.5580800000000  0.4172370000000  0.4856050000000 1.0
C      1  0.4562240000000  0.4048290000000  0.4561100000000 1.0
C      1  0.4219840000000  0.4205540000000  0.5092690000000 1.0
C      1  0.5720250000000  0.4745290000000  0.4379170000000 1.0
C      1  0.5569530000000  0.5713360000000  0.5388750000000 1.0
C      1  0.5703100000000  0.5656610000000  0.4458530000000 1.0
C      1  0.5072570000000  0.5641250000000  0.5910770000000 1.0
C      1  0.5517950000000  0.4312130000000  0.4305270000000 1.0
C      1  0.5509900000000  0.5053850000000  0.5753210000000 1.0
C      1  0.4333490000000  0.5707460000000  0.4342020000000 1.0
C      1  0.4403130000000  0.5799290000000  0.4617690000000 1.0
C      1  0.5502410000000  0.5811250000000  0.4598670000000 1.0
C      1  0.5160620000000  0.5104750000000  0.6086390000000 1.0
C      1  0.5409550000000  0.4046600000000  0.5501290000000 1.0
C      1  0.5371120000000  0.4612230000000  0.4911910000000 1.0
C      1  0.4135560000000  0.4733820000000  0.5623130000000 1.0
C      1  0.4934110000000  0.4849610000000  0.4894630000000 1.0
C      1  0.5117070000000  0.5956020000000  0.4794140000000 1.0
C      1  0.4071680000000  0.4451770000000  0.5175300000000 1.0
C      1  0.4040370000000  0.4664700000000  0.4969660000000 1.0
C      1  0.4406160000000  0.5440180000000  0.5592640000000 1.0
C      1  0.4732670000000  0.5019000000000  0.4065760000000 1.0
C      1  0.5244060000000  0.4589550000000  0.6092740000000 1.0
C      1  0.5220010000000  0.4908700000000  0.4716710000000 1.0
END
