TITL C-950531-5884-668 6.54343691475788e-07 125000 -878.621030912757 0 0 139 (C1) n - 1
REM
REM in /home/bkarasulu/work/CARBON/AIRSS/Generating-Clusters/EDIP-Nigel-Params/with-SteepDescent/Only-C1/SD-CG/HFTN-CG
REM
REM
REM
REM
REM
REM ./C.cell (11c1c37f851c82e70ff6c80c92926a4b)
REM
REM compiler GCC version 9.2.1 20190827 (Red Hat 9.2.1-1)
REM options -cpp -mtune=generic -march=x86-64 -g -O0 -fpre-include=/usr/include/finclude/math-vector-fortran.h
REM seed -1094391837 -536710391 -1000041468 1761004788 1494751629 527250765 -105691942 -697783050 825627779 1964802966 -1861012173 -1790318310 -87280019 1893378249 240391303 -20166623 449227224 168449418 -1134807154 555850806 -1894751795 -200423152 1296947469 834076075 287890943 -733801816 616543821 798467472 1441302517 260147048 2005069901 1768660421 -987801430
REM
CELL 1.54180   50.00000   50.00000   50.00000   90.00000   90.00000   90.00000
LATT -1
SFAC C  
C      1  0.5208590000000  0.4129450000000  0.5133750000000 1.0
C      1  0.5073230000000  0.4944180000000  0.4931510000000 1.0
C      1  0.5548630000000  0.4707260000000  0.4527070000000 1.0
C      1  0.5372590000000  0.5894120000000  0.5001460000000 1.0
C      1  0.5159520000000  0.5896990000000  0.5421990000000 1.0
C      1  0.5761830000000  0.5179120000000  0.4358290000000 1.0
C      1  0.5817180000000  0.5310650000000  0.5477410000000 1.0
C      1  0.4568610000000  0.4858720000000  0.4989770000000 1.0
C      1  0.5119200000000  0.4040950000000  0.5498200000000 1.0
C      1  0.5662690000000  0.5787830000000  0.5123120000000 1.0
C      1  0.5716440000000  0.4371590000000  0.4629170000000 1.0
C      1  0.5796310000000  0.4819630000000  0.5313000000000 1.0
C      1  0.5832760000000  0.5426030000000  0.4477610000000 1.0
C      1  0.5634460000000  0.5018530000000  0.4583150000000 1.0
C      1  0.5429510000000  0.4661350000000  0.4250060000000 1.0
C      1  0.4151640000000  0.4732370000000  0.4569230000000 1.0
C      1  0.4769260000000  0.5009580000000  0.5492020000000 1.0
C      1  0.4765160000000  0.4533240000000  0.5297220000000 1.0
C      1  0.5580420000000  0.4459090000000  0.5598130000000 1.0
C      1  0.5353510000000  0.5366290000000  0.4347780000000 1.0
C      1  0.4846720000000  0.5227080000000  0.5281590000000 1.0
C      1  0.4560970000000  0.5923300000000  0.5069790000000 1.0
C      1  0.4825960000000  0.4750640000000  0.4886320000000 1.0
C      1  0.4388110000000  0.4299780000000  0.5461780000000 1.0
C      1  0.5315880000000  0.5943060000000  0.4709330000000 1.0
C      1  0.5257600000000  0.5612630000000  0.5010560000000 1.0
C      1  0.5311110000000  0.5414260000000  0.5728290000000 1.0
C      1  0.4289250000000  0.5628960000000  0.4879080000000 1.0
C      1  0.4925920000000  0.4847150000000  0.3994330000000 1.0
C      1  0.5441750000000  0.4896270000000  0.5954970000000 1.0
C      1  0.4922870000000  0.4016360000000  0.5100370000000 1.0
C      1  0.4164140000000  0.5566800000000  0.5582180000000 1.0
C      1  0.5846810000000  0.5008740000000  0.4794850000000 1.0
C      1  0.5884100000000  0.5105530000000  0.5273610000000 1.0
C      1  0.4936750000000  0.4715430000000  0.5470140000000 1.0
C      1  0.4342080000000  0.5355350000000  0.5627650000000 1.0
C      1  0.4106190000000  0.5556210000000  0.5309550000000 1.0
C      1  0.4510110000000  0.4691820000000  0.5230590000000 1.0
C      1  0.4296680000000  0.4766920000000  0.4318670000000 1.0
C      1  0.5360880000000  0.5663970000000  0.4322850000000 1.0
C      1  0.5628200000000  0.4292810000000  0.5378010000000 1.0
C      1  0.5417730000000  0.5502170000000  0.5454010000000 1.0
C      1  0.5718950000000  0.4363560000000  0.5123710000000 1.0
C      1  0.5073020000000  0.5099360000000  0.5181970000000 1.0
C      1  0.5409780000000  0.4809030000000  0.5261400000000 1.0
C      1  0.5706550000000  0.5609110000000  0.4650910000000 1.0
C      1  0.5112790000000  0.4226010000000  0.5720390000000 1.0
C      1  0.5555090000000  0.5244800000000  0.4165360000000 1.0
C      1  0.4708950000000  0.5314860000000  0.5044110000000 1.0
C      1  0.4746470000000  0.4946900000000  0.4219030000000 1.0
C      1  0.5036450000000  0.5611390000000  0.4811580000000 1.0
C      1  0.4066690000000  0.5226060000000  0.4680580000000 1.0
C      1  0.4881720000000  0.5358150000000  0.4786040000000 1.0
C      1  0.4647070000000  0.5591150000000  0.4362940000000 1.0
C      1  0.4998100000000  0.5047270000000  0.5863880000000 1.0
C      1  0.4853620000000  0.4022900000000  0.5378420000000 1.0
C      1  0.4022450000000  0.4936640000000  0.4734170000000 1.0
C      1  0.5011300000000  0.5836370000000  0.4606570000000 1.0
C      1  0.5482200000000  0.5270010000000  0.5269130000000 1.0
C      1  0.5629550000000  0.4232630000000  0.4872550000000 1.0
C      1  0.4796170000000  0.6009970000000  0.5210700000000 1.0
C      1  0.5505950000000  0.5789890000000  0.4541570000000 1.0
C      1  0.4016590000000  0.4921250000000  0.5535350000000 1.0
C      1  0.5170080000000  0.4193730000000  0.4633780000000 1.0
C      1  0.5936260000000  0.4542400000000  0.4640450000000 1.0
C      1  0.4778780000000  0.4216480000000  0.4936840000000 1.0
C      1  0.4487620000000  0.5331800000000  0.4402230000000 1.0
C      1  0.4231680000000  0.5329830000000  0.4907670000000 1.0
C      1  0.3979190000000  0.5029370000000  0.5243830000000 1.0
C      1  0.4833750000000  0.4322860000000  0.5738000000000 1.0
C      1  0.4867610000000  0.5910120000000  0.5490030000000 1.0
C      1  0.5703600000000  0.4725310000000  0.5577810000000 1.0
C      1  0.5133050000000  0.5078160000000  0.4002820000000 1.0
C      1  0.5294760000000  0.5061300000000  0.5364250000000 1.0
C      1  0.5649850000000  0.4934110000000  0.5768360000000 1.0
C      1  0.4670820000000  0.4286950000000  0.4511340000000 1.0
C      1  0.4733470000000  0.5164010000000  0.5842970000000 1.0
C      1  0.4816620000000  0.4617360000000  0.5749210000000 1.0
C      1  0.4186940000000  0.4492550000000  0.4728120000000 1.0
C      1  0.5234300000000  0.4462150000000  0.4183200000000 1.0
C      1  0.4962560000000  0.4545850000000  0.4092060000000 1.0
C      1  0.4615280000000  0.5405320000000  0.5740020000000 1.0
C      1  0.4529120000000  0.5149890000000  0.4160620000000 1.0
C      1  0.5431380000000  0.5029340000000  0.4004130000000 1.0
C      1  0.6005360000000  0.5451070000000  0.4978620000000 1.0
C      1  0.4497090000000  0.4876800000000  0.5484900000000 1.0
C      1  0.4896210000000  0.4481730000000  0.5035360000000 1.0
C      1  0.4420760000000  0.4312710000000  0.4696020000000 1.0
C      1  0.4180570000000  0.5300550000000  0.4419190000000 1.0
C      1  0.4334420000000  0.4422100000000  0.5173610000000 1.0
C      1  0.4259350000000  0.5021730000000  0.4181630000000 1.0
C      1  0.5081080000000  0.5273910000000  0.4236120000000 1.0
C      1  0.4297970000000  0.4503130000000  0.5661750000000 1.0
C      1  0.5229330000000  0.4596830000000  0.5371960000000 1.0
C      1  0.4502780000000  0.5153460000000  0.4909870000000 1.0
C      1  0.5265360000000  0.4666120000000  0.5943540000000 1.0
C      1  0.5931860000000  0.4729620000000  0.4850370000000 1.0
C      1  0.4778700000000  0.4708390000000  0.4593870000000 1.0
C      1  0.5258000000000  0.5119380000000  0.5704450000000 1.0
C      1  0.5189450000000  0.4436750000000  0.5105320000000 1.0
C      1  0.5673650000000  0.5652290000000  0.5392860000000 1.0
C      1  0.4031740000000  0.4837250000000  0.5013990000000 1.0
C      1  0.5828910000000  0.5221510000000  0.5007970000000 1.0
C      1  0.4597740000000  0.4710000000000  0.4341870000000 1.0
C      1  0.4702950000000  0.4444200000000  0.4245520000000 1.0
C      1  0.5078150000000  0.5556980000000  0.5804910000000 1.0
C      1  0.5820240000000  0.5652130000000  0.4911370000000 1.0
C      1  0.5478100000000  0.5381930000000  0.4952650000000 1.0
C      1  0.4989000000000  0.4764580000000  0.5947720000000 1.0
C      1  0.5356090000000  0.4092220000000  0.4864220000000 1.0
C      1  0.4096240000000  0.5300300000000  0.5168880000000 1.0
C      1  0.4887170000000  0.4102040000000  0.4607180000000 1.0
C      1  0.5184040000000  0.5618170000000  0.5314700000000 1.0
C      1  0.5392950000000  0.4587780000000  0.4790250000000 1.0
C      1  0.4906510000000  0.5541420000000  0.4219530000000 1.0
C      1  0.4274040000000  0.5080040000000  0.5501530000000 1.0
C      1  0.4098040000000  0.4544040000000  0.5010950000000 1.0
C      1  0.4699140000000  0.4271810000000  0.5468040000000 1.0
C      1  0.4612840000000  0.5194620000000  0.4630370000000 1.0
C      1  0.4974910000000  0.5064780000000  0.4423360000000 1.0
C      1  0.4069090000000  0.4648980000000  0.5579250000000 1.0
C      1  0.5173090000000  0.6047780000000  0.5176730000000 1.0
C      1  0.5085320000000  0.5139830000000  0.4705380000000 1.0
C      1  0.5308980000000  0.4458490000000  0.5727820000000 1.0
C      1  0.4515910000000  0.4699280000000  0.5727300000000 1.0
C      1  0.5152530000000  0.4480750000000  0.4671370000000 1.0
C      1  0.4934000000000  0.5481660000000  0.5390860000000 1.0
C      1  0.4477690000000  0.4233800000000  0.4971020000000 1.0
C      1  0.5865400000000  0.4617990000000  0.5109980000000 1.0
C      1  0.5550810000000  0.4774550000000  0.4024520000000 1.0
C      1  0.5084230000000  0.5753590000000  0.4322250000000 1.0
C      1  0.4695040000000  0.5785920000000  0.4588830000000 1.0
C      1  0.5037820000000  0.4646100000000  0.4459080000000 1.0
C      1  0.5762740000000  0.5186270000000  0.5725410000000 1.0
C      1  0.5387530000000  0.5231780000000  0.4672320000000 1.0
C      1  0.4224050000000  0.5753940000000  0.5135510000000 1.0
C      1  0.4556960000000  0.5739710000000  0.4844400000000 1.0
C      1  0.5340600000000  0.4819400000000  0.4965240000000 1.0
C      1  0.4839920000000  0.5599410000000  0.5641700000000 1.0
END
