TITL C-950536-5891-60 -7.85346825377202e-07 125000 -592.542690965709 0 0 94 (C1) n - 1
REM
REM in /home/bkarasulu/work/CARBON/AIRSS/Generating-Clusters/EDIP-Nigel-Params/with-SteepDescent/Only-C1/SD-CG/HFTN-CG
REM
REM
REM
REM
REM
REM ./C.cell (11c1c37f851c82e70ff6c80c92926a4b)
REM
REM compiler GCC version 9.2.1 20190827 (Red Hat 9.2.1-1)
REM options -cpp -mtune=generic -march=x86-64 -g -O0 -fpre-include=/usr/include/finclude/math-vector-fortran.h
REM seed -699247085 -1026141250 604683402 -110672 -1878750089 -720885952 631185931 -1512455413 1018259977 2072782390 -1485437162 -1608458571 -1470595110 -1728513022 873992661 2118589178 -476774790 -1412024943 1372187746 -2065782871 -751528132 -1212053465 294493099 1633230725 -1475891130 -1175365451 -620429791 134408402 1366377245 -1608232659 -1631006694 -1809587905 483382044
REM
CELL 1.54180   50.00000   50.00000   50.00000   90.00000   90.00000   90.00000
LATT -1
SFAC C  
C      1  0.4531020000000  0.4426520000000  0.4194060000000 1.0
C      1  0.4715570000000  0.4396330000000  0.4983010000000 1.0
C      1  0.4804990000000  0.5252440000000  0.4872890000000 1.0
C      1  0.5429020000000  0.4952110000000  0.5095890000000 1.0
C      1  0.5579460000000  0.5004820000000  0.4410890000000 1.0
C      1  0.5697600000000  0.4744830000000  0.4813360000000 1.0
C      1  0.4259780000000  0.4716380000000  0.4824000000000 1.0
C      1  0.5210380000000  0.4723470000000  0.4254770000000 1.0
C      1  0.4996200000000  0.4962560000000  0.5838240000000 1.0
C      1  0.5803350000000  0.5564260000000  0.4974210000000 1.0
C      1  0.4702450000000  0.4819630000000  0.4628630000000 1.0
C      1  0.5245220000000  0.4685330000000  0.4567090000000 1.0
C      1  0.5877780000000  0.4928390000000  0.5220830000000 1.0
C      1  0.5234610000000  0.5476170000000  0.4312370000000 1.0
C      1  0.5246020000000  0.5392760000000  0.5765370000000 1.0
C      1  0.4186900000000  0.4791670000000  0.5401790000000 1.0
C      1  0.4530270000000  0.4871450000000  0.4378950000000 1.0
C      1  0.4799970000000  0.4464640000000  0.4274280000000 1.0
C      1  0.4626670000000  0.4379480000000  0.4706520000000 1.0
C      1  0.5177860000000  0.4418490000000  0.4736390000000 1.0
C      1  0.5134980000000  0.4924500000000  0.4704220000000 1.0
C      1  0.5362630000000  0.4982930000000  0.4202950000000 1.0
C      1  0.4346370000000  0.4534720000000  0.5263890000000 1.0
C      1  0.4720220000000  0.5551750000000  0.4827670000000 1.0
C      1  0.5517180000000  0.5239780000000  0.5074010000000 1.0
C      1  0.5395970000000  0.4209030000000  0.5155730000000 1.0
C      1  0.4250370000000  0.5354690000000  0.4848770000000 1.0
C      1  0.4348290000000  0.4499380000000  0.4632070000000 1.0
C      1  0.4271700000000  0.5083510000000  0.5392240000000 1.0
C      1  0.5567810000000  0.4460820000000  0.5235570000000 1.0
C      1  0.5632880000000  0.4656180000000  0.5566900000000 1.0
C      1  0.4901200000000  0.5158290000000  0.4247220000000 1.0
C      1  0.4451950000000  0.4368280000000  0.5505870000000 1.0
C      1  0.5147660000000  0.5487030000000  0.5516370000000 1.0
C      1  0.5620030000000  0.4749820000000  0.4539920000000 1.0
C      1  0.5179710000000  0.5217090000000  0.4167320000000 1.0
C      1  0.4598470000000  0.4624420000000  0.5123210000000 1.0
C      1  0.5606140000000  0.5244820000000  0.4580210000000 1.0
C      1  0.5390920000000  0.5588280000000  0.5374910000000 1.0
C      1  0.4361430000000  0.5275910000000  0.5132980000000 1.0
C      1  0.4871150000000  0.5218730000000  0.5841310000000 1.0
C      1  0.5442940000000  0.4291930000000  0.4852280000000 1.0
C      1  0.4930510000000  0.4687930000000  0.4134350000000 1.0
C      1  0.5374300000000  0.4705850000000  0.5281580000000 1.0
C      1  0.4055240000000  0.4891410000000  0.4746300000000 1.0
C      1  0.4499420000000  0.5385070000000  0.4440160000000 1.0
C      1  0.4711300000000  0.5505500000000  0.5476420000000 1.0
C      1  0.4870140000000  0.5771430000000  0.5232180000000 1.0
C      1  0.5854660000000  0.5525570000000  0.5253200000000 1.0
C      1  0.5361360000000  0.4664880000000  0.5713750000000 1.0
C      1  0.4995380000000  0.5708880000000  0.4708520000000 1.0
C      1  0.4724200000000  0.4295550000000  0.5509340000000 1.0
C      1  0.4538040000000  0.5071800000000  0.5543140000000 1.0
C      1  0.5097920000000  0.4565910000000  0.5591870000000 1.0
C      1  0.4842630000000  0.4532610000000  0.4566320000000 1.0
C      1  0.4805080000000  0.4752210000000  0.5325350000000 1.0
C      1  0.5283730000000  0.5397080000000  0.4987430000000 1.0
C      1  0.4647460000000  0.5684730000000  0.5081040000000 1.0
C      1  0.4495900000000  0.5518070000000  0.5261590000000 1.0
C      1  0.5758870000000  0.4916420000000  0.5477250000000 1.0
C      1  0.5058100000000  0.4691780000000  0.5164900000000 1.0
C      1  0.5845380000000  0.4966950000000  0.4942500000000 1.0
C      1  0.5427200000000  0.5174010000000  0.5762300000000 1.0
C      1  0.4734040000000  0.5042570000000  0.5319190000000 1.0
C      1  0.4569790000000  0.4817300000000  0.5695430000000 1.0
C      1  0.5010320000000  0.4432270000000  0.5009200000000 1.0
C      1  0.4743680000000  0.4921420000000  0.4164590000000 1.0
C      1  0.5104100000000  0.4227670000000  0.5207450000000 1.0
C      1  0.4383480000000  0.4607380000000  0.4351180000000 1.0
C      1  0.5149010000000  0.4954290000000  0.4991680000000 1.0
C      1  0.4978540000000  0.5603730000000  0.4415990000000 1.0
C      1  0.5611490000000  0.5382110000000  0.5331300000000 1.0
C      1  0.4529580000000  0.4827100000000  0.4903610000000 1.0
C      1  0.5671560000000  0.4484520000000  0.4943740000000 1.0
C      1  0.5317860000000  0.5597400000000  0.4766900000000 1.0
C      1  0.5048730000000  0.5235550000000  0.5053350000000 1.0
C      1  0.4980640000000  0.5250970000000  0.5351610000000 1.0
C      1  0.4361310000000  0.5123120000000  0.4433350000000 1.0
C      1  0.5283870000000  0.4928690000000  0.5820850000000 1.0
C      1  0.5556110000000  0.5746080000000  0.4922980000000 1.0
C      1  0.5431380000000  0.5468710000000  0.4527020000000 1.0
C      1  0.5630410000000  0.5169580000000  0.5549650000000 1.0
C      1  0.4345890000000  0.4633900000000  0.5639840000000 1.0
C      1  0.4647960000000  0.5308000000000  0.5689140000000 1.0
C      1  0.4888560000000  0.5058800000000  0.4624610000000 1.0
C      1  0.4778560000000  0.5394360000000  0.4361690000000 1.0
C      1  0.5007200000000  0.4304740000000  0.5486270000000 1.0
C      1  0.4862470000000  0.4728920000000  0.5716830000000 1.0
C      1  0.5360130000000  0.5798560000000  0.5159470000000 1.0
C      1  0.4446710000000  0.5525390000000  0.4690530000000 1.0
C      1  0.5085820000000  0.5839860000000  0.5063140000000 1.0
C      1  0.4189500000000  0.5125740000000  0.4669450000000 1.0
C      1  0.4596330000000  0.5102040000000  0.5046760000000 1.0
C      1  0.5742950000000  0.5251960000000  0.4854550000000 1.0
END
