TITL C-951348-1603-206 -6.49043041382615e-07 125000 -377.306816757464 0 0 62 (C1) n - 1
REM
REM in /home/bkarasulu/work/CARBON/AIRSS/Generating-Clusters/EDIP-Nigel-Params/with-SteepDescent/Only-C1/SD-CG/HFTN-CG
REM
REM
REM
REM
REM
REM ./C.cell (11c1c37f851c82e70ff6c80c92926a4b)
REM
REM compiler GCC version 9.2.1 20190827 (Red Hat 9.2.1-1)
REM options -cpp -mtune=generic -march=x86-64 -g -O0 -fpre-include=/usr/include/finclude/math-vector-fortran.h
REM seed 134346501 -183562440 1114960125 -1417994073 1775795317 -1953963938 1055502076 1139093328 818808741 1679007848 2120303213 1983022518 1035237035 1563994339 122841935 1663162504 -981096796 383339125 -996806810 754792043 -1633067120 469210012 174938405 -2055112792 1200996091 -1842766362 1285671603 354183810 256581361 1733505398 2139568243 921799962 -533988779
REM
CELL 1.54180   50.00000   50.00000   50.00000   90.00000   90.00000   90.00000
LATT -1
SFAC C  
C      1  0.5151640000000  0.5112910000000  0.4701630000000 1.0
C      1  0.4526000000000  0.4683360000000  0.4574320000000 1.0
C      1  0.4886340000000  0.5163600000000  0.4622970000000 1.0
C      1  0.5745940000000  0.5069280000000  0.5180520000000 1.0
C      1  0.5604310000000  0.4803020000000  0.4651120000000 1.0
C      1  0.4911780000000  0.5400330000000  0.4458680000000 1.0
C      1  0.5502550000000  0.4642660000000  0.5092110000000 1.0
C      1  0.5367010000000  0.5692360000000  0.4855340000000 1.0
C      1  0.4718030000000  0.5596990000000  0.4893900000000 1.0
C      1  0.4879690000000  0.4761300000000  0.4913500000000 1.0
C      1  0.4650900000000  0.4403760000000  0.5172600000000 1.0
C      1  0.5158210000000  0.4864610000000  0.4834340000000 1.0
C      1  0.4410090000000  0.5282160000000  0.5131690000000 1.0
C      1  0.4860380000000  0.5653040000000  0.5345700000000 1.0
C      1  0.5188760000000  0.5383340000000  0.5578810000000 1.0
C      1  0.5497750000000  0.4996040000000  0.4449400000000 1.0
C      1  0.5116950000000  0.4968700000000  0.5262780000000 1.0
C      1  0.5144770000000  0.5785830000000  0.4992240000000 1.0
C      1  0.4675800000000  0.5556260000000  0.4510930000000 1.0
C      1  0.4510480000000  0.4822850000000  0.5380570000000 1.0
C      1  0.5286820000000  0.5398230000000  0.5100570000000 1.0
C      1  0.5020130000000  0.4485600000000  0.4525430000000 1.0
C      1  0.5571370000000  0.5138620000000  0.5396960000000 1.0
C      1  0.4423840000000  0.5423590000000  0.4619200000000 1.0
C      1  0.4719390000000  0.4702170000000  0.5577540000000 1.0
C      1  0.5022040000000  0.5233440000000  0.5149720000000 1.0
C      1  0.4693590000000  0.5240080000000  0.5542650000000 1.0
C      1  0.5189500000000  0.5447760000000  0.4408830000000 1.0
C      1  0.5382450000000  0.4668120000000  0.4816340000000 1.0
C      1  0.4625610000000  0.4934480000000  0.4972410000000 1.0
C      1  0.5304770000000  0.4841710000000  0.4312320000000 1.0
C      1  0.5240770000000  0.4409380000000  0.4723380000000 1.0
C      1  0.4403130000000  0.4855890000000  0.4782090000000 1.0
C      1  0.5339610000000  0.4661530000000  0.5569840000000 1.0
C      1  0.5131860000000  0.4334980000000  0.5253680000000 1.0
C      1  0.4779810000000  0.5210230000000  0.4919000000000 1.0
C      1  0.4373710000000  0.5111580000000  0.4393380000000 1.0
C      1  0.5234920000000  0.5111530000000  0.5705540000000 1.0
C      1  0.5048800000000  0.4725410000000  0.4347240000000 1.0
C      1  0.4929670000000  0.5383480000000  0.5412710000000 1.0
C      1  0.5075490000000  0.4657690000000  0.5712240000000 1.0
C      1  0.5457080000000  0.5415090000000  0.4823350000000 1.0
C      1  0.5805710000000  0.4899060000000  0.4835440000000 1.0
C      1  0.5357530000000  0.5268960000000  0.4577490000000 1.0
C      1  0.5080010000000  0.4266170000000  0.4956260000000 1.0
C      1  0.5757300000000  0.4792770000000  0.5102540000000 1.0
C      1  0.4543200000000  0.4886460000000  0.4325470000000 1.0
C      1  0.4820830000000  0.4904910000000  0.4448220000000 1.0
C      1  0.4788280000000  0.4541040000000  0.4715330000000 1.0
C      1  0.4507510000000  0.5122960000000  0.5349480000000 1.0
C      1  0.4268500000000  0.5072700000000  0.4651800000000 1.0
C      1  0.4879380000000  0.4487800000000  0.5352260000000 1.0
C      1  0.4749410000000  0.5041420000000  0.5747980000000 1.0
C      1  0.5336750000000  0.4954320000000  0.5473380000000 1.0
C      1  0.4470840000000  0.4637020000000  0.5159610000000 1.0
C      1  0.5423020000000  0.5399360000000  0.5374900000000 1.0
C      1  0.5013670000000  0.4935040000000  0.5808000000000 1.0
C      1  0.4886290000000  0.5739890000000  0.5085050000000 1.0
C      1  0.4949030000000  0.4736130000000  0.5201710000000 1.0
C      1  0.4438490000000  0.5480920000000  0.4929790000000 1.0
C      1  0.4776480000000  0.4313690000000  0.4913410000000 1.0
C      1  0.5386030000000  0.4486390000000  0.5324320000000 1.0
END
