TITL C-950530-3293-159 1.49602830563424e-07 125000 -392.785711338245 0 0 64 (C1) n - 1
REM
REM in /home/bkarasulu/work/CARBON/AIRSS/Generating-Clusters/EDIP-Nigel-Params/with-SteepDescent/Only-C1/SD-CG/HFTN-CG
REM
REM
REM
REM
REM
REM ./C.cell (11c1c37f851c82e70ff6c80c92926a4b)
REM
REM compiler GCC version 9.2.1 20190827 (Red Hat 9.2.1-1)
REM options -cpp -mtune=generic -march=x86-64 -g -O0 -fpre-include=/usr/include/finclude/math-vector-fortran.h
REM seed 20842947 41945234 -1892907655 718723882 -1083172583 1919838445 -2064679192 1934915679 -1327338135 673576293 1201818323 -1811063543 -1561564818 -832034491 -1818900249 680105746 761698198 -2080263885 -1950892023 1508859285 1973882819 -371294427 1489276730 -1049823548 -981871883 -1880387593 -512278282 -589027517 1101902208 -1464591266 -657326037 1327134899 -2131329357
REM
CELL 1.54180   50.00000   50.00000   50.00000   90.00000   90.00000   90.00000
LATT -1
SFAC C  
C      1  0.5240090000000  0.4634690000000  0.4370490000000 1.0
C      1  0.5206610000000  0.4674050000000  0.4844180000000 1.0
C      1  0.5081630000000  0.5099120000000  0.4147960000000 1.0
C      1  0.5392440000000  0.4862710000000  0.4455560000000 1.0
C      1  0.4801090000000  0.4451340000000  0.4376450000000 1.0
C      1  0.4729460000000  0.4450530000000  0.4880620000000 1.0
C      1  0.5006480000000  0.4786980000000  0.4645200000000 1.0
C      1  0.5304470000000  0.5022210000000  0.5686250000000 1.0
C      1  0.4796070000000  0.5077220000000  0.5661500000000 1.0
C      1  0.5460400000000  0.4830800000000  0.4754480000000 1.0
C      1  0.4355880000000  0.4908310000000  0.5478440000000 1.0
C      1  0.4982670000000  0.4636850000000  0.5689930000000 1.0
C      1  0.5216310000000  0.4376870000000  0.4848080000000 1.0
C      1  0.4876250000000  0.4464430000000  0.5299490000000 1.0
C      1  0.5056420000000  0.5301020000000  0.5209190000000 1.0
C      1  0.4584250000000  0.4866870000000  0.5660140000000 1.0
C      1  0.4454530000000  0.4694730000000  0.5274700000000 1.0
C      1  0.5557550000000  0.4500640000000  0.5218030000000 1.0
C      1  0.5153770000000  0.5085750000000  0.5022060000000 1.0
C      1  0.5451990000000  0.5468370000000  0.5313920000000 1.0
C      1  0.4695440000000  0.4997730000000  0.4978100000000 1.0
C      1  0.5503680000000  0.5594510000000  0.4860340000000 1.0
C      1  0.5630220000000  0.4978350000000  0.5292170000000 1.0
C      1  0.5173940000000  0.5593850000000  0.4448580000000 1.0
C      1  0.4756250000000  0.4756490000000  0.5201350000000 1.0
C      1  0.4506500000000  0.5385150000000  0.5384830000000 1.0
C      1  0.5263230000000  0.5110240000000  0.4363220000000 1.0
C      1  0.5475250000000  0.5348910000000  0.4731910000000 1.0
C      1  0.4495760000000  0.5493910000000  0.5115480000000 1.0
C      1  0.4701630000000  0.5695480000000  0.5036700000000 1.0
C      1  0.4962780000000  0.4293410000000  0.4975490000000 1.0
C      1  0.5041000000000  0.4922930000000  0.5670100000000 1.0
C      1  0.5314910000000  0.4651980000000  0.5337890000000 1.0
C      1  0.4782350000000  0.5323440000000  0.5486540000000 1.0
C      1  0.4605900000000  0.5263150000000  0.4437110000000 1.0
C      1  0.5069980000000  0.5583320000000  0.5095440000000 1.0
C      1  0.5442770000000  0.4873620000000  0.5490570000000 1.0
C      1  0.4433010000000  0.4913720000000  0.4823230000000 1.0
C      1  0.5124240000000  0.4479240000000  0.5486250000000 1.0
C      1  0.4976630000000  0.5562990000000  0.5546940000000 1.0
C      1  0.4939510000000  0.5039820000000  0.4808290000000 1.0
C      1  0.5667540000000  0.4629470000000  0.4860710000000 1.0
C      1  0.4982450000000  0.4627470000000  0.4240350000000 1.0
C      1  0.5365030000000  0.5647310000000  0.5096540000000 1.0
C      1  0.5635230000000  0.5257610000000  0.5215740000000 1.0
C      1  0.4757310000000  0.4607090000000  0.4621970000000 1.0
C      1  0.4458660000000  0.4442790000000  0.4978930000000 1.0
C      1  0.4533970000000  0.4798410000000  0.4567380000000 1.0
C      1  0.5498820000000  0.4354920000000  0.4948110000000 1.0
C      1  0.4325920000000  0.5176480000000  0.5414850000000 1.0
C      1  0.4781770000000  0.5607060000000  0.4761030000000 1.0
C      1  0.5748330000000  0.4743980000000  0.5144490000000 1.0
C      1  0.4972560000000  0.5707890000000  0.4586090000000 1.0
C      1  0.4704020000000  0.4604200000000  0.5618030000000 1.0
C      1  0.4947990000000  0.5747510000000  0.5316650000000 1.0
C      1  0.4582010000000  0.5419340000000  0.4665500000000 1.0
C      1  0.4456760000000  0.5292240000000  0.4896860000000 1.0
C      1  0.5244590000000  0.5428430000000  0.5521160000000 1.0
C      1  0.4310140000000  0.4698650000000  0.4998800000000 1.0
C      1  0.5448610000000  0.5111430000000  0.4913990000000 1.0
C      1  0.5128420000000  0.4780990000000  0.5123300000000 1.0
C      1  0.4639700000000  0.4992960000000  0.4372210000000 1.0
C      1  0.4889700000000  0.4909210000000  0.4235470000000 1.0
C      1  0.5317140000000  0.5358860000000  0.4494630000000 1.0
END
