TITL C-951345-2650-162 1.36796197136602e-06 125000 -631.936521350555 0 0 102 (C1) n - 1
REM
REM in /home/bkarasulu/work/CARBON/AIRSS/Generating-Clusters/EDIP-Nigel-Params/with-SteepDescent/Only-C1/SD-CG/HFTN-CG
REM
REM
REM
REM
REM
REM ./C.cell (11c1c37f851c82e70ff6c80c92926a4b)
REM
REM compiler GCC version 9.2.1 20190827 (Red Hat 9.2.1-1)
REM options -cpp -mtune=generic -march=x86-64 -g -O0 -fpre-include=/usr/include/finclude/math-vector-fortran.h
REM seed 870654129 76852157 1376975420 166502876 -1975384791 -1237352587 370280754 786066829 433385175 254477852 -1463105396 -1120831330 1701420184 -1206165838 -1048952016 -74294546 1618218951 909663786 1478411824 -329901322 -2085086542 2651064 1775898538 2022347542 -1217180694 1343198793 -1799121213 -21306692 915931948 1899601036 1331661834 -1163548497 869115129
REM
CELL 1.54180   50.00000   50.00000   50.00000   90.00000   90.00000   90.00000
LATT -1
SFAC C  
C      1  0.5434170000000  0.5846570000000  0.4973540000000 1.0
C      1  0.5334470000000  0.5173060000000  0.5024120000000 1.0
C      1  0.4858690000000  0.5632350000000  0.5374980000000 1.0
C      1  0.5447200000000  0.5652190000000  0.5511970000000 1.0
C      1  0.4559100000000  0.4777160000000  0.4259970000000 1.0
C      1  0.5678820000000  0.5009270000000  0.4632980000000 1.0
C      1  0.4825700000000  0.5147860000000  0.4965510000000 1.0
C      1  0.4959490000000  0.5349600000000  0.5333630000000 1.0
C      1  0.4502250000000  0.5034420000000  0.5324550000000 1.0
C      1  0.4567050000000  0.5617370000000  0.5402580000000 1.0
C      1  0.5218890000000  0.5874890000000  0.5163060000000 1.0
C      1  0.5285240000000  0.4194200000000  0.4720770000000 1.0
C      1  0.4965820000000  0.4368110000000  0.5736570000000 1.0
C      1  0.5550830000000  0.4790530000000  0.5262290000000 1.0
C      1  0.4926110000000  0.4528860000000  0.4375620000000 1.0
C      1  0.5248120000000  0.5831980000000  0.5442920000000 1.0
C      1  0.5421860000000  0.4614510000000  0.4464040000000 1.0
C      1  0.4108140000000  0.4573480000000  0.4872880000000 1.0
C      1  0.5580130000000  0.5418280000000  0.5442450000000 1.0
C      1  0.5538060000000  0.4518140000000  0.5133840000000 1.0
C      1  0.4747520000000  0.5272860000000  0.5710740000000 1.0
C      1  0.5031530000000  0.5375160000000  0.5711190000000 1.0
C      1  0.5503310000000  0.4387170000000  0.5394460000000 1.0
C      1  0.4919510000000  0.4890020000000  0.5943480000000 1.0
C      1  0.4011400000000  0.4716080000000  0.5106790000000 1.0
C      1  0.4597700000000  0.5257970000000  0.4375020000000 1.0
C      1  0.4881120000000  0.4091900000000  0.5329610000000 1.0
C      1  0.3948320000000  0.4986130000000  0.5076060000000 1.0
C      1  0.5059430000000  0.5321240000000  0.5036460000000 1.0
C      1  0.5007180000000  0.4945350000000  0.4139640000000 1.0
C      1  0.5690290000000  0.5027450000000  0.4342530000000 1.0
C      1  0.4437440000000  0.5510490000000  0.5150880000000 1.0
C      1  0.4147420000000  0.4652970000000  0.5342270000000 1.0
C      1  0.5447880000000  0.5145840000000  0.4269260000000 1.0
C      1  0.5262450000000  0.4734150000000  0.4682180000000 1.0
C      1  0.5011100000000  0.5845660000000  0.4839960000000 1.0
C      1  0.5339180000000  0.4690700000000  0.5824490000000 1.0
C      1  0.4178120000000  0.5380990000000  0.5242030000000 1.0
C      1  0.4875420000000  0.4867400000000  0.4995800000000 1.0
C      1  0.5588210000000  0.5365550000000  0.5142480000000 1.0
C      1  0.5905880000000  0.4969770000000  0.5439650000000 1.0
C      1  0.4841350000000  0.5616300000000  0.4795550000000 1.0
C      1  0.4425810000000  0.4695690000000  0.5275100000000 1.0
C      1  0.4978590000000  0.5051420000000  0.4425450000000 1.0
C      1  0.5699820000000  0.4958200000000  0.5629640000000 1.0
C      1  0.5009310000000  0.5511570000000  0.4362260000000 1.0
C      1  0.5183580000000  0.4930560000000  0.5860620000000 1.0
C      1  0.5303560000000  0.5563180000000  0.4299630000000 1.0
C      1  0.4494000000000  0.5413030000000  0.5612410000000 1.0
C      1  0.5445540000000  0.5385750000000  0.4127920000000 1.0
C      1  0.5564760000000  0.4683630000000  0.5636930000000 1.0
C      1  0.5307290000000  0.4940890000000  0.5202610000000 1.0
C      1  0.4299260000000  0.5216540000000  0.5469520000000 1.0
C      1  0.5275450000000  0.4530450000000  0.4961350000000 1.0
C      1  0.5048510000000  0.4167320000000  0.4872550000000 1.0
C      1  0.4781010000000  0.4278570000000  0.4790430000000 1.0
C      1  0.5841950000000  0.5231320000000  0.5044870000000 1.0
C      1  0.4699510000000  0.4712460000000  0.4839720000000 1.0
C      1  0.4467240000000  0.4603090000000  0.4479830000000 1.0
C      1  0.5254460000000  0.5187350000000  0.5751940000000 1.0
C      1  0.4781580000000  0.4831750000000  0.5702540000000 1.0
C      1  0.4146250000000  0.4980060000000  0.4594210000000 1.0
C      1  0.4543870000000  0.5204480000000  0.5058080000000 1.0
C      1  0.4627810000000  0.4245510000000  0.5279540000000 1.0
C      1  0.5628950000000  0.5619250000000  0.4975590000000 1.0
C      1  0.5387110000000  0.5580250000000  0.4586700000000 1.0
C      1  0.5099870000000  0.4175570000000  0.5159940000000 1.0
C      1  0.5190800000000  0.4460340000000  0.5873530000000 1.0
C      1  0.4471850000000  0.4579490000000  0.4983620000000 1.0
C      1  0.5383510000000  0.5021010000000  0.4725340000000 1.0
C      1  0.4900320000000  0.5180160000000  0.4034800000000 1.0
C      1  0.4182010000000  0.5048880000000  0.4325620000000 1.0
C      1  0.5542290000000  0.4294150000000  0.4759760000000 1.0
C      1  0.5641160000000  0.4516040000000  0.4610340000000 1.0
C      1  0.4699190000000  0.4402160000000  0.4523110000000 1.0
C      1  0.5315800000000  0.4171520000000  0.5364380000000 1.0
C      1  0.4830500000000  0.4707680000000  0.4155280000000 1.0
C      1  0.5849290000000  0.4725210000000  0.5016720000000 1.0
C      1  0.4554100000000  0.5621450000000  0.4737100000000 1.0
C      1  0.4797790000000  0.5383780000000  0.4199600000000 1.0
C      1  0.4564410000000  0.4295770000000  0.4993190000000 1.0
C      1  0.4440590000000  0.5387010000000  0.4597390000000 1.0
C      1  0.5283410000000  0.5822450000000  0.4726610000000 1.0
C      1  0.4759180000000  0.5057790000000  0.5499980000000 1.0
C      1  0.4591180000000  0.4494920000000  0.5428510000000 1.0
C      1  0.5259170000000  0.5171190000000  0.4499640000000 1.0
C      1  0.4986750000000  0.5402780000000  0.4647990000000 1.0
C      1  0.5932790000000  0.4974470000000  0.5159760000000 1.0
C      1  0.4228040000000  0.4700890000000  0.4641300000000 1.0
C      1  0.4077650000000  0.5224950000000  0.5010780000000 1.0
C      1  0.5009770000000  0.4125460000000  0.5591690000000 1.0
C      1  0.4998420000000  0.5793160000000  0.5567770000000 1.0
C      1  0.5509680000000  0.5186490000000  0.5606950000000 1.0
C      1  0.5786450000000  0.4744610000000  0.4731700000000 1.0
C      1  0.4968320000000  0.4764810000000  0.4577740000000 1.0
C      1  0.4274330000000  0.5189580000000  0.4777170000000 1.0
C      1  0.5120210000000  0.4751930000000  0.5101600000000 1.0
C      1  0.5663840000000  0.5517060000000  0.4696950000000 1.0
C      1  0.5811570000000  0.5251170000000  0.4749290000000 1.0
C      1  0.4390880000000  0.5712300000000  0.4944430000000 1.0
C      1  0.4445120000000  0.5050660000000  0.4229090000000 1.0
C      1  0.4802600000000  0.4566790000000  0.5603030000000 1.0
END
