TITL C-950536-5891-228 -4.26863097080039e-06 125000 -574.353966506135 0 0 93 (C1) n - 1
REM
REM in /home/bkarasulu/work/CARBON/AIRSS/Generating-Clusters/EDIP-Nigel-Params/with-SteepDescent/Only-C1/SD-CG/HFTN-CG
REM
REM
REM
REM
REM
REM ./C.cell (11c1c37f851c82e70ff6c80c92926a4b)
REM
REM compiler GCC version 9.2.1 20190827 (Red Hat 9.2.1-1)
REM options -cpp -mtune=generic -march=x86-64 -g -O0 -fpre-include=/usr/include/finclude/math-vector-fortran.h
REM seed 1169908647 -1370721092 -2017466552 -1157749104 600921657 1460233569 -1277546734 -242373932 1651683703 -529398795 224235829 1268586278 -1276912847 487824630 -607336863 1095188762 -1654164729 -994378001 1198233007 609422547 692894313 994619390 -1862030103 -845474521 1411637952 1829057761 -1427952861 2031151329 929489183 1563931559 990177957 488008063 -200953034
REM
CELL 1.54180   50.00000   50.00000   50.00000   90.00000   90.00000   90.00000
LATT -1
SFAC C  
C      1  0.5027760000000  0.5668290000000  0.5282150000000 1.0
C      1  0.5896360000000  0.4811690000000  0.5277210000000 1.0
C      1  0.4892550000000  0.5559010000000  0.5749230000000 1.0
C      1  0.4718840000000  0.5713880000000  0.5320870000000 1.0
C      1  0.4212630000000  0.4585770000000  0.4956060000000 1.0
C      1  0.4661460000000  0.5135760000000  0.5741850000000 1.0
C      1  0.5610540000000  0.5053300000000  0.4703490000000 1.0
C      1  0.4576400000000  0.4675900000000  0.5041840000000 1.0
C      1  0.4392270000000  0.5420300000000  0.4678280000000 1.0
C      1  0.4321640000000  0.4605680000000  0.4684340000000 1.0
C      1  0.5022720000000  0.5449410000000  0.5077900000000 1.0
C      1  0.4502260000000  0.5319860000000  0.5579580000000 1.0
C      1  0.4399870000000  0.5204900000000  0.5321070000000 1.0
C      1  0.4681460000000  0.4302340000000  0.4833130000000 1.0
C      1  0.4792860000000  0.4899330000000  0.5602310000000 1.0
C      1  0.4430570000000  0.4644870000000  0.5348820000000 1.0
C      1  0.5842890000000  0.5411580000000  0.4750800000000 1.0
C      1  0.4660340000000  0.5316060000000  0.4635420000000 1.0
C      1  0.4920440000000  0.4316220000000  0.5775790000000 1.0
C      1  0.5335490000000  0.5193630000000  0.4763010000000 1.0
C      1  0.4977800000000  0.5872060000000  0.4676620000000 1.0
C      1  0.4248140000000  0.4918960000000  0.5325440000000 1.0
C      1  0.5646680000000  0.5341690000000  0.5423080000000 1.0
C      1  0.5607300000000  0.4532180000000  0.4667750000000 1.0
C      1  0.5187530000000  0.5391910000000  0.4333180000000 1.0
C      1  0.4715480000000  0.5027030000000  0.4739960000000 1.0
C      1  0.5036110000000  0.4841870000000  0.5780730000000 1.0
C      1  0.5058380000000  0.4533190000000  0.4426970000000 1.0
C      1  0.5389680000000  0.5223070000000  0.4193960000000 1.0
C      1  0.4688850000000  0.4439990000000  0.5716130000000 1.0
C      1  0.5528900000000  0.5713350000000  0.5134180000000 1.0
C      1  0.4887160000000  0.4965590000000  0.5310770000000 1.0
C      1  0.5273160000000  0.4952790000000  0.4127710000000 1.0
C      1  0.4222200000000  0.5326900000000  0.4879290000000 1.0
C      1  0.5178550000000  0.4973220000000  0.4637870000000 1.0
C      1  0.5495810000000  0.5443420000000  0.5196420000000 1.0
C      1  0.4123530000000  0.4847050000000  0.5065050000000 1.0
C      1  0.5278410000000  0.5803080000000  0.5054990000000 1.0
C      1  0.4876220000000  0.5288280000000  0.5884830000000 1.0
C      1  0.4960590000000  0.4239520000000  0.4833940000000 1.0
C      1  0.4844830000000  0.4375550000000  0.5238060000000 1.0
C      1  0.4668200000000  0.5237050000000  0.4352100000000 1.0
C      1  0.5742130000000  0.4936470000000  0.4441540000000 1.0
C      1  0.5263210000000  0.4787940000000  0.4400550000000 1.0
C      1  0.5181760000000  0.5103760000000  0.5311420000000 1.0
C      1  0.4640980000000  0.5590900000000  0.5583430000000 1.0
C      1  0.5284060000000  0.4232070000000  0.5448640000000 1.0
C      1  0.4751090000000  0.5375130000000  0.5005910000000 1.0
C      1  0.5122400000000  0.5550290000000  0.5555400000000 1.0
C      1  0.4286590000000  0.4887060000000  0.4581570000000 1.0
C      1  0.4657180000000  0.5136620000000  0.5170610000000 1.0
C      1  0.5824320000000  0.5158870000000  0.4894090000000 1.0
C      1  0.5264260000000  0.5284090000000  0.5078020000000 1.0
C      1  0.5416930000000  0.4328390000000  0.4678070000000 1.0
C      1  0.4538460000000  0.4334690000000  0.5311680000000 1.0
C      1  0.4964130000000  0.4893490000000  0.4800270000000 1.0
C      1  0.4498420000000  0.4970950000000  0.4357160000000 1.0
C      1  0.5057190000000  0.4082840000000  0.5044290000000 1.0
C      1  0.4577030000000  0.5813000000000  0.4861710000000 1.0
C      1  0.4566860000000  0.5604130000000  0.5083060000000 1.0
C      1  0.4510820000000  0.4233850000000  0.5047310000000 1.0
C      1  0.5234900000000  0.5265200000000  0.5570140000000 1.0
C      1  0.5237940000000  0.4655830000000  0.5661190000000 1.0
C      1  0.5128290000000  0.5129890000000  0.5825600000000 1.0
C      1  0.5881810000000  0.5036760000000  0.5449950000000 1.0
C      1  0.4899580000000  0.4703790000000  0.5123130000000 1.0
C      1  0.5646620000000  0.5222460000000  0.4350210000000 1.0
C      1  0.5648350000000  0.5110350000000  0.5580380000000 1.0
C      1  0.4261550000000  0.5027280000000  0.4864890000000 1.0
C      1  0.4818800000000  0.4825500000000  0.4019820000000 1.0
C      1  0.5678690000000  0.4670700000000  0.4917610000000 1.0
C      1  0.4639770000000  0.4745080000000  0.4219000000000 1.0
C      1  0.5002110000000  0.5032930000000  0.4045360000000 1.0
C      1  0.5667280000000  0.4521130000000  0.5166110000000 1.0
C      1  0.5380000000000  0.4902880000000  0.5280290000000 1.0
C      1  0.5396820000000  0.4444750000000  0.5258240000000 1.0
C      1  0.5034700000000  0.4125970000000  0.5323880000000 1.0
C      1  0.4587220000000  0.4490310000000  0.4642860000000 1.0
C      1  0.4604930000000  0.4673120000000  0.5591790000000 1.0
C      1  0.5560480000000  0.4703200000000  0.4433160000000 1.0
C      1  0.5648380000000  0.5462540000000  0.4546530000000 1.0
C      1  0.5143200000000  0.4343770000000  0.4634540000000 1.0
C      1  0.4304450000000  0.5437860000000  0.5139650000000 1.0
C      1  0.4759220000000  0.4565130000000  0.4417740000000 1.0
C      1  0.5189240000000  0.4367490000000  0.5706330000000 1.0
C      1  0.5206690000000  0.5714550000000  0.4775830000000 1.0
C      1  0.5337600000000  0.5461390000000  0.4599660000000 1.0
C      1  0.4544550000000  0.4965730000000  0.4957040000000 1.0
C      1  0.4808350000000  0.5999460000000  0.4886230000000 1.0
C      1  0.5263700000000  0.4671620000000  0.5373020000000 1.0
C      1  0.4947870000000  0.5222440000000  0.4260780000000 1.0
C      1  0.5878200000000  0.4872100000000  0.4995470000000 1.0
C      1  0.4718050000000  0.5748710000000  0.4606710000000 1.0
END
