TITL C-950529-3362-158 -3.83540531830417e-07 125000 -342.317533454142 0 0 56 (C1) n - 1
REM
REM in /home/bkarasulu/work/CARBON/AIRSS/Generating-Clusters/EDIP-Nigel-Params/with-SteepDescent/Only-C1/SD-CG/HFTN-CG
REM
REM
REM
REM
REM
REM ./C.cell (11c1c37f851c82e70ff6c80c92926a4b)
REM
REM compiler GCC version 9.2.1 20190827 (Red Hat 9.2.1-1)
REM options -cpp -mtune=generic -march=x86-64 -g -O0 -fpre-include=/usr/include/finclude/math-vector-fortran.h
REM seed -2099796284 -531936719 -1734806260 -1783472692 -471716286 1665454333 976867516 -861726780 -1192562513 1611113907 -1630875043 550180177 -998426581 664872575 -621010081 -930858205 898278902 253603991 1421046446 -1429263336 1824871010 1930953692 -355795996 -2035027868 -852982910 -668917478 374332859 549350586 1470779940 -1830271060 2012249451 -163487702 1878466510
REM
CELL 1.54180   50.00000   50.00000   50.00000   90.00000   90.00000   90.00000
LATT -1
SFAC C  
C      1  0.4998400000000  0.5686270000000  0.5216560000000 1.0
C      1  0.4706210000000  0.5417360000000  0.4944010000000 1.0
C      1  0.4249140000000  0.4974830000000  0.5023530000000 1.0
C      1  0.5491930000000  0.4777020000000  0.5563750000000 1.0
C      1  0.5398180000000  0.4717110000000  0.4492410000000 1.0
C      1  0.4955340000000  0.4539410000000  0.4593290000000 1.0
C      1  0.4721370000000  0.4850790000000  0.4241980000000 1.0
C      1  0.5163290000000  0.4312800000000  0.4983770000000 1.0
C      1  0.4423500000000  0.5427570000000  0.5021390000000 1.0
C      1  0.4490030000000  0.4526710000000  0.5197840000000 1.0
C      1  0.5285930000000  0.5617370000000  0.5222940000000 1.0
C      1  0.5178610000000  0.5360430000000  0.4295220000000 1.0
C      1  0.4745640000000  0.5170940000000  0.4773750000000 1.0
C      1  0.4863440000000  0.5354500000000  0.5690130000000 1.0
C      1  0.4683040000000  0.4457030000000  0.5007800000000 1.0
C      1  0.5598360000000  0.4794620000000  0.4651150000000 1.0
C      1  0.5060410000000  0.4940920000000  0.5067280000000 1.0
C      1  0.4962220000000  0.4458490000000  0.5418740000000 1.0
C      1  0.4880320000000  0.4905330000000  0.5634050000000 1.0
C      1  0.4917780000000  0.4347330000000  0.5150510000000 1.0
C      1  0.5725320000000  0.4950680000000  0.4837250000000 1.0
C      1  0.5108780000000  0.5121610000000  0.4172620000000 1.0
C      1  0.4281360000000  0.4799680000000  0.4820350000000 1.0
C      1  0.4968230000000  0.5543610000000  0.4351020000000 1.0
C      1  0.5164320000000  0.4710450000000  0.5207070000000 1.0
C      1  0.5348510000000  0.5485890000000  0.5468790000000 1.0
C      1  0.5027040000000  0.5623530000000  0.4617840000000 1.0
C      1  0.4562290000000  0.5141940000000  0.4565640000000 1.0
C      1  0.5379460000000  0.5348370000000  0.4495390000000 1.0
C      1  0.5122830000000  0.4733980000000  0.4458700000000 1.0
C      1  0.4545380000000  0.5142250000000  0.5386020000000 1.0
C      1  0.4514100000000  0.4908060000000  0.4420900000000 1.0
C      1  0.5455170000000  0.4503410000000  0.5522470000000 1.0
C      1  0.4500700000000  0.4664100000000  0.5429140000000 1.0
C      1  0.5493560000000  0.5025380000000  0.5437680000000 1.0
C      1  0.4472910000000  0.4707570000000  0.4634260000000 1.0
C      1  0.5192730000000  0.4416880000000  0.5568690000000 1.0
C      1  0.4366490000000  0.5188030000000  0.5159850000000 1.0
C      1  0.5547330000000  0.4418580000000  0.5270160000000 1.0
C      1  0.5820140000000  0.4869300000000  0.5084760000000 1.0
C      1  0.4717520000000  0.5366910000000  0.5447790000000 1.0
C      1  0.4997890000000  0.4878920000000  0.4245700000000 1.0
C      1  0.4877640000000  0.5412840000000  0.5199850000000 1.0
C      1  0.5263400000000  0.5482550000000  0.4713480000000 1.0
C      1  0.4739060000000  0.4653430000000  0.4776820000000 1.0
C      1  0.5653540000000  0.5056690000000  0.5201790000000 1.0
C      1  0.4907420000000  0.5854320000000  0.5010730000000 1.0
C      1  0.4832890000000  0.4920960000000  0.4894590000000 1.0
C      1  0.5116340000000  0.5211510000000  0.5179220000000 1.0
C      1  0.5038230000000  0.5139780000000  0.5657390000000 1.0
C      1  0.5254730000000  0.5208350000000  0.5451500000000 1.0
C      1  0.5349410000000  0.4514890000000  0.5090730000000 1.0
C      1  0.4622530000000  0.4896590000000  0.5517950000000 1.0
C      1  0.4810890000000  0.5676730000000  0.4813540000000 1.0
C      1  0.5102510000000  0.4335490000000  0.4712380000000 1.0
C      1  0.5346210000000  0.5449890000000  0.4987810000000 1.0
END
