TITL C-950533-5798-425 6.93923322148758e-08 125000 -587.746845190461 0 0 94 (C1) n - 1
REM
REM in /home/bkarasulu/work/CARBON/AIRSS/Generating-Clusters/EDIP-Nigel-Params/with-SteepDescent/Only-C1/SD-CG/HFTN-CG
REM
REM
REM
REM
REM
REM ./C.cell (11c1c37f851c82e70ff6c80c92926a4b)
REM
REM compiler GCC version 9.2.1 20190827 (Red Hat 9.2.1-1)
REM options -cpp -mtune=generic -march=x86-64 -g -O0 -fpre-include=/usr/include/finclude/math-vector-fortran.h
REM seed 1435366162 -300893441 -2010298794 1642452593 443863169 2111760787 -1280372390 1959456277 23659995 -264640656 -2023013005 584286717 -1940055109 -1597700776 -1555255978 -1570976730 1653712740 399540110 1162769789 -1195021552 2112517429 246334912 140096176 -675092477 529279977 -2030812593 -936295076 -1605695555 -2083129164 -484080313 -788973720 -2117336296 -140970442
REM
CELL 1.54180   50.00000   50.00000   50.00000   90.00000   90.00000   90.00000
LATT -1
SFAC C  
C      1  0.4959580000000  0.4636000000000  0.5759380000000 1.0
C      1  0.5613970000000  0.4640270000000  0.5080840000000 1.0
C      1  0.4908930000000  0.5500790000000  0.4405510000000 1.0
C      1  0.4414840000000  0.5163610000000  0.4379160000000 1.0
C      1  0.4743900000000  0.5069620000000  0.5044950000000 1.0
C      1  0.5160980000000  0.4239690000000  0.5343140000000 1.0
C      1  0.4214560000000  0.5048140000000  0.4566230000000 1.0
C      1  0.4702630000000  0.4791800000000  0.4561480000000 1.0
C      1  0.5432210000000  0.5604380000000  0.5575960000000 1.0
C      1  0.5465420000000  0.4220890000000  0.4948040000000 1.0
C      1  0.4486870000000  0.5674790000000  0.5120920000000 1.0
C      1  0.5607050000000  0.4537950000000  0.5371410000000 1.0
C      1  0.4760720000000  0.4817830000000  0.4861710000000 1.0
C      1  0.4497400000000  0.5511860000000  0.5346200000000 1.0
C      1  0.4604180000000  0.4217110000000  0.4673100000000 1.0
C      1  0.5697880000000  0.4817240000000  0.4539500000000 1.0
C      1  0.5661800000000  0.5139880000000  0.4917210000000 1.0
C      1  0.5545120000000  0.5351950000000  0.5590490000000 1.0
C      1  0.4708170000000  0.5460510000000  0.5786710000000 1.0
C      1  0.5014170000000  0.5187610000000  0.5462140000000 1.0
C      1  0.5267880000000  0.5399620000000  0.4993090000000 1.0
C      1  0.4333630000000  0.4478790000000  0.5011680000000 1.0
C      1  0.4415980000000  0.5448990000000  0.4413240000000 1.0
C      1  0.5240040000000  0.4968640000000  0.5099770000000 1.0
C      1  0.5772250000000  0.5166220000000  0.4647960000000 1.0
C      1  0.5158110000000  0.5229950000000  0.5859910000000 1.0
C      1  0.4817660000000  0.4850250000000  0.5872320000000 1.0
C      1  0.4384790000000  0.4292580000000  0.4809170000000 1.0
C      1  0.4563820000000  0.5668890000000  0.4853600000000 1.0
C      1  0.4995360000000  0.5480600000000  0.5062120000000 1.0
C      1  0.5093580000000  0.4818450000000  0.4570740000000 1.0
C      1  0.5597140000000  0.5363330000000  0.4516730000000 1.0
C      1  0.5211030000000  0.5677870000000  0.5424460000000 1.0
C      1  0.5013960000000  0.5865930000000  0.5023100000000 1.0
C      1  0.4643070000000  0.4174040000000  0.5274070000000 1.0
C      1  0.5507580000000  0.4911820000000  0.4335550000000 1.0
C      1  0.4881500000000  0.4245880000000  0.4655780000000 1.0
C      1  0.5007200000000  0.4384110000000  0.4887090000000 1.0
C      1  0.4816150000000  0.5306630000000  0.4884530000000 1.0
C      1  0.5674250000000  0.4784840000000  0.5525050000000 1.0
C      1  0.4823710000000  0.4584430000000  0.5024640000000 1.0
C      1  0.4696670000000  0.5058940000000  0.4426070000000 1.0
C      1  0.5350300000000  0.4472540000000  0.4509510000000 1.0
C      1  0.4520460000000  0.4556920000000  0.5514950000000 1.0
C      1  0.5397640000000  0.5149380000000  0.5740720000000 1.0
C      1  0.4259220000000  0.5220040000000  0.4798560000000 1.0
C      1  0.4247480000000  0.5087080000000  0.5282740000000 1.0
C      1  0.4810060000000  0.4995140000000  0.4160640000000 1.0
C      1  0.5439940000000  0.4866360000000  0.5683330000000 1.0
C      1  0.5486030000000  0.5590640000000  0.4984210000000 1.0
C      1  0.4829700000000  0.4722040000000  0.4098990000000 1.0
C      1  0.4497870000000  0.5227430000000  0.5290630000000 1.0
C      1  0.5285650000000  0.5750060000000  0.4562050000000 1.0
C      1  0.5500840000000  0.5608500000000  0.4676650000000 1.0
C      1  0.4236570000000  0.5007120000000  0.5007820000000 1.0
C      1  0.5281310000000  0.4721120000000  0.4335430000000 1.0
C      1  0.5698580000000  0.5264410000000  0.5357970000000 1.0
C      1  0.4539780000000  0.5237250000000  0.5809320000000 1.0
C      1  0.5179140000000  0.5109740000000  0.4611740000000 1.0
C      1  0.5198500000000  0.4202010000000  0.5046930000000 1.0
C      1  0.4817910000000  0.4529620000000  0.5519640000000 1.0
C      1  0.4898530000000  0.5253440000000  0.4588120000000 1.0
C      1  0.4909990000000  0.4694100000000  0.5285160000000 1.0
C      1  0.4573500000000  0.4961610000000  0.5789870000000 1.0
C      1  0.4422330000000  0.4817500000000  0.5588910000000 1.0
C      1  0.4934290000000  0.5201000000000  0.4008230000000 1.0
C      1  0.5250490000000  0.4637650000000  0.5692530000000 1.0
C      1  0.4440650000000  0.4383180000000  0.5281170000000 1.0
C      1  0.5341540000000  0.4446780000000  0.5481260000000 1.0
C      1  0.5334720000000  0.4712570000000  0.5015900000000 1.0
C      1  0.5704510000000  0.5395160000000  0.5087390000000 1.0
C      1  0.4982790000000  0.5471600000000  0.5379780000000 1.0
C      1  0.4728650000000  0.5576960000000  0.5513050000000 1.0
C      1  0.5196050000000  0.4596140000000  0.4777360000000 1.0
C      1  0.5660130000000  0.4419230000000  0.4882860000000 1.0
C      1  0.5030490000000  0.5450890000000  0.4133210000000 1.0
C      1  0.5636300000000  0.4527550000000  0.4602810000000 1.0
C      1  0.4871160000000  0.4247480000000  0.5436870000000 1.0
C      1  0.4846730000000  0.5784210000000  0.4795240000000 1.0
C      1  0.5271840000000  0.5808150000000  0.5161670000000 1.0
C      1  0.5003890000000  0.5740150000000  0.4545840000000 1.0
C      1  0.4402480000000  0.5469270000000  0.4696800000000 1.0
C      1  0.5335950000000  0.5142040000000  0.4891810000000 1.0
C      1  0.5781330000000  0.4894870000000  0.5062990000000 1.0
C      1  0.4976500000000  0.4990060000000  0.5240400000000 1.0
C      1  0.5387070000000  0.5183910000000  0.4391170000000 1.0
C      1  0.5795360000000  0.4986960000000  0.5342510000000 1.0
C      1  0.4179580000000  0.4903830000000  0.5485200000000 1.0
C      1  0.4194100000000  0.4769130000000  0.4629280000000 1.0
C      1  0.4792380000000  0.4591450000000  0.4346250000000 1.0
C      1  0.4201580000000  0.4730660000000  0.4910740000000 1.0
C      1  0.4962450000000  0.5413980000000  0.5889710000000 1.0
C      1  0.5282420000000  0.5304180000000  0.4144940000000 1.0
C      1  0.4977550000000  0.4384200000000  0.4424400000000 1.0
END
