TITL C-950529-3362-346 -4.63612523601848e-07 125000 -254.584517580481 0 0 43 (C1) n - 1
REM
REM in /home/bkarasulu/work/CARBON/AIRSS/Generating-Clusters/EDIP-Nigel-Params/with-SteepDescent/Only-C1/SD-CG/HFTN-CG
REM
REM
REM
REM
REM
REM ./C.cell (11c1c37f851c82e70ff6c80c92926a4b)
REM
REM compiler GCC version 9.2.1 20190827 (Red Hat 9.2.1-1)
REM options -cpp -mtune=generic -march=x86-64 -g -O0 -fpre-include=/usr/include/finclude/math-vector-fortran.h
REM seed -73659551 -100927321 11454892 -1501734930 1160877600 -1560241034 1832353639 380227436 -973697029 454434565 -187013604 -662876716 -1073176946 1663521308 1051905901 -916355353 -206632910 -30098526 -1718176063 -1543165239 2022690247 1920610283 -562562059 -1225495608 -1122463576 -457692663 210094523 -2104659074 1579824251 1873501997 -677240435 -1687526701 1992495420
REM
CELL 1.54180   50.00000   50.00000   50.00000   90.00000   90.00000   90.00000
LATT -1
SFAC C  
C      1  0.5252320000000  0.4910760000000  0.4722000000000 1.0
C      1  0.5013620000000  0.4726370000000  0.5698550000000 1.0
C      1  0.4856900000000  0.4596500000000  0.4626180000000 1.0
C      1  0.5033200000000  0.5320650000000  0.5305850000000 1.0
C      1  0.5745090000000  0.4929240000000  0.5017380000000 1.0
C      1  0.4431310000000  0.5179740000000  0.4757660000000 1.0
C      1  0.4605540000000  0.4758330000000  0.4945590000000 1.0
C      1  0.5675460000000  0.4661420000000  0.5112780000000 1.0
C      1  0.5365850000000  0.4422920000000  0.5157120000000 1.0
C      1  0.5335880000000  0.4960240000000  0.5384480000000 1.0
C      1  0.5046820000000  0.5002000000000  0.4945210000000 1.0
C      1  0.4329870000000  0.4690010000000  0.5023250000000 1.0
C      1  0.4554470000000  0.5439020000000  0.4698200000000 1.0
C      1  0.4824670000000  0.4859390000000  0.5139230000000 1.0
C      1  0.5210010000000  0.5139290000000  0.5159190000000 1.0
C      1  0.4278690000000  0.5187470000000  0.4995860000000 1.0
C      1  0.5087390000000  0.4965490000000  0.4462670000000 1.0
C      1  0.4648680000000  0.4977030000000  0.4748870000000 1.0
C      1  0.5453560000000  0.4677840000000  0.5336030000000 1.0
C      1  0.4642670000000  0.5582080000000  0.4953300000000 1.0
C      1  0.5082120000000  0.4443350000000  0.5058890000000 1.0
C      1  0.5333650000000  0.4604820000000  0.4708220000000 1.0
C      1  0.5452150000000  0.5251400000000  0.5049420000000 1.0
C      1  0.5242050000000  0.5393450000000  0.4561030000000 1.0
C      1  0.5016660000000  0.5349700000000  0.4772930000000 1.0
C      1  0.4799040000000  0.5353800000000  0.4568660000000 1.0
C      1  0.5100930000000  0.5237350000000  0.4356330000000 1.0
C      1  0.4811650000000  0.4857140000000  0.4527250000000 1.0
C      1  0.5073360000000  0.4476120000000  0.4761980000000 1.0
C      1  0.4901620000000  0.4590100000000  0.5235040000000 1.0
C      1  0.5022840000000  0.5585920000000  0.5221510000000 1.0
C      1  0.5074620000000  0.4964670000000  0.5565550000000 1.0
C      1  0.4822010000000  0.5100640000000  0.5390060000000 1.0
C      1  0.4543690000000  0.5485370000000  0.5202540000000 1.0
C      1  0.5496700000000  0.5105560000000  0.4785440000000 1.0
C      1  0.4548800000000  0.5256050000000  0.5368570000000 1.0
C      1  0.4934460000000  0.4552310000000  0.5509110000000 1.0
C      1  0.4937790000000  0.5578490000000  0.4955760000000 1.0
C      1  0.4380490000000  0.4819390000000  0.5259340000000 1.0
C      1  0.5511170000000  0.5313770000000  0.4589010000000 1.0
C      1  0.5649730000000  0.5116610000000  0.5213800000000 1.0
C      1  0.5540120000000  0.4480860000000  0.4892490000000 1.0
C      1  0.4332380000000  0.5097340000000  0.5257670000000 1.0
END
