TITL C-951346-9544-738 -1.20028649362844e-06 125000 -1037.22180455387 0 0 168 (C1) n - 1
REM
REM in /home/bkarasulu/work/CARBON/AIRSS/Generating-Clusters/EDIP-Nigel-Params/with-SteepDescent/Only-C1/SD-CG/HFTN-CG
REM
REM
REM
REM
REM
REM ./C.cell (11c1c37f851c82e70ff6c80c92926a4b)
REM
REM compiler GCC version 9.2.1 20190827 (Red Hat 9.2.1-1)
REM options -cpp -mtune=generic -march=x86-64 -g -O0 -fpre-include=/usr/include/finclude/math-vector-fortran.h
REM seed -1110245007 -553443594 -2056556118 -971485692 -1684022660 2014366220 -14896870 1265083419 1025350974 -2127128748 -848813163 1202798071 1404702148 1365692780 139616344 -1470578582 716548695 1710073709 1608938884 -1163319331 -1871636547 -760633129 847875367 -1712311636 1124397687 2143544970 -355408059 1007708555 -894562804 -370024279 548152600 926831877 -1294419083
REM
CELL 1.54180   50.00000   50.00000   50.00000   90.00000   90.00000   90.00000
LATT -1
SFAC C  
C      1  0.5002910000000  0.6042680000000  0.5558110000000 1.0
C      1  0.4716690000000  0.4737520000000  0.5289530000000 1.0
C      1  0.5953130000000  0.5095720000000  0.5043750000000 1.0
C      1  0.6016180000000  0.5285430000000  0.5281260000000 1.0
C      1  0.5327010000000  0.4889390000000  0.4723360000000 1.0
C      1  0.4749520000000  0.4581910000000  0.5992900000000 1.0
C      1  0.5745940000000  0.5424560000000  0.4347530000000 1.0
C      1  0.5110330000000  0.4551990000000  0.5055190000000 1.0
C      1  0.4305710000000  0.5314580000000  0.5691180000000 1.0
C      1  0.4052410000000  0.5587180000000  0.5042830000000 1.0
C      1  0.4569750000000  0.4206280000000  0.5834350000000 1.0
C      1  0.4827680000000  0.4777740000000  0.4497260000000 1.0
C      1  0.5032020000000  0.4350640000000  0.5657310000000 1.0
C      1  0.4197190000000  0.5259860000000  0.4180510000000 1.0
C      1  0.4903800000000  0.4346880000000  0.5101920000000 1.0
C      1  0.4801020000000  0.4804230000000  0.5545210000000 1.0
C      1  0.5549510000000  0.4782900000000  0.5178370000000 1.0
C      1  0.4817440000000  0.3841850000000  0.5037100000000 1.0
C      1  0.3895200000000  0.4594420000000  0.4976070000000 1.0
C      1  0.4887800000000  0.5593520000000  0.5212290000000 1.0
C      1  0.4196570000000  0.4644070000000  0.4573940000000 1.0
C      1  0.4181690000000  0.4883720000000  0.5593700000000 1.0
C      1  0.4281190000000  0.4375190000000  0.5438270000000 1.0
C      1  0.4250140000000  0.5067310000000  0.4382290000000 1.0
C      1  0.5398800000000  0.5186940000000  0.4125660000000 1.0
C      1  0.5612900000000  0.4670030000000  0.5677080000000 1.0
C      1  0.5165770000000  0.4668400000000  0.4022850000000 1.0
C      1  0.5386650000000  0.5658210000000  0.5871370000000 1.0
C      1  0.3998700000000  0.5038350000000  0.4821620000000 1.0
C      1  0.5546700000000  0.5888310000000  0.5201700000000 1.0
C      1  0.5125480000000  0.5770680000000  0.5616780000000 1.0
C      1  0.4674060000000  0.4759570000000  0.4016210000000 1.0
C      1  0.4488660000000  0.5330880000000  0.5159360000000 1.0
C      1  0.5250370000000  0.5005430000000  0.4303240000000 1.0
C      1  0.4451460000000  0.5391150000000  0.4158370000000 1.0
C      1  0.5550950000000  0.5091720000000  0.4739990000000 1.0
C      1  0.4443710000000  0.5842780000000  0.5162240000000 1.0
C      1  0.4114860000000  0.5592520000000  0.4772080000000 1.0
C      1  0.4721620000000  0.5199350000000  0.5928770000000 1.0
C      1  0.5557540000000  0.5320580000000  0.5121180000000 1.0
C      1  0.5979380000000  0.4883290000000  0.5559160000000 1.0
C      1  0.5345970000000  0.5303320000000  0.5509950000000 1.0
C      1  0.4427180000000  0.5572830000000  0.5701500000000 1.0
C      1  0.4801670000000  0.4321150000000  0.5420410000000 1.0
C      1  0.5242170000000  0.4160830000000  0.5566780000000 1.0
C      1  0.5773780000000  0.4925490000000  0.4318620000000 1.0
C      1  0.4673140000000  0.6083850000000  0.4866540000000 1.0
C      1  0.5218250000000  0.5879200000000  0.4621060000000 1.0
C      1  0.4892670000000  0.4790330000000  0.6116620000000 1.0
C      1  0.5001990000000  0.4236450000000  0.4490760000000 1.0
C      1  0.5415930000000  0.3988210000000  0.4620430000000 1.0
C      1  0.4187990000000  0.4670410000000  0.5390600000000 1.0
C      1  0.4714670000000  0.5982760000000  0.4587730000000 1.0
C      1  0.4719290000000  0.5948120000000  0.5554900000000 1.0
C      1  0.4336440000000  0.5412820000000  0.4685370000000 1.0
C      1  0.5638460000000  0.4295670000000  0.4898030000000 1.0
C      1  0.4555760000000  0.4501760000000  0.4791110000000 1.0
C      1  0.5359240000000  0.6091680000000  0.5245360000000 1.0
C      1  0.4963100000000  0.5886500000000  0.4460320000000 1.0
C      1  0.4570380000000  0.3998590000000  0.4655390000000 1.0
C      1  0.4606440000000  0.5759510000000  0.4173960000000 1.0
C      1  0.4910720000000  0.5262210000000  0.3988930000000 1.0
C      1  0.4381340000000  0.4859000000000  0.5800350000000 1.0
C      1  0.4716790000000  0.5847240000000  0.5269750000000 1.0
C      1  0.4505940000000  0.5936390000000  0.4391170000000 1.0
C      1  0.5178290000000  0.4216190000000  0.4251010000000 1.0
C      1  0.5604890000000  0.4685700000000  0.4272420000000 1.0
C      1  0.5142700000000  0.4052640000000  0.4694600000000 1.0
C      1  0.5498300000000  0.5546000000000  0.5627210000000 1.0
C      1  0.4237450000000  0.5949230000000  0.4457970000000 1.0
C      1  0.4836880000000  0.5243140000000  0.5565290000000 1.0
C      1  0.5527300000000  0.4754090000000  0.5953770000000 1.0
C      1  0.5613760000000  0.4017880000000  0.4834540000000 1.0
C      1  0.5648750000000  0.5067470000000  0.5025160000000 1.0
C      1  0.4527460000000  0.5500120000000  0.4446180000000 1.0
C      1  0.4751860000000  0.5348030000000  0.5303510000000 1.0
C      1  0.5300460000000  0.4721510000000  0.4277300000000 1.0
C      1  0.5689650000000  0.5180840000000  0.4185150000000 1.0
C      1  0.4706390000000  0.3982860000000  0.4207840000000 1.0
C      1  0.5099580000000  0.5120170000000  0.5066220000000 1.0
C      1  0.4942100000000  0.4881720000000  0.4014090000000 1.0
C      1  0.5184530000000  0.5188530000000  0.5952930000000 1.0
C      1  0.5912550000000  0.4270480000000  0.4814540000000 1.0
C      1  0.4959060000000  0.5055480000000  0.4362430000000 1.0
C      1  0.4363190000000  0.4252970000000  0.5175310000000 1.0
C      1  0.4934760000000  0.5609370000000  0.5784230000000 1.0
C      1  0.6016630000000  0.5202550000000  0.4620930000000 1.0
C      1  0.6038410000000  0.5159700000000  0.5540540000000 1.0
C      1  0.5070720000000  0.4564430000000  0.4509640000000 1.0
C      1  0.4463680000000  0.4973840000000  0.4819960000000 1.0
C      1  0.4749890000000  0.4280690000000  0.4853460000000 1.0
C      1  0.5189510000000  0.4028720000000  0.5318990000000 1.0
C      1  0.4732040000000  0.4028550000000  0.5461010000000 1.0
C      1  0.5932830000000  0.4491560000000  0.4629130000000 1.0
C      1  0.4561010000000  0.5400610000000  0.4874390000000 1.0
C      1  0.5912450000000  0.4723070000000  0.5312420000000 1.0
C      1  0.5025310000000  0.5476170000000  0.4152710000000 1.0
C      1  0.5983350000000  0.5439400000000  0.4496260000000 1.0
C      1  0.4808920000000  0.5456790000000  0.4708470000000 1.0
C      1  0.4247800000000  0.5125530000000  0.4667260000000 1.0
C      1  0.4521510000000  0.4967740000000  0.3905800000000 1.0
C      1  0.4880470000000  0.6021380000000  0.5085200000000 1.0
C      1  0.6038650000000  0.4808160000000  0.5043890000000 1.0
C      1  0.4407910000000  0.6040830000000  0.4963870000000 1.0
C      1  0.5821360000000  0.4432760000000  0.5367150000000 1.0
C      1  0.5824310000000  0.4988020000000  0.4608500000000 1.0
C      1  0.4298330000000  0.4379910000000  0.4538760000000 1.0
C      1  0.5041700000000  0.5268250000000  0.4596950000000 1.0
C      1  0.4901290000000  0.5736160000000  0.4206940000000 1.0
C      1  0.5891160000000  0.5654580000000  0.4997300000000 1.0
C      1  0.4534900000000  0.4403030000000  0.5604600000000 1.0
C      1  0.4947520000000  0.5617620000000  0.4912490000000 1.0
C      1  0.5267410000000  0.5372930000000  0.5094460000000 1.0
C      1  0.5282330000000  0.4624460000000  0.5991810000000 1.0
C      1  0.5125110000000  0.4391850000000  0.4038430000000 1.0
C      1  0.5114690000000  0.5151900000000  0.5653760000000 1.0
C      1  0.4897730000000  0.4788610000000  0.5067920000000 1.0
C      1  0.5489880000000  0.4419030000000  0.4675070000000 1.0
C      1  0.5654950000000  0.5913890000000  0.4690590000000 1.0
C      1  0.4660950000000  0.5730450000000  0.5752370000000 1.0
C      1  0.4312600000000  0.4790620000000  0.4352940000000 1.0
C      1  0.5347330000000  0.5391950000000  0.4657200000000 1.0
C      1  0.4698160000000  0.4777460000000  0.4789140000000 1.0
C      1  0.4857450000000  0.4296070000000  0.5922270000000 1.0
C      1  0.4528880000000  0.4382690000000  0.4366730000000 1.0
C      1  0.3961900000000  0.4749210000000  0.5200400000000 1.0
C      1  0.5715940000000  0.5867090000000  0.4960670000000 1.0
C      1  0.5012160000000  0.3855300000000  0.4839020000000 1.0
C      1  0.5450360000000  0.4831550000000  0.5462850000000 1.0
C      1  0.5551000000000  0.5097010000000  0.5500600000000 1.0
C      1  0.5731190000000  0.4411130000000  0.5631780000000 1.0
C      1  0.5231790000000  0.5649300000000  0.4825200000000 1.0
C      1  0.4702730000000  0.4146960000000  0.4425280000000 1.0
C      1  0.4931870000000  0.5065660000000  0.6077580000000 1.0
C      1  0.5787030000000  0.5495490000000  0.5217800000000 1.0
C      1  0.5176800000000  0.4605190000000  0.5728360000000 1.0
C      1  0.5502240000000  0.5051330000000  0.5973080000000 1.0
C      1  0.5446730000000  0.4166900000000  0.4380020000000 1.0
C      1  0.4593570000000  0.4675250000000  0.4296700000000 1.0
C      1  0.4394250000000  0.4503230000000  0.5030210000000 1.0
C      1  0.4932240000000  0.3885180000000  0.5306970000000 1.0
C      1  0.5094070000000  0.5051340000000  0.4786540000000 1.0
C      1  0.4591230000000  0.4032130000000  0.4956500000000 1.0
C      1  0.5656050000000  0.5698160000000  0.5415580000000 1.0
C      1  0.5590560000000  0.4449730000000  0.5172170000000 1.0
C      1  0.5155550000000  0.5501400000000  0.5968380000000 1.0
C      1  0.5083820000000  0.6137930000000  0.5283740000000 1.0
C      1  0.4369670000000  0.5020820000000  0.5100280000000 1.0
C      1  0.5916800000000  0.4746660000000  0.4771500000000 1.0
C      1  0.4069390000000  0.5818420000000  0.4619350000000 1.0
C      1  0.4433680000000  0.4741150000000  0.5213190000000 1.0
C      1  0.4712770000000  0.3977660000000  0.5743630000000 1.0
C      1  0.5160440000000  0.5607120000000  0.5349060000000 1.0
C      1  0.3976920000000  0.4747300000000  0.4753540000000 1.0
C      1  0.5692610000000  0.4456820000000  0.4436720000000 1.0
C      1  0.5310730000000  0.5464460000000  0.4169600000000 1.0
C      1  0.4298030000000  0.5585280000000  0.5179360000000 1.0
C      1  0.5476440000000  0.5838910000000  0.4485580000000 1.0
C      1  0.4633170000000  0.5201580000000  0.4019740000000 1.0
C      1  0.4612730000000  0.4673540000000  0.5742100000000 1.0
C      1  0.4151110000000  0.5155390000000  0.5489020000000 1.0
C      1  0.4056940000000  0.5031970000000  0.5131180000000 1.0
C      1  0.5714400000000  0.5094920000000  0.5742450000000 1.0
C      1  0.5474470000000  0.5541490000000  0.4413170000000 1.0
C      1  0.4445590000000  0.5133950000000  0.5873520000000 1.0
C      1  0.5252760000000  0.4599010000000  0.4751710000000 1.0
C      1  0.5104340000000  0.4846910000000  0.5565420000000 1.0
C      1  0.5307130000000  0.4391740000000  0.5271920000000 1.0
END
