TITL C-950534-5965-256 -2.01991904216179e-06 125000 -1095.02548858814 0 0 177 (C1) n - 1
REM
REM in /home/bkarasulu/work/CARBON/AIRSS/Generating-Clusters/EDIP-Nigel-Params/with-SteepDescent/Only-C1/SD-CG/HFTN-CG
REM
REM
REM
REM
REM
REM ./C.cell (11c1c37f851c82e70ff6c80c92926a4b)
REM
REM compiler GCC version 9.2.1 20190827 (Red Hat 9.2.1-1)
REM options -cpp -mtune=generic -march=x86-64 -g -O0 -fpre-include=/usr/include/finclude/math-vector-fortran.h
REM seed 14392772 -1485961557 -1747028519 862742277 310423856 1424873495 472620862 -1704062696 1202839971 93676286 1517181353 2070522151 -1987400030 1150693956 1875382850 -1523282457 -1945893206 538312928 -665197152 1885482334 -464592431 -1122981300 1421218035 -1740814584 -1373289708 -372284860 2055101170 -1526511825 1237035906 -79661068 -1263546922 -379969103 -1443568242
REM
CELL 1.54180   50.00000   50.00000   50.00000   90.00000   90.00000   90.00000
LATT -1
SFAC C  
C      1  0.4832190000000  0.5931950000000  0.5621060000000 1.0
C      1  0.4368650000000  0.5999560000000  0.4836110000000 1.0
C      1  0.4346120000000  0.5577220000000  0.4593470000000 1.0
C      1  0.5029800000000  0.5050710000000  0.4546300000000 1.0
C      1  0.4383860000000  0.5306020000000  0.4231460000000 1.0
C      1  0.5835400000000  0.4622360000000  0.4421620000000 1.0
C      1  0.5030840000000  0.5615280000000  0.5232680000000 1.0
C      1  0.4511510000000  0.4117020000000  0.4749040000000 1.0
C      1  0.4580880000000  0.4533400000000  0.6021140000000 1.0
C      1  0.4580020000000  0.5944370000000  0.5258070000000 1.0
C      1  0.5128620000000  0.3841980000000  0.4950050000000 1.0
C      1  0.5181800000000  0.5134720000000  0.4781800000000 1.0
C      1  0.4403650000000  0.5597000000000  0.5597320000000 1.0
C      1  0.4728770000000  0.5388090000000  0.5916800000000 1.0
C      1  0.6060310000000  0.5267590000000  0.4696820000000 1.0
C      1  0.4154760000000  0.4449930000000  0.4882840000000 1.0
C      1  0.5533020000000  0.5896010000000  0.4757600000000 1.0
C      1  0.4970260000000  0.4382950000000  0.5698280000000 1.0
C      1  0.5189370000000  0.5311400000000  0.6085860000000 1.0
C      1  0.4716120000000  0.5057510000000  0.5041050000000 1.0
C      1  0.5657660000000  0.4337230000000  0.4092160000000 1.0
C      1  0.4710670000000  0.4836470000000  0.5816860000000 1.0
C      1  0.5579600000000  0.4385880000000  0.5421040000000 1.0
C      1  0.5168740000000  0.5014150000000  0.5305560000000 1.0
C      1  0.5612100000000  0.4776650000000  0.5761390000000 1.0
C      1  0.5620930000000  0.4873990000000  0.4076750000000 1.0
C      1  0.5612580000000  0.5392140000000  0.4488850000000 1.0
C      1  0.5307250000000  0.5583360000000  0.5127610000000 1.0
C      1  0.4263770000000  0.4732570000000  0.4441400000000 1.0
C      1  0.4787610000000  0.5384310000000  0.4751350000000 1.0
C      1  0.5502900000000  0.5413330000000  0.5344780000000 1.0
C      1  0.5611570000000  0.4590690000000  0.4228650000000 1.0
C      1  0.5570880000000  0.5197890000000  0.5779020000000 1.0
C      1  0.5431380000000  0.4751320000000  0.4985620000000 1.0
C      1  0.4494020000000  0.5215020000000  0.5180530000000 1.0
C      1  0.5957570000000  0.4891460000000  0.5206160000000 1.0
C      1  0.4839750000000  0.6136640000000  0.4959230000000 1.0
C      1  0.5005010000000  0.4079430000000  0.4874250000000 1.0
C      1  0.4821770000000  0.4704750000000  0.5374930000000 1.0
C      1  0.5091890000000  0.4542410000000  0.6132220000000 1.0
C      1  0.5175040000000  0.4790410000000  0.6030920000000 1.0
C      1  0.4840670000000  0.5761710000000  0.5051560000000 1.0
C      1  0.5101750000000  0.5948980000000  0.5515340000000 1.0
C      1  0.5901830000000  0.4807680000000  0.5681190000000 1.0
C      1  0.5779570000000  0.5485150000000  0.4970300000000 1.0
C      1  0.5386010000000  0.4992230000000  0.3932470000000 1.0
C      1  0.4665060000000  0.6052300000000  0.4740660000000 1.0
C      1  0.5990340000000  0.5400240000000  0.5255270000000 1.0
C      1  0.4504160000000  0.4913780000000  0.6016430000000 1.0
C      1  0.5130160000000  0.4130440000000  0.5287260000000 1.0
C      1  0.4621940000000  0.4880240000000  0.5525950000000 1.0
C      1  0.6078430000000  0.5129100000000  0.5333480000000 1.0
C      1  0.5950370000000  0.4521100000000  0.4883950000000 1.0
C      1  0.5660960000000  0.5619440000000  0.5506480000000 1.0
C      1  0.4685210000000  0.4447020000000  0.4074210000000 1.0
C      1  0.5662700000000  0.4208450000000  0.4587270000000 1.0
C      1  0.3922790000000  0.4967470000000  0.4602530000000 1.0
C      1  0.4129420000000  0.4638810000000  0.4211370000000 1.0
C      1  0.5444100000000  0.4912780000000  0.5236900000000 1.0
C      1  0.6000610000000  0.4626020000000  0.5480210000000 1.0
C      1  0.4497620000000  0.5379760000000  0.4828450000000 1.0
C      1  0.5393060000000  0.3911740000000  0.5008170000000 1.0
C      1  0.4046770000000  0.4696770000000  0.5015450000000 1.0
C      1  0.4174380000000  0.5569970000000  0.5422940000000 1.0
C      1  0.5868150000000  0.5295720000000  0.5733410000000 1.0
C      1  0.4811910000000  0.4207620000000  0.5247340000000 1.0
C      1  0.5923770000000  0.4898310000000  0.4448180000000 1.0
C      1  0.4268160000000  0.4678910000000  0.3980300000000 1.0
C      1  0.4900550000000  0.5297970000000  0.5516950000000 1.0
C      1  0.4920100000000  0.5650850000000  0.4774280000000 1.0
C      1  0.4092210000000  0.5199500000000  0.4643900000000 1.0
C      1  0.4948110000000  0.5036690000000  0.3778490000000 1.0
C      1  0.5480640000000  0.5877300000000  0.4323740000000 1.0
C      1  0.5051930000000  0.5646980000000  0.4155670000000 1.0
C      1  0.4860140000000  0.5273050000000  0.3876350000000 1.0
C      1  0.5191650000000  0.4544760000000  0.5570130000000 1.0
C      1  0.4559940000000  0.4480870000000  0.5105230000000 1.0
C      1  0.5858160000000  0.5460570000000  0.4676390000000 1.0
C      1  0.6028060000000  0.5076340000000  0.5627770000000 1.0
C      1  0.5225340000000  0.4526880000000  0.5012060000000 1.0
C      1  0.4617450000000  0.4070670000000  0.5641010000000 1.0
C      1  0.5315370000000  0.5522190000000  0.4105390000000 1.0
C      1  0.4758050000000  0.4402980000000  0.5486950000000 1.0
C      1  0.5099080000000  0.5718760000000  0.5937770000000 1.0
C      1  0.4022690000000  0.5086680000000  0.5334180000000 1.0
C      1  0.4209210000000  0.4184350000000  0.5461770000000 1.0
C      1  0.4525060000000  0.4828780000000  0.4340560000000 1.0
C      1  0.5234400000000  0.4270990000000  0.4803070000000 1.0
C      1  0.3876700000000  0.4833640000000  0.4833680000000 1.0
C      1  0.4321000000000  0.5048750000000  0.5839800000000 1.0
C      1  0.4110840000000  0.4435900000000  0.5391680000000 1.0
C      1  0.5258460000000  0.5630610000000  0.4811080000000 1.0
C      1  0.4644640000000  0.4308650000000  0.4330270000000 1.0
C      1  0.4544610000000  0.4913120000000  0.4859040000000 1.0
C      1  0.5827730000000  0.4481490000000  0.5309200000000 1.0
C      1  0.4540370000000  0.4712770000000  0.4058840000000 1.0
C      1  0.5370840000000  0.5291270000000  0.5578710000000 1.0
C      1  0.4392160000000  0.4243980000000  0.5677510000000 1.0
C      1  0.3987730000000  0.4847600000000  0.5501970000000 1.0
C      1  0.5006010000000  0.5874530000000  0.4346520000000 1.0
C      1  0.5651910000000  0.5126330000000  0.5224900000000 1.0
C      1  0.4967910000000  0.4389570000000  0.3990100000000 1.0
C      1  0.4592330000000  0.5822480000000  0.5516260000000 1.0
C      1  0.4786580000000  0.5835710000000  0.4555440000000 1.0
C      1  0.4880380000000  0.4461110000000  0.5966590000000 1.0
C      1  0.4030250000000  0.5636500000000  0.4929800000000 1.0
C      1  0.4193700000000  0.5690970000000  0.5160040000000 1.0
C      1  0.5845610000000  0.4431780000000  0.4631520000000 1.0
C      1  0.5454000000000  0.5206710000000  0.6060230000000 1.0
C      1  0.4355840000000  0.4048300000000  0.5242280000000 1.0
C      1  0.4373600000000  0.4516600000000  0.5799810000000 1.0
C      1  0.4343620000000  0.4529340000000  0.4652270000000 1.0
C      1  0.5123070000000  0.6081140000000  0.4976900000000 1.0
C      1  0.4182370000000  0.5788670000000  0.4721050000000 1.0
C      1  0.4425370000000  0.4279220000000  0.4518660000000 1.0
C      1  0.4381990000000  0.4703040000000  0.5309660000000 1.0
C      1  0.5223740000000  0.4993770000000  0.4342450000000 1.0
C      1  0.5528030000000  0.5945610000000  0.5237170000000 1.0
C      1  0.4033230000000  0.5335490000000  0.5455640000000 1.0
C      1  0.4162060000000  0.5394400000000  0.4411560000000 1.0
C      1  0.5487280000000  0.4978160000000  0.4488180000000 1.0
C      1  0.5252260000000  0.6007210000000  0.4433820000000 1.0
C      1  0.5005110000000  0.4965410000000  0.5036530000000 1.0
C      1  0.4607880000000  0.4626480000000  0.4828500000000 1.0
C      1  0.5654410000000  0.5898850000000  0.5479440000000 1.0
C      1  0.4487310000000  0.5316910000000  0.5730240000000 1.0
C      1  0.5109600000000  0.4578750000000  0.3835300000000 1.0
C      1  0.5484290000000  0.4528660000000  0.5671040000000 1.0
C      1  0.4228500000000  0.4788640000000  0.5694190000000 1.0
C      1  0.5231540000000  0.3921590000000  0.5466600000000 1.0
C      1  0.4981940000000  0.4952020000000  0.5872480000000 1.0
C      1  0.5242230000000  0.5786240000000  0.5702920000000 1.0
C      1  0.5332530000000  0.4025880000000  0.4264240000000 1.0
C      1  0.6019670000000  0.4990770000000  0.4702140000000 1.0
C      1  0.4827860000000  0.5651140000000  0.5937790000000 1.0
C      1  0.5459300000000  0.4996530000000  0.4799140000000 1.0
C      1  0.5062340000000  0.4822350000000  0.5516920000000 1.0
C      1  0.5294700000000  0.6056410000000  0.4728850000000 1.0
C      1  0.4622590000000  0.5185670000000  0.5485250000000 1.0
C      1  0.4858840000000  0.4142050000000  0.4398830000000 1.0
C      1  0.4552760000000  0.5699950000000  0.4421100000000 1.0
C      1  0.5070590000000  0.4161250000000  0.4186460000000 1.0
C      1  0.3988540000000  0.5369130000000  0.4854010000000 1.0
C      1  0.4629880000000  0.3997060000000  0.5358460000000 1.0
C      1  0.6023690000000  0.4801870000000  0.4928540000000 1.0
C      1  0.5442430000000  0.3891060000000  0.5288490000000 1.0
C      1  0.5129680000000  0.5422600000000  0.5686130000000 1.0
C      1  0.4795040000000  0.4046390000000  0.4671790000000 1.0
C      1  0.4338730000000  0.5934110000000  0.5119610000000 1.0
C      1  0.5240170000000  0.6004110000000  0.5244090000000 1.0
C      1  0.4971710000000  0.5345050000000  0.5259720000000 1.0
C      1  0.5593660000000  0.4147770000000  0.4299370000000 1.0
C      1  0.5545240000000  0.5607370000000  0.4267070000000 1.0
C      1  0.4264580000000  0.4985170000000  0.5184550000000 1.0
C      1  0.5919430000000  0.5506700000000  0.5524980000000 1.0
C      1  0.4399210000000  0.5122090000000  0.4693230000000 1.0
C      1  0.5147750000000  0.4729620000000  0.4260480000000 1.0
C      1  0.5279120000000  0.4393830000000  0.5297020000000 1.0
C      1  0.5246710000000  0.4322170000000  0.4494770000000 1.0
C      1  0.5347790000000  0.4574310000000  0.4381620000000 1.0
C      1  0.5611930000000  0.5223030000000  0.4957240000000 1.0
C      1  0.5624080000000  0.5778710000000  0.5003520000000 1.0
C      1  0.4815820000000  0.5231630000000  0.4501300000000 1.0
C      1  0.5561390000000  0.4064750000000  0.4823440000000 1.0
C      1  0.4542150000000  0.5121840000000  0.4420060000000 1.0
C      1  0.5296670000000  0.5240640000000  0.4051850000000 1.0
C      1  0.5464400000000  0.4894330000000  0.6012050000000 1.0
C      1  0.4380950000000  0.4247800000000  0.5006760000000 1.0
C      1  0.4943370000000  0.4664050000000  0.5022970000000 1.0
C      1  0.5338560000000  0.5398340000000  0.4657980000000 1.0
C      1  0.3944620000000  0.4637210000000  0.5293910000000 1.0
C      1  0.5160110000000  0.4853710000000  0.3798600000000 1.0
C      1  0.4566880000000  0.5536750000000  0.4177250000000 1.0
C      1  0.5944950000000  0.4343210000000  0.5098220000000 1.0
C      1  0.4830300000000  0.5478870000000  0.4065130000000 1.0
C      1  0.5715550000000  0.5065870000000  0.4314440000000 1.0
C      1  0.4938000000000  0.5204750000000  0.6013360000000 1.0
END
