TITL C-951334-9093-132 2.69362788960487e-06 125000 -459.695483673885 0 0 75 (C1) n - 1
REM
REM in /home/bkarasulu/work/CARBON/AIRSS/Generating-Clusters/EDIP-Nigel-Params/with-SteepDescent/Only-C1/SD-CG/HFTN-CG
REM
REM
REM
REM
REM
REM ./C.cell (11c1c37f851c82e70ff6c80c92926a4b)
REM
REM compiler GCC version 9.2.1 20190827 (Red Hat 9.2.1-1)
REM options -cpp -mtune=generic -march=x86-64 -g -O0 -fpre-include=/usr/include/finclude/math-vector-fortran.h
REM seed 1255228622 251744802 920387645 181555380 -2115531440 828348138 -848460862 -61500732 1156355510 1999540917 1636813440 111473774 -152965455 1537261402 -1389550717 786715209 801512883 -596343993 -510343915 1070850189 1562518452 89896657 -480256252 1822233754 -1256178318 1602425631 1342725520 852081974 -562076003 -346495568 -110478645 -1207883543 1745671578
REM
CELL 1.54180   50.00000   50.00000   50.00000   90.00000   90.00000   90.00000
LATT -1
SFAC C  
C      1  0.5240930000000  0.4836190000000  0.4966420000000 1.0
C      1  0.5728960000000  0.5432200000000  0.5268980000000 1.0
C      1  0.4110180000000  0.4820460000000  0.5116540000000 1.0
C      1  0.5510790000000  0.4492470000000  0.5237560000000 1.0
C      1  0.5464580000000  0.4599290000000  0.4538480000000 1.0
C      1  0.5469210000000  0.4612200000000  0.4983910000000 1.0
C      1  0.4739810000000  0.4572460000000  0.4325780000000 1.0
C      1  0.4254230000000  0.4602340000000  0.5208970000000 1.0
C      1  0.4702840000000  0.5650260000000  0.4863870000000 1.0
C      1  0.5167180000000  0.5387460000000  0.4436370000000 1.0
C      1  0.4113960000000  0.5017900000000  0.4936030000000 1.0
C      1  0.4828740000000  0.4515980000000  0.4949280000000 1.0
C      1  0.5477350000000  0.5273860000000  0.4775040000000 1.0
C      1  0.5053200000000  0.4282110000000  0.4550780000000 1.0
C      1  0.5076290000000  0.4405570000000  0.5413620000000 1.0
C      1  0.5658510000000  0.5014630000000  0.5111470000000 1.0
C      1  0.5833860000000  0.5255210000000  0.5054940000000 1.0
C      1  0.5648340000000  0.4814110000000  0.4629410000000 1.0
C      1  0.5218020000000  0.5828890000000  0.5346430000000 1.0
C      1  0.4439310000000  0.4638710000000  0.4723640000000 1.0
C      1  0.4883940000000  0.5316190000000  0.4355820000000 1.0
C      1  0.4690560000000  0.4780730000000  0.4882360000000 1.0
C      1  0.5548610000000  0.5287780000000  0.5453740000000 1.0
C      1  0.5368160000000  0.5763220000000  0.5115570000000 1.0
C      1  0.5587910000000  0.4993430000000  0.5475130000000 1.0
C      1  0.4518390000000  0.5626590000000  0.5081130000000 1.0
C      1  0.4572910000000  0.5292650000000  0.5528690000000 1.0
C      1  0.5709820000000  0.4773680000000  0.4922040000000 1.0
C      1  0.5246280000000  0.4231080000000  0.4983600000000 1.0
C      1  0.4653750000000  0.5684710000000  0.5337810000000 1.0
C      1  0.5293710000000  0.4319440000000  0.4715070000000 1.0
C      1  0.5188880000000  0.4951880000000  0.4233380000000 1.0
C      1  0.5273290000000  0.5477950000000  0.4699810000000 1.0
C      1  0.4939080000000  0.5784260000000  0.4928250000000 1.0
C      1  0.5095640000000  0.4952420000000  0.5443700000000 1.0
C      1  0.4943550000000  0.5307660000000  0.5877590000000 1.0
C      1  0.5370980000000  0.5436180000000  0.5641010000000 1.0
C      1  0.5182490000000  0.5634550000000  0.5544540000000 1.0
C      1  0.4636550000000  0.5386460000000  0.4514210000000 1.0
C      1  0.4741260000000  0.4967660000000  0.5130570000000 1.0
C      1  0.4720850000000  0.5178370000000  0.5751160000000 1.0
C      1  0.4801020000000  0.4314990000000  0.4709940000000 1.0
C      1  0.4270590000000  0.5231910000000  0.4855510000000 1.0
C      1  0.4390880000000  0.4605010000000  0.5457230000000 1.0
C      1  0.4636500000000  0.4478970000000  0.5410710000000 1.0
C      1  0.4721310000000  0.4862930000000  0.4404730000000 1.0
C      1  0.5027640000000  0.4487080000000  0.4339370000000 1.0
C      1  0.4436400000000  0.4918960000000  0.4505370000000 1.0
C      1  0.5756640000000  0.5353990000000  0.4791640000000 1.0
C      1  0.4585180000000  0.4434860000000  0.4541240000000 1.0
C      1  0.4933040000000  0.5575870000000  0.5257790000000 1.0
C      1  0.4846860000000  0.4899990000000  0.4671790000000 1.0
C      1  0.4446150000000  0.5184620000000  0.4624790000000 1.0
C      1  0.5355040000000  0.5177460000000  0.4334370000000 1.0
C      1  0.5394840000000  0.5094250000000  0.5000830000000 1.0
C      1  0.5347960000000  0.4827720000000  0.5541090000000 1.0
C      1  0.5007360000000  0.5233600000000  0.5505050000000 1.0
C      1  0.4613530000000  0.5651010000000  0.4601250000000 1.0
C      1  0.4893640000000  0.5046570000000  0.4228370000000 1.0
C      1  0.4654630000000  0.4365600000000  0.5139510000000 1.0
C      1  0.5191900000000  0.5665650000000  0.4910090000000 1.0
C      1  0.5625930000000  0.5667110000000  0.5161290000000 1.0
C      1  0.5115870000000  0.4827400000000  0.4691730000000 1.0
C      1  0.5064630000000  0.4200810000000  0.5203220000000 1.0
C      1  0.5209170000000  0.4715610000000  0.4431370000000 1.0
C      1  0.4365290000000  0.5383760000000  0.5080430000000 1.0
C      1  0.5008040000000  0.4845110000000  0.5188000000000 1.0
C      1  0.4687830000000  0.5253990000000  0.5244660000000 1.0
C      1  0.4390100000000  0.4456490000000  0.4996500000000 1.0
C      1  0.4523900000000  0.5568380000000  0.5561460000000 1.0
C      1  0.4854280000000  0.4444630000000  0.5584480000000 1.0
C      1  0.5581290000000  0.5112150000000  0.4541440000000 1.0
C      1  0.4797610000000  0.4104280000000  0.5153120000000 1.0
C      1  0.5222470000000  0.5272580000000  0.5825630000000 1.0
C      1  0.5339630000000  0.4537480000000  0.5453290000000 1.0
END
