TITL C-951339-9237-235 -1.10296417878979e-06 125000 -534.451207169238 0 0 85 (C1) n - 1
REM
REM in /home/bkarasulu/work/CARBON/AIRSS/Generating-Clusters/EDIP-Nigel-Params/with-SteepDescent/Only-C1/SD-CG/HFTN-CG
REM
REM
REM
REM
REM
REM ./C.cell (11c1c37f851c82e70ff6c80c92926a4b)
REM
REM compiler GCC version 9.2.1 20190827 (Red Hat 9.2.1-1)
REM options -cpp -mtune=generic -march=x86-64 -g -O0 -fpre-include=/usr/include/finclude/math-vector-fortran.h
REM seed -591190557 160169744 900182089 858512295 167792268 1708239589 361061626 -526257023 -654025382 -1833904119 -525505637 482892853 -2064259451 -1696685167 1650277756 131536183 1096522522 -1909287355 -23143284 698239784 -843458272 -1617911763 -460465132 -2088655880 96074981 -1249841616 -312265106 -1510567835 -686925432 1071263564 -1157413235 1254250247 -863692311
REM
CELL 1.54180   50.00000   50.00000   50.00000   90.00000   90.00000   90.00000
LATT -1
SFAC C  
C      1  0.5689260000000  0.5359750000000  0.5077870000000 1.0
C      1  0.5243530000000  0.4859890000000  0.5174260000000 1.0
C      1  0.5449610000000  0.5426670000000  0.5678910000000 1.0
C      1  0.5184510000000  0.5058460000000  0.4238790000000 1.0
C      1  0.5652640000000  0.5250290000000  0.5594480000000 1.0
C      1  0.5036880000000  0.4428130000000  0.5218750000000 1.0
C      1  0.4894360000000  0.5037710000000  0.4190750000000 1.0
C      1  0.4910060000000  0.5783970000000  0.4744430000000 1.0
C      1  0.4391440000000  0.4905240000000  0.5499620000000 1.0
C      1  0.4413450000000  0.5228300000000  0.4279300000000 1.0
C      1  0.5240900000000  0.5146490000000  0.5056840000000 1.0
C      1  0.4242760000000  0.5398150000000  0.4764400000000 1.0
C      1  0.4973000000000  0.4388670000000  0.4742840000000 1.0
C      1  0.5152570000000  0.4922340000000  0.5449530000000 1.0
C      1  0.4452140000000  0.5261810000000  0.5179190000000 1.0
C      1  0.5341170000000  0.5581370000000  0.5457600000000 1.0
C      1  0.5015330000000  0.4680190000000  0.4800500000000 1.0
C      1  0.5507930000000  0.4641000000000  0.5028190000000 1.0
C      1  0.4733980000000  0.5383140000000  0.4531810000000 1.0
C      1  0.5674170000000  0.5020060000000  0.5435640000000 1.0
C      1  0.5145960000000  0.4274330000000  0.4970150000000 1.0
C      1  0.4502970000000  0.4475550000000  0.4618900000000 1.0
C      1  0.4370810000000  0.4671930000000  0.4779390000000 1.0
C      1  0.5096510000000  0.4353720000000  0.4453720000000 1.0
C      1  0.5382250000000  0.4400360000000  0.4552920000000 1.0
C      1  0.5498300000000  0.5692500000000  0.4774670000000 1.0
C      1  0.4740720000000  0.5194840000000  0.4749270000000 1.0
C      1  0.5661670000000  0.4477150000000  0.5208580000000 1.0
C      1  0.4813400000000  0.5752850000000  0.5004070000000 1.0
C      1  0.4477270000000  0.4675650000000  0.5057230000000 1.0
C      1  0.5514370000000  0.5224200000000  0.4621490000000 1.0
C      1  0.5392680000000  0.5743400000000  0.4518970000000 1.0
C      1  0.5416280000000  0.4692140000000  0.4500670000000 1.0
C      1  0.4677690000000  0.5279320000000  0.5726020000000 1.0
C      1  0.5254070000000  0.4817860000000  0.4712740000000 1.0
C      1  0.4364900000000  0.5507130000000  0.5022590000000 1.0
C      1  0.5287540000000  0.5096020000000  0.4773330000000 1.0
C      1  0.4676160000000  0.4311750000000  0.4790240000000 1.0
C      1  0.4634390000000  0.4457780000000  0.5516360000000 1.0
C      1  0.4975150000000  0.5353690000000  0.5638720000000 1.0
C      1  0.4950820000000  0.5583750000000  0.4554410000000 1.0
C      1  0.4564920000000  0.4706220000000  0.5625980000000 1.0
C      1  0.5406570000000  0.4377560000000  0.4858720000000 1.0
C      1  0.4216220000000  0.5083070000000  0.5116650000000 1.0
C      1  0.4719650000000  0.5269350000000  0.4241580000000 1.0
C      1  0.5651840000000  0.5441980000000  0.4787260000000 1.0
C      1  0.4316050000000  0.4919770000000  0.4656570000000 1.0
C      1  0.4716040000000  0.5142750000000  0.5031260000000 1.0
C      1  0.4977870000000  0.5148650000000  0.5428810000000 1.0
C      1  0.5318500000000  0.5670050000000  0.4999520000000 1.0
C      1  0.4970480000000  0.5262740000000  0.5155010000000 1.0
C      1  0.4455920000000  0.4452440000000  0.4341050000000 1.0
C      1  0.4572270000000  0.4379180000000  0.5071590000000 1.0
C      1  0.5713920000000  0.4853620000000  0.4914400000000 1.0
C      1  0.4681150000000  0.5068630000000  0.5913280000000 1.0
C      1  0.5233220000000  0.4461410000000  0.5474380000000 1.0
C      1  0.4480100000000  0.5200520000000  0.5500930000000 1.0
C      1  0.4757460000000  0.4336410000000  0.5295860000000 1.0
C      1  0.5731680000000  0.5067710000000  0.5142730000000 1.0
C      1  0.5173300000000  0.4703360000000  0.5655500000000 1.0
C      1  0.5344860000000  0.5296560000000  0.4357560000000 1.0
C      1  0.5041300000000  0.4583880000000  0.4242310000000 1.0
C      1  0.4804360000000  0.4769920000000  0.4246580000000 1.0
C      1  0.5207650000000  0.5563280000000  0.4407540000000 1.0
C      1  0.4518220000000  0.4712430000000  0.4244400000000 1.0
C      1  0.5349520000000  0.5057030000000  0.5906090000000 1.0
C      1  0.4725400000000  0.4847730000000  0.5089790000000 1.0
C      1  0.4270660000000  0.4814540000000  0.5238530000000 1.0
C      1  0.5737820000000  0.5036090000000  0.4584230000000 1.0
C      1  0.4359850000000  0.5440410000000  0.4495980000000 1.0
C      1  0.5531530000000  0.4516580000000  0.5450000000000 1.0
C      1  0.5412480000000  0.4796670000000  0.5814440000000 1.0
C      1  0.5229180000000  0.5301380000000  0.5827080000000 1.0
C      1  0.5284220000000  0.4771470000000  0.4243070000000 1.0
C      1  0.4347890000000  0.4940180000000  0.4364560000000 1.0
C      1  0.5039150000000  0.5613430000000  0.5476400000000 1.0
C      1  0.4996850000000  0.5577430000000  0.5171810000000 1.0
C      1  0.5616700000000  0.4766540000000  0.5593280000000 1.0
C      1  0.5422460000000  0.5468180000000  0.5183790000000 1.0
C      1  0.4540740000000  0.5719670000000  0.5018090000000 1.0
C      1  0.5695900000000  0.4765130000000  0.4541630000000 1.0
C      1  0.4706940000000  0.4796040000000  0.5855320000000 1.0
C      1  0.4954970000000  0.4677850000000  0.5842160000000 1.0
C      1  0.4992340000000  0.4710820000000  0.5084770000000 1.0
C      1  0.4178240000000  0.5113810000000  0.4821380000000 1.0
END
