TITL C-950525-1983-212 -4.32017391371025e-07 125000 -775.301813616144 0 0 124 (C1) n - 1
REM
REM in /home/bkarasulu/work/CARBON/AIRSS/Generating-Clusters/EDIP-Nigel-Params/with-SteepDescent/Only-C1/SD-CG/HFTN-CG
REM
REM
REM
REM
REM
REM ./C.cell (11c1c37f851c82e70ff6c80c92926a4b)
REM
REM compiler GCC version 9.2.1 20190827 (Red Hat 9.2.1-1)
REM options -cpp -mtune=generic -march=x86-64 -g -O0 -fpre-include=/usr/include/finclude/math-vector-fortran.h
REM seed -1956974202 2070778881 1342505928 -1498662189 2010151902 -1719204815 -2107133201 1195283268 -420717923 1485472544 386387275 1906384321 863237003 59253681 191711885 -1760249548 2030993137 -357644978 -1006144399 -283764187 977639346 -491801702 -647838340 -1792608346 -715636359 -974154622 782463927 736770719 -2105679398 -1306589577 1396966630 -1508232519 1469978520
REM
CELL 1.54180   50.00000   50.00000   50.00000   90.00000   90.00000   90.00000
LATT -1
SFAC C  
C      1  0.4585920000000  0.5686200000000  0.4322220000000 1.0
C      1  0.4159170000000  0.4776090000000  0.4964590000000 1.0
C      1  0.5880690000000  0.5227860000000  0.5252040000000 1.0
C      1  0.5538690000000  0.4512010000000  0.5597000000000 1.0
C      1  0.4399120000000  0.5632620000000  0.5301240000000 1.0
C      1  0.5748870000000  0.4506820000000  0.5384450000000 1.0
C      1  0.4719640000000  0.5944940000000  0.5138910000000 1.0
C      1  0.4823410000000  0.5499950000000  0.5066340000000 1.0
C      1  0.4364310000000  0.5314590000000  0.5805580000000 1.0
C      1  0.4558840000000  0.4618380000000  0.4371590000000 1.0
C      1  0.4780540000000  0.4149930000000  0.5470350000000 1.0
C      1  0.5198850000000  0.5252170000000  0.5863490000000 1.0
C      1  0.4121990000000  0.4512950000000  0.5135330000000 1.0
C      1  0.5815330000000  0.4997620000000  0.5429320000000 1.0
C      1  0.4056460000000  0.5021060000000  0.5580180000000 1.0
C      1  0.4934890000000  0.5060870000000  0.5149220000000 1.0
C      1  0.5819850000000  0.5096540000000  0.4534140000000 1.0
C      1  0.4822250000000  0.4470270000000  0.4362210000000 1.0
C      1  0.5096070000000  0.4575010000000  0.5968690000000 1.0
C      1  0.5308460000000  0.4326360000000  0.5598110000000 1.0
C      1  0.5511410000000  0.5842700000000  0.5038810000000 1.0
C      1  0.5133130000000  0.5865190000000  0.4514340000000 1.0
C      1  0.5818550000000  0.4451050000000  0.4935550000000 1.0
C      1  0.4253460000000  0.5387350000000  0.5320090000000 1.0
C      1  0.5325180000000  0.5519230000000  0.5610770000000 1.0
C      1  0.5287520000000  0.4128740000000  0.5382410000000 1.0
C      1  0.4618730000000  0.5145670000000  0.5374020000000 1.0
C      1  0.5469420000000  0.4784210000000  0.5159990000000 1.0
C      1  0.5772970000000  0.4765990000000  0.5243260000000 1.0
C      1  0.5718540000000  0.4308170000000  0.5164230000000 1.0
C      1  0.4587990000000  0.4978660000000  0.4244460000000 1.0
C      1  0.5817650000000  0.4789420000000  0.4519200000000 1.0
C      1  0.4670800000000  0.5196290000000  0.4407420000000 1.0
C      1  0.5415870000000  0.4947510000000  0.4867310000000 1.0
C      1  0.4359850000000  0.4520020000000  0.4574400000000 1.0
C      1  0.5004840000000  0.4493990000000  0.4128900000000 1.0
C      1  0.4160590000000  0.5296070000000  0.5584290000000 1.0
C      1  0.4572210000000  0.5685010000000  0.5061900000000 1.0
C      1  0.4002670000000  0.5015190000000  0.5070470000000 1.0
C      1  0.4827630000000  0.4283960000000  0.5725660000000 1.0
C      1  0.5220190000000  0.4827900000000  0.4395750000000 1.0
C      1  0.5409530000000  0.4595440000000  0.4366460000000 1.0
C      1  0.4475130000000  0.4710990000000  0.5308590000000 1.0
C      1  0.4443970000000  0.5631800000000  0.4798200000000 1.0
C      1  0.5383620000000  0.5858620000000  0.4683360000000 1.0
C      1  0.5750560000000  0.5521830000000  0.4784870000000 1.0
C      1  0.5468730000000  0.5266040000000  0.5739550000000 1.0
C      1  0.4533320000000  0.5734490000000  0.5545500000000 1.0
C      1  0.5105570000000  0.4318900000000  0.5814190000000 1.0
C      1  0.5009700000000  0.4589920000000  0.5298340000000 1.0
C      1  0.5545000000000  0.5009210000000  0.5585520000000 1.0
C      1  0.5177530000000  0.5450260000000  0.5369060000000 1.0
C      1  0.5657200000000  0.5402900000000  0.5202620000000 1.0
C      1  0.5134560000000  0.5705930000000  0.4277590000000 1.0
C      1  0.4850170000000  0.4813430000000  0.4638240000000 1.0
C      1  0.5491150000000  0.5579940000000  0.4647470000000 1.0
C      1  0.6003880000000  0.5157530000000  0.5006410000000 1.0
C      1  0.5099820000000  0.4731340000000  0.4813620000000 1.0
C      1  0.5317910000000  0.5027220000000  0.4576400000000 1.0
C      1  0.4446220000000  0.4838280000000  0.5043870000000 1.0
C      1  0.4237660000000  0.4574830000000  0.5402490000000 1.0
C      1  0.4456840000000  0.5024260000000  0.5863440000000 1.0
C      1  0.4587950000000  0.5504040000000  0.5732960000000 1.0
C      1  0.4508510000000  0.4423430000000  0.4813210000000 1.0
C      1  0.4318680000000  0.4900080000000  0.4244140000000 1.0
C      1  0.5012480000000  0.4042850000000  0.5327560000000 1.0
C      1  0.5347400000000  0.4963250000000  0.5369290000000 1.0
C      1  0.5536230000000  0.5498010000000  0.4363920000000 1.0
C      1  0.4187820000000  0.5230810000000  0.4581250000000 1.0
C      1  0.4615910000000  0.4873480000000  0.5492530000000 1.0
C      1  0.5010720000000  0.4739790000000  0.3984800000000 1.0
C      1  0.5292700000000  0.4519700000000  0.5152280000000 1.0
C      1  0.4935400000000  0.5955560000000  0.4946740000000 1.0
C      1  0.5321330000000  0.5246550000000  0.4031670000000 1.0
C      1  0.5481720000000  0.5755690000000  0.5547080000000 1.0
C      1  0.4681340000000  0.5438970000000  0.4274940000000 1.0
C      1  0.5277630000000  0.4386650000000  0.4191560000000 1.0
C      1  0.5678180000000  0.4691980000000  0.4268480000000 1.0
C      1  0.4645820000000  0.4694240000000  0.4868120000000 1.0
C      1  0.5388020000000  0.5231870000000  0.4999670000000 1.0
C      1  0.5713170000000  0.5636090000000  0.5043940000000 1.0
C      1  0.5694600000000  0.4626480000000  0.4749380000000 1.0
C      1  0.4891820000000  0.4745110000000  0.5530940000000 1.0
C      1  0.5062940000000  0.5603430000000  0.4926240000000 1.0
C      1  0.4899990000000  0.5534810000000  0.5365950000000 1.0
C      1  0.5693890000000  0.5257040000000  0.4314850000000 1.0
C      1  0.5204960000000  0.5182850000000  0.5233160000000 1.0
C      1  0.5146030000000  0.4151560000000  0.4572480000000 1.0
C      1  0.4266080000000  0.5386200000000  0.4800820000000 1.0
C      1  0.3928840000000  0.4968340000000  0.5335520000000 1.0
C      1  0.4718650000000  0.4228340000000  0.4782610000000 1.0
C      1  0.4349600000000  0.4325960000000  0.5053140000000 1.0
C      1  0.4580260000000  0.4195780000000  0.5236780000000 1.0
C      1  0.5271730000000  0.4139230000000  0.4326060000000 1.0
C      1  0.5260360000000  0.5419960000000  0.4793110000000 1.0
C      1  0.4895780000000  0.4279720000000  0.4570360000000 1.0
C      1  0.5123850000000  0.5238030000000  0.4599760000000 1.0
C      1  0.4168190000000  0.4965330000000  0.4481190000000 1.0
C      1  0.5594750000000  0.5138480000000  0.4069210000000 1.0
C      1  0.4875170000000  0.5901170000000  0.4663420000000 1.0
C      1  0.5133300000000  0.4935740000000  0.4140290000000 1.0
C      1  0.5313310000000  0.5507560000000  0.4181840000000 1.0
C      1  0.4762760000000  0.4965200000000  0.5896820000000 1.0
C      1  0.4934290000000  0.4769190000000  0.5071510000000 1.0
C      1  0.4768020000000  0.5339330000000  0.5562060000000 1.0
C      1  0.5462740000000  0.5889930000000  0.5310360000000 1.0
C      1  0.4767480000000  0.5218890000000  0.4955950000000 1.0
C      1  0.5228610000000  0.4441190000000  0.4809130000000 1.0
C      1  0.4501830000000  0.5133450000000  0.5071980000000 1.0
C      1  0.5324120000000  0.4734340000000  0.5945530000000 1.0
C      1  0.4940260000000  0.5167440000000  0.5752790000000 1.0
C      1  0.5853650000000  0.5245510000000  0.4784480000000 1.0
C      1  0.4277620000000  0.4842290000000  0.5680140000000 1.0
C      1  0.4837740000000  0.4661950000000  0.5817900000000 1.0
C      1  0.5527110000000  0.4757390000000  0.5757960000000 1.0
C      1  0.5469100000000  0.4485030000000  0.4636030000000 1.0
C      1  0.5425780000000  0.4239720000000  0.5141980000000 1.0
C      1  0.4138760000000  0.5287670000000  0.5058580000000 1.0
C      1  0.4774180000000  0.4097770000000  0.5032290000000 1.0
C      1  0.5667830000000  0.4870110000000  0.4052280000000 1.0
C      1  0.4630450000000  0.5740250000000  0.4593290000000 1.0
C      1  0.4793400000000  0.5836900000000  0.5419550000000 1.0
C      1  0.4171180000000  0.4732650000000  0.4663420000000 1.0
C      1  0.4847340000000  0.5121950000000  0.4640650000000 1.0
END
