TITL C-951344-124-266 -5.49408495416557e-06 125000 -1118.75140071617 0 0 179 (C1) n - 1
REM
REM in /home/bkarasulu/work/CARBON/AIRSS/Generating-Clusters/EDIP-Nigel-Params/with-SteepDescent/Only-C1/SD-CG/HFTN-CG
REM
REM
REM
REM
REM
REM ./C.cell (11c1c37f851c82e70ff6c80c92926a4b)
REM
REM compiler GCC version 9.2.1 20190827 (Red Hat 9.2.1-1)
REM options -cpp -mtune=generic -march=x86-64 -g -O0 -fpre-include=/usr/include/finclude/math-vector-fortran.h
REM seed 1928985524 575721874 -1289252320 -373766232 -1824937030 -683159105 -1966201742 666932904 426779609 -803063178 -401838955 -220474493 1636340867 -2141173745 1819927250 -1656039060 -828096721 1780355755 1332712914 540148155 -484569130 209361896 -1019654588 122475780 -1833052891 -1946945258 112221558 79178588 -1929960451 1571818380 -1408558263 1177915473 -662157137
REM
CELL 1.54180   50.00000   50.00000   50.00000   90.00000   90.00000   90.00000
LATT -1
SFAC C  
C      1  0.4344790000000  0.5866790000000  0.4466250000000 1.0
C      1  0.4488280000000  0.4538340000000  0.5916580000000 1.0
C      1  0.4887470000000  0.4367720000000  0.5677030000000 1.0
C      1  0.4757950000000  0.4644270000000  0.4242280000000 1.0
C      1  0.5174670000000  0.5679280000000  0.4289770000000 1.0
C      1  0.4921950000000  0.4622820000000  0.5173910000000 1.0
C      1  0.5792670000000  0.4101780000000  0.5251690000000 1.0
C      1  0.5619230000000  0.4855910000000  0.5379720000000 1.0
C      1  0.5631610000000  0.5354540000000  0.5773910000000 1.0
C      1  0.5009980000000  0.4871680000000  0.4570950000000 1.0
C      1  0.4129100000000  0.5124570000000  0.5703570000000 1.0
C      1  0.5509610000000  0.4525870000000  0.4089990000000 1.0
C      1  0.4725410000000  0.5226670000000  0.5860890000000 1.0
C      1  0.5766660000000  0.4569480000000  0.4220540000000 1.0
C      1  0.4380110000000  0.4346690000000  0.4428230000000 1.0
C      1  0.5447900000000  0.4751880000000  0.5981180000000 1.0
C      1  0.4710760000000  0.4162760000000  0.5312070000000 1.0
C      1  0.4075450000000  0.5004200000000  0.4942350000000 1.0
C      1  0.5217880000000  0.4468240000000  0.4870970000000 1.0
C      1  0.3982350000000  0.5186710000000  0.4497600000000 1.0
C      1  0.5041870000000  0.5491990000000  0.4093050000000 1.0
C      1  0.5689260000000  0.4062150000000  0.4757390000000 1.0
C      1  0.4237440000000  0.4622320000000  0.5785590000000 1.0
C      1  0.5149440000000  0.4225750000000  0.5030750000000 1.0
C      1  0.5819540000000  0.4852740000000  0.4200000000000 1.0
C      1  0.4836380000000  0.5111220000000  0.4551750000000 1.0
C      1  0.4073410000000  0.4416220000000  0.5106900000000 1.0
C      1  0.4394160000000  0.5288350000000  0.5239590000000 1.0
C      1  0.4041100000000  0.5109250000000  0.5427750000000 1.0
C      1  0.4717430000000  0.6091480000000  0.4683040000000 1.0
C      1  0.4980030000000  0.5374470000000  0.5986410000000 1.0
C      1  0.4984270000000  0.3957510000000  0.4630470000000 1.0
C      1  0.5260630000000  0.5403420000000  0.4683080000000 1.0
C      1  0.5738270000000  0.4876720000000  0.5885860000000 1.0
C      1  0.5278470000000  0.5933460000000  0.4701330000000 1.0
C      1  0.4107280000000  0.4402010000000  0.4453540000000 1.0
C      1  0.4610410000000  0.4689720000000  0.4723580000000 1.0
C      1  0.5666350000000  0.4559790000000  0.5515710000000 1.0
C      1  0.4686510000000  0.5289050000000  0.3810750000000 1.0
C      1  0.3984460000000  0.4589700000000  0.4604150000000 1.0
C      1  0.5028670000000  0.4530000000000  0.4119780000000 1.0
C      1  0.4323040000000  0.4554100000000  0.5505080000000 1.0
C      1  0.4129370000000  0.4792630000000  0.4734010000000 1.0
C      1  0.5011510000000  0.3818750000000  0.5130080000000 1.0
C      1  0.5232710000000  0.4966500000000  0.5901800000000 1.0
C      1  0.5212480000000  0.5210150000000  0.6068030000000 1.0
C      1  0.5129030000000  0.4751830000000  0.3916460000000 1.0
C      1  0.4886120000000  0.5854740000000  0.5850630000000 1.0
C      1  0.5087290000000  0.5270960000000  0.5524260000000 1.0
C      1  0.4832770000000  0.5982380000000  0.4428800000000 1.0
C      1  0.5387740000000  0.5568400000000  0.4464510000000 1.0
C      1  0.4975410000000  0.4215130000000  0.4173060000000 1.0
C      1  0.5222770000000  0.6032950000000  0.5205260000000 1.0
C      1  0.5378210000000  0.4452220000000  0.5555220000000 1.0
C      1  0.5610890000000  0.5271070000000  0.5059270000000 1.0
C      1  0.4803290000000  0.5572970000000  0.5166660000000 1.0
C      1  0.5202070000000  0.4660820000000  0.5080200000000 1.0
C      1  0.5937530000000  0.5146370000000  0.5460440000000 1.0
C      1  0.4787700000000  0.4358870000000  0.5087170000000 1.0
C      1  0.4768670000000  0.4852490000000  0.5040020000000 1.0
C      1  0.5517570000000  0.5204890000000  0.4733670000000 1.0
C      1  0.4529950000000  0.4074350000000  0.4440270000000 1.0
C      1  0.6015850000000  0.4966580000000  0.4683960000000 1.0
C      1  0.5625270000000  0.4202230000000  0.4519680000000 1.0
C      1  0.5754700000000  0.4610420000000  0.5789020000000 1.0
C      1  0.5340440000000  0.5430470000000  0.5152320000000 1.0
C      1  0.5811410000000  0.5618510000000  0.5352420000000 1.0
C      1  0.5052890000000  0.4442720000000  0.5927680000000 1.0
C      1  0.5292480000000  0.4553600000000  0.4299020000000 1.0
C      1  0.4004920000000  0.4885240000000  0.5239060000000 1.0
C      1  0.5491150000000  0.4528780000000  0.4768990000000 1.0
C      1  0.4430990000000  0.5879490000000  0.5495950000000 1.0
C      1  0.4362150000000  0.4947240000000  0.4315820000000 1.0
C      1  0.4769590000000  0.5560820000000  0.4688030000000 1.0
C      1  0.5320450000000  0.4911420000000  0.5425480000000 1.0
C      1  0.4369960000000  0.5054410000000  0.5047810000000 1.0
C      1  0.4830890000000  0.4648800000000  0.4532410000000 1.0
C      1  0.4975180000000  0.5992700000000  0.5343350000000 1.0
C      1  0.5801860000000  0.4428690000000  0.4473660000000 1.0
C      1  0.5439740000000  0.5352050000000  0.5980940000000 1.0
C      1  0.4285490000000  0.4312400000000  0.4962470000000 1.0
C      1  0.4955150000000  0.4131470000000  0.5490710000000 1.0
C      1  0.4618700000000  0.5465850000000  0.4234620000000 1.0
C      1  0.4503700000000  0.5530900000000  0.5087160000000 1.0
C      1  0.5136950000000  0.5195970000000  0.5236080000000 1.0
C      1  0.5134560000000  0.6002870000000  0.5753210000000 1.0
C      1  0.4690260000000  0.4747150000000  0.5932670000000 1.0
C      1  0.6021030000000  0.5209860000000  0.4846280000000 1.0
C      1  0.4998880000000  0.5019170000000  0.3948060000000 1.0
C      1  0.4521690000000  0.5910600000000  0.5210860000000 1.0
C      1  0.4123340000000  0.5717080000000  0.4974750000000 1.0
C      1  0.4267110000000  0.5356050000000  0.5782600000000 1.0
C      1  0.4562160000000  0.3911560000000  0.4907100000000 1.0
C      1  0.5338740000000  0.4303580000000  0.4484910000000 1.0
C      1  0.5109690000000  0.5554210000000  0.5563110000000 1.0
C      1  0.5381380000000  0.5956160000000  0.5582690000000 1.0
C      1  0.4317080000000  0.4036110000000  0.4951860000000 1.0
C      1  0.5670240000000  0.5785420000000  0.5148890000000 1.0
C      1  0.5397170000000  0.4296720000000  0.5240840000000 1.0
C      1  0.5230830000000  0.5609010000000  0.4906130000000 1.0
C      1  0.5692580000000  0.5682630000000  0.4857630000000 1.0
C      1  0.5787350000000  0.5342180000000  0.4494750000000 1.0
C      1  0.4011510000000  0.5258730000000  0.4767710000000 1.0
C      1  0.4631470000000  0.5019390000000  0.3869310000000 1.0
C      1  0.4385800000000  0.4876980000000  0.4611120000000 1.0
C      1  0.4528030000000  0.5456220000000  0.5808770000000 1.0
C      1  0.4883380000000  0.5710690000000  0.5428170000000 1.0
C      1  0.4638680000000  0.5724780000000  0.5668200000000 1.0
C      1  0.4685360000000  0.5708890000000  0.4432060000000 1.0
C      1  0.5525650000000  0.5789570000000  0.4636980000000 1.0
C      1  0.5119450000000  0.5925050000000  0.4447430000000 1.0
C      1  0.5557530000000  0.5376240000000  0.4329550000000 1.0
C      1  0.5290670000000  0.5102440000000  0.5644710000000 1.0
C      1  0.4164510000000  0.4885750000000  0.5837590000000 1.0
C      1  0.4103410000000  0.5619050000000  0.5252490000000 1.0
C      1  0.4456670000000  0.5958200000000  0.4715890000000 1.0
C      1  0.5164700000000  0.5227880000000  0.4065650000000 1.0
C      1  0.5469130000000  0.4845810000000  0.4689350000000 1.0
C      1  0.4760910000000  0.5509090000000  0.3972280000000 1.0
C      1  0.4969160000000  0.5349860000000  0.4627560000000 1.0
C      1  0.5621720000000  0.5586170000000  0.5583570000000 1.0
C      1  0.4307240000000  0.5438830000000  0.4257550000000 1.0
C      1  0.4665450000000  0.4997620000000  0.6041590000000 1.0
C      1  0.5874660000000  0.4358660000000  0.5394590000000 1.0
C      1  0.5868030000000  0.5351230000000  0.5234380000000 1.0
C      1  0.4931130000000  0.4681070000000  0.6041640000000 1.0
C      1  0.6073040000000  0.4962010000000  0.5267220000000 1.0
C      1  0.5511380000000  0.4031760000000  0.5319330000000 1.0
C      1  0.4110040000000  0.4613900000000  0.5298980000000 1.0
C      1  0.5363190000000  0.5612670000000  0.5420490000000 1.0
C      1  0.5404580000000  0.5136850000000  0.4222410000000 1.0
C      1  0.4497090000000  0.4798090000000  0.5185010000000 1.0
C      1  0.4928560000000  0.5701110000000  0.4918180000000 1.0
C      1  0.5492950000000  0.6004330000000  0.5284910000000 1.0
C      1  0.4700230000000  0.4010220000000  0.4670460000000 1.0
C      1  0.5980990000000  0.4961940000000  0.4404710000000 1.0
C      1  0.5870500000000  0.5458390000000  0.4752210000000 1.0
C      1  0.4534430000000  0.5121000000000  0.4778730000000 1.0
C      1  0.5587490000000  0.4974870000000  0.4050050000000 1.0
C      1  0.4190920000000  0.5509140000000  0.4748520000000 1.0
C      1  0.4683030000000  0.4160840000000  0.4166830000000 1.0
C      1  0.4543560000000  0.4435810000000  0.4190130000000 1.0
C      1  0.4532460000000  0.4485970000000  0.4965280000000 1.0
C      1  0.6036840000000  0.4713790000000  0.4824160000000 1.0
C      1  0.5345620000000  0.4466880000000  0.5875360000000 1.0
C      1  0.5594640000000  0.4970290000000  0.5094740000000 1.0
C      1  0.4464390000000  0.4273050000000  0.5493520000000 1.0
C      1  0.4763820000000  0.6078220000000  0.5166270000000 1.0
C      1  0.4172450000000  0.5778780000000  0.5473370000000 1.0
C      1  0.5189090000000  0.4681270000000  0.5524110000000 1.0
C      1  0.5144470000000  0.3951870000000  0.4885480000000 1.0
C      1  0.6080400000000  0.4487670000000  0.5254200000000 1.0
C      1  0.4620280000000  0.4936640000000  0.4161000000000 1.0
C      1  0.4010380000000  0.5354970000000  0.5289630000000 1.0
C      1  0.6172180000000  0.5173530000000  0.5085830000000 1.0
C      1  0.5638010000000  0.4460390000000  0.5038370000000 1.0
C      1  0.5282690000000  0.4845240000000  0.4446070000000 1.0
C      1  0.4498780000000  0.5433830000000  0.4799360000000 1.0
C      1  0.4895960000000  0.6013770000000  0.4906980000000 1.0
C      1  0.4684440000000  0.5239530000000  0.5344840000000 1.0
C      1  0.5434400000000  0.4750880000000  0.3913550000000 1.0
C      1  0.5797810000000  0.4210420000000  0.4971610000000 1.0
C      1  0.5122780000000  0.4107550000000  0.4410960000000 1.0
C      1  0.4714870000000  0.3893430000000  0.5160450000000 1.0
C      1  0.6007390000000  0.4493740000000  0.4653460000000 1.0
C      1  0.4626610000000  0.4794940000000  0.5496290000000 1.0
C      1  0.5730960000000  0.5090510000000  0.5671650000000 1.0
C      1  0.4179060000000  0.5175970000000  0.4293580000000 1.0
C      1  0.5096460000000  0.5627430000000  0.5855190000000 1.0
C      1  0.4600830000000  0.4313130000000  0.5755820000000 1.0
C      1  0.5331320000000  0.4898650000000  0.4978160000000 1.0
C      1  0.4191510000000  0.5625390000000  0.4463700000000 1.0
C      1  0.4861020000000  0.5135540000000  0.5125740000000 1.0
C      1  0.4788350000000  0.5172140000000  0.4259380000000 1.0
C      1  0.5933490000000  0.4696490000000  0.5113730000000 1.0
C      1  0.4699450000000  0.5074070000000  0.5586360000000 1.0
C      1  0.4896400000000  0.4626820000000  0.5482860000000 1.0
C      1  0.5144090000000  0.3942670000000  0.5367760000000 1.0
C      1  0.4330730000000  0.5922200000000  0.4977030000000 1.0
END
