TITL C-951343-2256-576 -1.12953384742103e-06 125000 -289.148805267017 0 0 49 (C1) n - 1
REM
REM in /home/bkarasulu/work/CARBON/AIRSS/Generating-Clusters/EDIP-Nigel-Params/with-SteepDescent/Only-C1/SD-CG/HFTN-CG
REM
REM
REM
REM
REM
REM ./C.cell (11c1c37f851c82e70ff6c80c92926a4b)
REM
REM compiler GCC version 9.2.1 20190827 (Red Hat 9.2.1-1)
REM options -cpp -mtune=generic -march=x86-64 -g -O0 -fpre-include=/usr/include/finclude/math-vector-fortran.h
REM seed 523908762 -1533723955 517810867 798778677 877340657 249487503 1984849532 215560065 1556787264 -1725037920 1437110627 -1007720930 -566259824 -1132706582 -1011426530 -2064673140 -739903349 705565435 91113849 2058751488 2099521325 1181893175 -1928567483 2125670270 -1495709605 29040372 862820601 327120139 -245806746 496501193 1842426041 1114712003 506284802
REM
CELL 1.54180   50.00000   50.00000   50.00000   90.00000   90.00000   90.00000
LATT -1
SFAC C  
C      1  0.4640460000000  0.4730580000000  0.4518950000000 1.0
C      1  0.4969400000000  0.4770400000000  0.4864390000000 1.0
C      1  0.4667610000000  0.5589760000000  0.4942090000000 1.0
C      1  0.4645730000000  0.5097720000000  0.4952560000000 1.0
C      1  0.4816860000000  0.4828050000000  0.4329430000000 1.0
C      1  0.5055490000000  0.5244970000000  0.4994490000000 1.0
C      1  0.5270500000000  0.5105850000000  0.5479360000000 1.0
C      1  0.5737320000000  0.4514000000000  0.4951320000000 1.0
C      1  0.4750900000000  0.4572970000000  0.4763390000000 1.0
C      1  0.5036260000000  0.5473700000000  0.5566960000000 1.0
C      1  0.4547290000000  0.4530750000000  0.5201370000000 1.0
C      1  0.4669890000000  0.5354110000000  0.4470730000000 1.0
C      1  0.5152230000000  0.5256660000000  0.5683120000000 1.0
C      1  0.5157380000000  0.5136200000000  0.5228900000000 1.0
C      1  0.5120000000000  0.5114330000000  0.4534810000000 1.0
C      1  0.5542900000000  0.4994070000000  0.5061380000000 1.0
C      1  0.4849020000000  0.5529920000000  0.4617610000000 1.0
C      1  0.5488430000000  0.5328200000000  0.4776690000000 1.0
C      1  0.4785340000000  0.5644210000000  0.5188850000000 1.0
C      1  0.4590920000000  0.4796690000000  0.5661780000000 1.0
C      1  0.4976870000000  0.4558040000000  0.5432560000000 1.0
C      1  0.5228610000000  0.4449020000000  0.5033610000000 1.0
C      1  0.5241880000000  0.5739590000000  0.4922510000000 1.0
C      1  0.4428260000000  0.4912850000000  0.4622450000000 1.0
C      1  0.4858870000000  0.4762360000000  0.5600000000000 1.0
C      1  0.5051790000000  0.5393890000000  0.4459940000000 1.0
C      1  0.5057910000000  0.4940230000000  0.4315690000000 1.0
C      1  0.5639950000000  0.5256660000000  0.5008450000000 1.0
C      1  0.5480270000000  0.4848970000000  0.4807840000000 1.0
C      1  0.5258830000000  0.4559460000000  0.5326380000000 1.0
C      1  0.5253150000000  0.5652330000000  0.5181560000000 1.0
C      1  0.4525990000000  0.4914070000000  0.5185100000000 1.0
C      1  0.4493070000000  0.5360500000000  0.4922290000000 1.0
C      1  0.4804550000000  0.4415250000000  0.5246630000000 1.0
C      1  0.4458010000000  0.5233050000000  0.4638200000000 1.0
C      1  0.5237170000000  0.4668370000000  0.4837790000000 1.0
C      1  0.5420780000000  0.4861690000000  0.5505880000000 1.0
C      1  0.4948390000000  0.4352890000000  0.5000330000000 1.0
C      1  0.5018730000000  0.5639190000000  0.5341740000000 1.0
C      1  0.4243620000000  0.4909990000000  0.5093630000000 1.0
C      1  0.4933770000000  0.5054580000000  0.4800780000000 1.0
C      1  0.5625620000000  0.4548570000000  0.5203770000000 1.0
C      1  0.5222500000000  0.5455030000000  0.4846470000000 1.0
C      1  0.5414910000000  0.5085450000000  0.4619030000000 1.0
C      1  0.5708440000000  0.4679380000000  0.4735550000000 1.0
C      1  0.4291850000000  0.4765440000000  0.4845590000000 1.0
C      1  0.4581980000000  0.4990860000000  0.5464170000000 1.0
C      1  0.4492140000000  0.4556780000000  0.4922310000000 1.0
C      1  0.5608190000000  0.4822360000000  0.5291590000000 1.0
END
