TITL C-950521-2237-259 -4.43452143206634e-07 125000 -448.950888754814 0 0 73 (C1) n - 1
REM
REM in /home/bkarasulu/work/CARBON/AIRSS/Generating-Clusters/EDIP-Nigel-Params/with-SteepDescent/Only-C1/SD-CG/HFTN-CG
REM
REM
REM
REM
REM
REM ./C.cell (11c1c37f851c82e70ff6c80c92926a4b)
REM
REM compiler GCC version 9.2.1 20190827 (Red Hat 9.2.1-1)
REM options -cpp -mtune=generic -march=x86-64 -g -O0 -fpre-include=/usr/include/finclude/math-vector-fortran.h
REM seed -938752794 -1143839839 -1386109071 -239951665 804275935 -500637406 -126429904 -628321207 159172849 969132922 414386033 -1761020536 726351259 734839781 1637056879 -1308034261 129771005 1809618042 -1918987820 1968926446 -805141883 1878497352 -2121769541 36588879 -80929059 2144257098 795508357 -1318875328 859663150 701654190 -732291539 1424576862 1871718942
REM
CELL 1.54180   50.00000   50.00000   50.00000   90.00000   90.00000   90.00000
LATT -1
SFAC C  
C      1  0.4835360000000  0.5235550000000  0.4276730000000 1.0
C      1  0.4469970000000  0.4886740000000  0.5536250000000 1.0
C      1  0.4884020000000  0.4243870000000  0.5080640000000 1.0
C      1  0.5088600000000  0.4255750000000  0.5316800000000 1.0
C      1  0.5452850000000  0.5008770000000  0.5600090000000 1.0
C      1  0.4476450000000  0.4826080000000  0.4808760000000 1.0
C      1  0.5357100000000  0.5558280000000  0.5041830000000 1.0
C      1  0.5435130000000  0.5515920000000  0.4545820000000 1.0
C      1  0.4717180000000  0.5816870000000  0.5242380000000 1.0
C      1  0.4871540000000  0.5190450000000  0.4804760000000 1.0
C      1  0.5656600000000  0.5583940000000  0.5061600000000 1.0
C      1  0.4342950000000  0.5349960000000  0.4630740000000 1.0
C      1  0.4951600000000  0.4685360000000  0.4894060000000 1.0
C      1  0.4590560000000  0.5291140000000  0.5268040000000 1.0
C      1  0.4778100000000  0.4868220000000  0.4725470000000 1.0
C      1  0.5665960000000  0.5007390000000  0.4999200000000 1.0
C      1  0.4799310000000  0.4470710000000  0.4398770000000 1.0
C      1  0.5302020000000  0.5239580000000  0.4513660000000 1.0
C      1  0.5304950000000  0.5251410000000  0.5041840000000 1.0
C      1  0.5431260000000  0.4522300000000  0.4661200000000 1.0
C      1  0.4911740000000  0.5515010000000  0.5599680000000 1.0
C      1  0.5330280000000  0.5661440000000  0.4768450000000 1.0
C      1  0.5213210000000  0.4862460000000  0.5692250000000 1.0
C      1  0.5744880000000  0.5411530000000  0.5284140000000 1.0
C      1  0.4950600000000  0.4923850000000  0.5559250000000 1.0
C      1  0.4284940000000  0.4819310000000  0.4564910000000 1.0
C      1  0.4304800000000  0.5300730000000  0.4907230000000 1.0
C      1  0.4548410000000  0.5728360000000  0.5038880000000 1.0
C      1  0.4832350000000  0.5494520000000  0.4384940000000 1.0
C      1  0.4647250000000  0.4859490000000  0.4238300000000 1.0
C      1  0.5093030000000  0.5198570000000  0.5241670000000 1.0
C      1  0.5539140000000  0.4258420000000  0.5047770000000 1.0
C      1  0.5522140000000  0.5028670000000  0.4524450000000 1.0
C      1  0.4919440000000  0.4714860000000  0.5166100000000 1.0
C      1  0.4937320000000  0.5759120000000  0.5407620000000 1.0
C      1  0.5208030000000  0.5705160000000  0.5274230000000 1.0
C      1  0.5476110000000  0.4502840000000  0.5473540000000 1.0
C      1  0.4673110000000  0.5664810000000  0.4800140000000 1.0
C      1  0.4408680000000  0.4972210000000  0.4335370000000 1.0
C      1  0.5228120000000  0.4329700000000  0.4690490000000 1.0
C      1  0.5673920000000  0.5458140000000  0.4746160000000 1.0
C      1  0.5011420000000  0.4430490000000  0.5548610000000 1.0
C      1  0.4660130000000  0.5349340000000  0.5563480000000 1.0
C      1  0.4454850000000  0.4439860000000  0.5297130000000 1.0
C      1  0.4773060000000  0.5447130000000  0.4657880000000 1.0
C      1  0.4860930000000  0.4665590000000  0.5440360000000 1.0
C      1  0.5423800000000  0.5304740000000  0.5598760000000 1.0
C      1  0.4471170000000  0.5243910000000  0.4405230000000 1.0
C      1  0.4515440000000  0.4398220000000  0.4790060000000 1.0
C      1  0.5625920000000  0.5160620000000  0.5229630000000 1.0
C      1  0.5106980000000  0.5123120000000  0.4298820000000 1.0
C      1  0.4755190000000  0.4337640000000  0.4634680000000 1.0
C      1  0.4345490000000  0.4999940000000  0.5295760000000 1.0
C      1  0.4572720000000  0.4614920000000  0.5482510000000 1.0
C      1  0.4362820000000  0.5029450000000  0.5005280000000 1.0
C      1  0.5167760000000  0.5389180000000  0.5456400000000 1.0
C      1  0.5610060000000  0.4742180000000  0.5082780000000 1.0
C      1  0.5599970000000  0.4744250000000  0.5375730000000 1.0
C      1  0.4401630000000  0.5487900000000  0.5124690000000 1.0
C      1  0.5120080000000  0.4833190000000  0.4360230000000 1.0
C      1  0.4840680000000  0.5237120000000  0.5103550000000 1.0
C      1  0.5688730000000  0.5145670000000  0.4743290000000 1.0
C      1  0.4974370000000  0.4390450000000  0.4821980000000 1.0
C      1  0.5350260000000  0.4784320000000  0.4549690000000 1.0
C      1  0.4577970000000  0.4312870000000  0.5078210000000 1.0
C      1  0.4697830000000  0.5061750000000  0.5653640000000 1.0
C      1  0.4308020000000  0.4527480000000  0.4622540000000 1.0
C      1  0.5166410000000  0.5192180000000  0.4780130000000 1.0
C      1  0.4836930000000  0.4754030000000  0.4425880000000 1.0
C      1  0.5649780000000  0.5471740000000  0.5543210000000 1.0
C      1  0.5586600000000  0.4504380000000  0.4911630000000 1.0
C      1  0.5367990000000  0.4336560000000  0.5258870000000 1.0
C      1  0.5256000000000  0.4562310000000  0.5665120000000 1.0
END
