TITL C-950529-3362-374 -3.73096649115739e-06 125000 -699.434070175052 0 0 112 (C1) n - 1
REM
REM in /home/bkarasulu/work/CARBON/AIRSS/Generating-Clusters/EDIP-Nigel-Params/with-SteepDescent/Only-C1/SD-CG/HFTN-CG
REM
REM
REM
REM
REM
REM ./C.cell (11c1c37f851c82e70ff6c80c92926a4b)
REM
REM compiler GCC version 9.2.1 20190827 (Red Hat 9.2.1-1)
REM options -cpp -mtune=generic -march=x86-64 -g -O0 -fpre-include=/usr/include/finclude/math-vector-fortran.h
REM seed -773154483 -647036232 1380760298 -130249559 -1214652508 989096556 -56014044 19092173 -1795171868 1527739288 902274569 2136778213 845640294 799072601 1871256830 907523193 2102785715 -1292608815 -360620852 1194518125 1813902332 -79561014 -113279239 1781484855 -125479798 536471940 -131752700 -703328513 1420591757 625675126 1132595331 221611951 -259725479
REM
CELL 1.54180   50.00000   50.00000   50.00000   90.00000   90.00000   90.00000
LATT -1
SFAC C  
C      1  0.4098070000000  0.4931460000000  0.4815490000000 1.0
C      1  0.4192760000000  0.5334800000000  0.5084090000000 1.0
C      1  0.5007490000000  0.4499770000000  0.5596230000000 1.0
C      1  0.4278440000000  0.5330580000000  0.5369390000000 1.0
C      1  0.5512040000000  0.4296010000000  0.5519240000000 1.0
C      1  0.5263830000000  0.5713630000000  0.5531120000000 1.0
C      1  0.5707580000000  0.5437430000000  0.5427830000000 1.0
C      1  0.5545980000000  0.4996680000000  0.5228260000000 1.0
C      1  0.4984100000000  0.5319460000000  0.5839270000000 1.0
C      1  0.5924670000000  0.4776830000000  0.5186690000000 1.0
C      1  0.5181170000000  0.4697680000000  0.4181380000000 1.0
C      1  0.4872920000000  0.5465070000000  0.5013160000000 1.0
C      1  0.5598090000000  0.4566800000000  0.4834030000000 1.0
C      1  0.5469900000000  0.4490890000000  0.5758610000000 1.0
C      1  0.5900320000000  0.4534900000000  0.5327180000000 1.0
C      1  0.4932130000000  0.5889040000000  0.4735520000000 1.0
C      1  0.5610600000000  0.4938070000000  0.4354190000000 1.0
C      1  0.5187320000000  0.4858830000000  0.4614330000000 1.0
C      1  0.5445630000000  0.4747280000000  0.5381810000000 1.0
C      1  0.5564320000000  0.5093090000000  0.4127890000000 1.0
C      1  0.4413350000000  0.4414940000000  0.4539120000000 1.0
C      1  0.4803360000000  0.4313380000000  0.4725300000000 1.0
C      1  0.5386640000000  0.5875840000000  0.5027690000000 1.0
C      1  0.5202170000000  0.4141700000000  0.4792250000000 1.0
C      1  0.4800870000000  0.4136820000000  0.5311970000000 1.0
C      1  0.5279350000000  0.4260740000000  0.5075860000000 1.0
C      1  0.4676150000000  0.5073080000000  0.5344500000000 1.0
C      1  0.5106750000000  0.5695960000000  0.4265570000000 1.0
C      1  0.4782090000000  0.4738770000000  0.4837270000000 1.0
C      1  0.5279410000000  0.4147670000000  0.5378230000000 1.0
C      1  0.5336520000000  0.4973290000000  0.5822210000000 1.0
C      1  0.4710030000000  0.4807170000000  0.4564220000000 1.0
C      1  0.5240590000000  0.4328460000000  0.4548900000000 1.0
C      1  0.4146300000000  0.5072970000000  0.4560830000000 1.0
C      1  0.5265130000000  0.5095480000000  0.5010130000000 1.0
C      1  0.5038350000000  0.4604710000000  0.4822300000000 1.0
C      1  0.5081550000000  0.4493800000000  0.5104180000000 1.0
C      1  0.4006730000000  0.4973470000000  0.5296040000000 1.0
C      1  0.5069750000000  0.5879940000000  0.4482540000000 1.0
C      1  0.4635860000000  0.5298450000000  0.5115630000000 1.0
C      1  0.5657630000000  0.5407230000000  0.4546240000000 1.0
C      1  0.4318830000000  0.5467470000000  0.4860040000000 1.0
C      1  0.5883740000000  0.5281160000000  0.5253000000000 1.0
C      1  0.4364230000000  0.4576550000000  0.5020800000000 1.0
C      1  0.4550540000000  0.5469170000000  0.5608890000000 1.0
C      1  0.5783450000000  0.5277030000000  0.4978950000000 1.0
C      1  0.4508460000000  0.4709790000000  0.5540690000000 1.0
C      1  0.5384870000000  0.4745990000000  0.4409590000000 1.0
C      1  0.4952400000000  0.4934070000000  0.5284540000000 1.0
C      1  0.5188780000000  0.4509830000000  0.5839420000000 1.0
C      1  0.4394690000000  0.5126790000000  0.4181920000000 1.0
C      1  0.4280810000000  0.4916120000000  0.4338100000000 1.0
C      1  0.4370920000000  0.4870360000000  0.4928440000000 1.0
C      1  0.4823560000000  0.5539830000000  0.5727260000000 1.0
C      1  0.5291360000000  0.5402510000000  0.5121780000000 1.0
C      1  0.5515330000000  0.4782390000000  0.5674340000000 1.0
C      1  0.4585260000000  0.5162540000000  0.5629010000000 1.0
C      1  0.5014250000000  0.5371230000000  0.4774660000000 1.0
C      1  0.5911150000000  0.5012130000000  0.5347810000000 1.0
C      1  0.4743100000000  0.4627150000000  0.5701650000000 1.0
C      1  0.4435840000000  0.5361790000000  0.4340220000000 1.0
C      1  0.5220650000000  0.5565580000000  0.4658930000000 1.0
C      1  0.4932200000000  0.4993650000000  0.4990680000000 1.0
C      1  0.5390210000000  0.5847880000000  0.5312110000000 1.0
C      1  0.5418510000000  0.5502550000000  0.5677160000000 1.0
C      1  0.4790030000000  0.5106910000000  0.5829320000000 1.0
C      1  0.5359290000000  0.5270130000000  0.4206800000000 1.0
C      1  0.4007800000000  0.5110180000000  0.5037610000000 1.0
C      1  0.5412730000000  0.5600050000000  0.4905450000000 1.0
C      1  0.4874690000000  0.3979330000000  0.5092240000000 1.0
C      1  0.5013940000000  0.4202260000000  0.5505170000000 1.0
C      1  0.5085720000000  0.5226290000000  0.4116790000000 1.0
C      1  0.5785410000000  0.4783020000000  0.4929530000000 1.0
C      1  0.4306290000000  0.4908710000000  0.5656390000000 1.0
C      1  0.4716020000000  0.5430940000000  0.4404290000000 1.0
C      1  0.4490660000000  0.5684940000000  0.4961230000000 1.0
C      1  0.5017440000000  0.5681770000000  0.5164820000000 1.0
C      1  0.5456950000000  0.5279420000000  0.5361540000000 1.0
C      1  0.4489800000000  0.4684370000000  0.4399170000000 1.0
C      1  0.5091900000000  0.5914240000000  0.4984160000000 1.0
C      1  0.4655370000000  0.4256090000000  0.4461120000000 1.0
C      1  0.4490070000000  0.4541560000000  0.5289540000000 1.0
C      1  0.5069440000000  0.4444930000000  0.4308600000000 1.0
C      1  0.4857240000000  0.4830650000000  0.5883920000000 1.0
C      1  0.5472320000000  0.4509410000000  0.4570510000000 1.0
C      1  0.4295480000000  0.5325500000000  0.4597210000000 1.0
C      1  0.4981980000000  0.4942800000000  0.4173230000000 1.0
C      1  0.5544510000000  0.4382330000000  0.5045570000000 1.0
C      1  0.4599890000000  0.5129570000000  0.4845430000000 1.0
C      1  0.5613320000000  0.4486860000000  0.5311240000000 1.0
C      1  0.4937030000000  0.4973160000000  0.4472330000000 1.0
C      1  0.4807880000000  0.5804190000000  0.5342170000000 1.0
C      1  0.4382080000000  0.4964900000000  0.5221570000000 1.0
C      1  0.5339590000000  0.5076670000000  0.4727410000000 1.0
C      1  0.4658280000000  0.5829770000000  0.4784120000000 1.0
C      1  0.5689960000000  0.5512440000000  0.4824690000000 1.0
C      1  0.5812630000000  0.5042180000000  0.4804130000000 1.0
C      1  0.5140430000000  0.4781830000000  0.5947450000000 1.0
C      1  0.4926080000000  0.4056650000000  0.4826710000000 1.0
C      1  0.5256600000000  0.5259050000000  0.5752620000000 1.0
C      1  0.4920570000000  0.5477820000000  0.4189760000000 1.0
C      1  0.4557280000000  0.5650300000000  0.5266590000000 1.0
C      1  0.5410820000000  0.5496860000000  0.4399780000000 1.0
C      1  0.5124620000000  0.4684250000000  0.5348110000000 1.0
C      1  0.4615110000000  0.4599190000000  0.4144410000000 1.0
C      1  0.5611630000000  0.5110970000000  0.4598730000000 1.0
C      1  0.4123050000000  0.5112210000000  0.5526550000000 1.0
C      1  0.4821810000000  0.5234530000000  0.4604950000000 1.0
C      1  0.4442050000000  0.4380800000000  0.4828350000000 1.0
C      1  0.4729160000000  0.4395550000000  0.5224840000000 1.0
C      1  0.4786460000000  0.4387860000000  0.4236560000000 1.0
C      1  0.4969490000000  0.5750840000000  0.5590620000000 1.0
END
