TITL C-951347-9520-35 -9.94078774391579e-08 125000 -282.940007582498 0 0 47 (C1) n - 1
REM
REM in /home/bkarasulu/work/CARBON/AIRSS/Generating-Clusters/EDIP-Nigel-Params/with-SteepDescent/Only-C1/SD-CG/HFTN-CG
REM
REM
REM
REM
REM
REM ./C.cell (11c1c37f851c82e70ff6c80c92926a4b)
REM
REM compiler GCC version 9.2.1 20190827 (Red Hat 9.2.1-1)
REM options -cpp -mtune=generic -march=x86-64 -g -O0 -fpre-include=/usr/include/finclude/math-vector-fortran.h
REM seed -149865189 -2024236238 -1029514226 -1632066461 -2121562290 -411373917 870005243 488992812 2077640091 -1159034182 -185777511 422008799 694609976 -1294336757 730330662 1946441817 106915559 -1433495235 -585881949 -646051815 900805289 2094369956 -1567273036 1753946011 1522617638 604155209 -1071965391 -1417964024 1194974197 666389809 -762625057 -1980416973 1576152127
REM
CELL 1.54180   50.00000   50.00000   50.00000   90.00000   90.00000   90.00000
LATT -1
SFAC C  
C      1  0.5541710000000  0.5054160000000  0.4576580000000 1.0
C      1  0.5108250000000  0.4869110000000  0.5173570000000 1.0
C      1  0.5605710000000  0.4859240000000  0.5039870000000 1.0
C      1  0.4313290000000  0.4735350000000  0.4838030000000 1.0
C      1  0.4709200000000  0.4542840000000  0.4683280000000 1.0
C      1  0.4608790000000  0.5565050000000  0.5013490000000 1.0
C      1  0.5563630000000  0.4617410000000  0.4876410000000 1.0
C      1  0.4941140000000  0.4386880000000  0.4664640000000 1.0
C      1  0.4823720000000  0.4963880000000  0.5112770000000 1.0
C      1  0.5326180000000  0.5276820000000  0.4944780000000 1.0
C      1  0.4544690000000  0.4430580000000  0.5134230000000 1.0
C      1  0.5128860000000  0.4653230000000  0.5434120000000 1.0
C      1  0.5384280000000  0.5042010000000  0.5136240000000 1.0
C      1  0.4821890000000  0.5160890000000  0.4905950000000 1.0
C      1  0.4619650000000  0.5266150000000  0.4512930000000 1.0
C      1  0.4840920000000  0.4634860000000  0.5524450000000 1.0
C      1  0.5510100000000  0.5422030000000  0.5437820000000 1.0
C      1  0.4620080000000  0.5353410000000  0.5333940000000 1.0
C      1  0.5344350000000  0.5484100000000  0.4509540000000 1.0
C      1  0.4497290000000  0.4529500000000  0.4879370000000 1.0
C      1  0.5472690000000  0.5145630000000  0.5412670000000 1.0
C      1  0.4552220000000  0.5280850000000  0.4957420000000 1.0
C      1  0.4617160000000  0.5040460000000  0.5322240000000 1.0
C      1  0.4283370000000  0.4974990000000  0.4717390000000 1.0
C      1  0.5201480000000  0.4418200000000  0.4585670000000 1.0
C      1  0.4391820000000  0.5232380000000  0.4704640000000 1.0
C      1  0.5277870000000  0.5035800000000  0.5603610000000 1.0
C      1  0.5295240000000  0.4645540000000  0.4742970000000 1.0
C      1  0.5002750000000  0.5116680000000  0.5527020000000 1.0
C      1  0.5124610000000  0.5346440000000  0.4417940000000 1.0
C      1  0.4767620000000  0.5507700000000  0.4566110000000 1.0
C      1  0.4703390000000  0.4785140000000  0.4551950000000 1.0
C      1  0.4772890000000  0.4925530000000  0.5555810000000 1.0
C      1  0.5070550000000  0.5076190000000  0.4485370000000 1.0
C      1  0.5125630000000  0.4625810000000  0.4990620000000 1.0
C      1  0.4659290000000  0.4488670000000  0.5369280000000 1.0
C      1  0.5294700000000  0.4913320000000  0.4587170000000 1.0
C      1  0.4896530000000  0.5386520000000  0.5447040000000 1.0
C      1  0.5470660000000  0.5305970000000  0.4690450000000 1.0
C      1  0.5317510000000  0.5595020000000  0.5367930000000 1.0
C      1  0.5527080000000  0.4493400000000  0.5138260000000 1.0
C      1  0.5309470000000  0.4757480000000  0.5637950000000 1.0
C      1  0.5063990000000  0.5539520000000  0.5263240000000 1.0
C      1  0.4838140000000  0.5598090000000  0.4829250000000 1.0
C      1  0.4806870000000  0.5047660000000  0.4605980000000 1.0
C      1  0.5052060000000  0.5418170000000  0.4980250000000 1.0
C      1  0.5250690000000  0.4451350000000  0.5209760000000 1.0
END
