TITL C-950523-3027-450 -2.16377034572949e-06 125000 -298.105068641349 0 0 50 (C1) n - 1
REM
REM in /home/bkarasulu/work/CARBON/AIRSS/Generating-Clusters/EDIP-Nigel-Params/with-SteepDescent/Only-C1/SD-CG/HFTN-CG
REM
REM
REM
REM
REM
REM ./C.cell (11c1c37f851c82e70ff6c80c92926a4b)
REM
REM compiler GCC version 9.2.1 20190827 (Red Hat 9.2.1-1)
REM options -cpp -mtune=generic -march=x86-64 -g -O0 -fpre-include=/usr/include/finclude/math-vector-fortran.h
REM seed -2038903619 -508833085 1722528734 -837830928 461560483 1495495344 711920025 -315556960 -1565342695 2103407383 -1501532395 1171669850 -26173443 -385918937 -239332624 2145746806 1655861983 -820014230 -1311674590 704798924 1071061908 -888442719 -804278658 498499028 -821809688 380432469 1417885678 1333874211 430718583 -1894701408 -1062352115 1763889252 -1187865633
REM
CELL 1.54180   50.00000   50.00000   50.00000   90.00000   90.00000   90.00000
LATT -1
SFAC C  
C      1  0.5311840000000  0.5597130000000  0.5261540000000 1.0
C      1  0.4952310000000  0.4929160000000  0.4931890000000 1.0
C      1  0.4650100000000  0.4498940000000  0.5015310000000 1.0
C      1  0.4322040000000  0.5198950000000  0.4820950000000 1.0
C      1  0.5306680000000  0.4917180000000  0.4283730000000 1.0
C      1  0.4608030000000  0.4867550000000  0.5495510000000 1.0
C      1  0.4690770000000  0.4861210000000  0.4361860000000 1.0
C      1  0.4485370000000  0.4818850000000  0.4543970000000 1.0
C      1  0.5178180000000  0.4693830000000  0.4394360000000 1.0
C      1  0.5333200000000  0.5655360000000  0.4984100000000 1.0
C      1  0.5414670000000  0.5111730000000  0.4452230000000 1.0
C      1  0.4853500000000  0.4445140000000  0.4825340000000 1.0
C      1  0.4902720000000  0.4682230000000  0.4357140000000 1.0
C      1  0.4708740000000  0.4359770000000  0.5259970000000 1.0
C      1  0.5033550000000  0.5431870000000  0.4630440000000 1.0
C      1  0.5511260000000  0.4975740000000  0.4685480000000 1.0
C      1  0.4387290000000  0.5332260000000  0.5112950000000 1.0
C      1  0.5095060000000  0.4333390000000  0.5291850000000 1.0
C      1  0.5530340000000  0.5452030000000  0.5377960000000 1.0
C      1  0.5394350000000  0.4702020000000  0.4997010000000 1.0
C      1  0.4380530000000  0.5158850000000  0.5362850000000 1.0
C      1  0.4776010000000  0.5303450000000  0.4566490000000 1.0
C      1  0.5178570000000  0.4881230000000  0.5089110000000 1.0
C      1  0.4811090000000  0.5068380000000  0.5412830000000 1.0
C      1  0.5526050000000  0.5189700000000  0.5245700000000 1.0
C      1  0.5082670000000  0.4500230000000  0.5548940000000 1.0
C      1  0.4684580000000  0.5349620000000  0.4996360000000 1.0
C      1  0.5079300000000  0.5590860000000  0.4872510000000 1.0
C      1  0.4693150000000  0.5315730000000  0.5520740000000 1.0
C      1  0.4505690000000  0.4763690000000  0.5032450000000 1.0
C      1  0.5103910000000  0.5029650000000  0.5502430000000 1.0
C      1  0.5233960000000  0.5118680000000  0.5248770000000 1.0
C      1  0.4791870000000  0.5093280000000  0.5103560000000 1.0
C      1  0.5171520000000  0.4763730000000  0.5560790000000 1.0
C      1  0.4509180000000  0.5369440000000  0.4655360000000 1.0
C      1  0.4873560000000  0.5568770000000  0.5073900000000 1.0
C      1  0.5258990000000  0.5339040000000  0.4495180000000 1.0
C      1  0.5677830000000  0.4790560000000  0.5114180000000 1.0
C      1  0.4880790000000  0.5520680000000  0.5550370000000 1.0
C      1  0.4796650000000  0.4469250000000  0.5507180000000 1.0
C      1  0.5616100000000  0.5222610000000  0.4963910000000 1.0
C      1  0.4770850000000  0.5126710000000  0.4351520000000 1.0
C      1  0.5278810000000  0.4407790000000  0.5063260000000 1.0
C      1  0.5032080000000  0.5511230000000  0.5311730000000 1.0
C      1  0.5282770000000  0.4597360000000  0.4644020000000 1.0
C      1  0.5728240000000  0.4968910000000  0.4880050000000 1.0
C      1  0.4399640000000  0.4850520000000  0.5295620000000 1.0
C      1  0.5680280000000  0.4959300000000  0.5348910000000 1.0
C      1  0.4391400000000  0.4900870000000  0.4795430000000 1.0
C      1  0.5133910000000  0.4405540000000  0.4802280000000 1.0
END
