TITL C-950534-5965-541 9.38133375544556e-07 125000 -232.221288651651 0 0 40 (C1) n - 1
REM
REM in /home/bkarasulu/work/CARBON/AIRSS/Generating-Clusters/EDIP-Nigel-Params/with-SteepDescent/Only-C1/SD-CG/HFTN-CG
REM
REM
REM
REM
REM
REM ./C.cell (11c1c37f851c82e70ff6c80c92926a4b)
REM
REM compiler GCC version 9.2.1 20190827 (Red Hat 9.2.1-1)
REM options -cpp -mtune=generic -march=x86-64 -g -O0 -fpre-include=/usr/include/finclude/math-vector-fortran.h
REM seed -959578212 70398121 -407138198 -2137746663 2113230804 -709127982 -281342521 -1328300061 737782480 -2115521474 -745482873 -1857223719 1102809963 -960855437 -368049121 1420045731 -1110030818 1464031332 -574557556 1771715669 233626277 -1882376424 -480140286 1528174578 -306012918 -123306108 1268285908 944574767 2056628302 309837871 1005802591 1114892297 -2111443108
REM
CELL 1.54180   50.00000   50.00000   50.00000   90.00000   90.00000   90.00000
LATT -1
SFAC C  
C      1  0.5278570000000  0.5417520000000  0.5383330000000 1.0
C      1  0.5475770000000  0.4907240000000  0.5120840000000 1.0
C      1  0.5121040000000  0.4675690000000  0.5557440000000 1.0
C      1  0.4589450000000  0.5385500000000  0.4719780000000 1.0
C      1  0.5185360000000  0.4863320000000  0.5221270000000 1.0
C      1  0.4491460000000  0.4855320000000  0.5654710000000 1.0
C      1  0.4638340000000  0.5023860000000  0.5528660000000 1.0
C      1  0.4845380000000  0.5447700000000  0.5471220000000 1.0
C      1  0.4655710000000  0.4467730000000  0.5016820000000 1.0
C      1  0.4728090000000  0.5189730000000  0.4581010000000 1.0
C      1  0.4954600000000  0.4609870000000  0.4669710000000 1.0
C      1  0.4953520000000  0.5089110000000  0.5148260000000 1.0
C      1  0.4463830000000  0.4871710000000  0.4785010000000 1.0
C      1  0.5312710000000  0.5042610000000  0.4685930000000 1.0
C      1  0.4584110000000  0.4949450000000  0.4513940000000 1.0
C      1  0.4919330000000  0.4481200000000  0.4925530000000 1.0
C      1  0.5260720000000  0.4923460000000  0.4421560000000 1.0
C      1  0.5498670000000  0.4875450000000  0.4832180000000 1.0
C      1  0.5446720000000  0.4596080000000  0.4739010000000 1.0
C      1  0.4502510000000  0.4564940000000  0.4801840000000 1.0
C      1  0.4922760000000  0.5677470000000  0.5354070000000 1.0
C      1  0.4481230000000  0.5409510000000  0.4969920000000 1.0
C      1  0.5115300000000  0.5340480000000  0.5032210000000 1.0
C      1  0.4843950000000  0.5174050000000  0.5418980000000 1.0
C      1  0.5242970000000  0.5316960000000  0.4755290000000 1.0
C      1  0.5116730000000  0.5445110000000  0.4535890000000 1.0
C      1  0.5057490000000  0.5051270000000  0.4272550000000 1.0
C      1  0.5066340000000  0.5616830000000  0.5126270000000 1.0
C      1  0.4938240000000  0.5269960000000  0.4403970000000 1.0
C      1  0.5383980000000  0.4432930000000  0.4961740000000 1.0
C      1  0.5620920000000  0.5121820000000  0.5226050000000 1.0
C      1  0.5554670000000  0.5337280000000  0.5381030000000 1.0
C      1  0.4682970000000  0.4645770000000  0.4551150000000 1.0
C      1  0.5265400000000  0.4920700000000  0.5512410000000 1.0
C      1  0.5254070000000  0.5202090000000  0.5584080000000 1.0
C      1  0.5115510000000  0.4469900000000  0.5373570000000 1.0
C      1  0.4634020000000  0.5050400000000  0.4990950000000 1.0
C      1  0.4435490000000  0.5200550000000  0.5143330000000 1.0
C      1  0.5220550000000  0.4637210000000  0.4530840000000 1.0
C      1  0.5141500000000  0.4442220000000  0.5097650000000 1.0
END
