TITL C-951334-9093-160 -6.20976422417601e-07 125000 -212.59811552356 0 0 36 (C1) n - 1
REM
REM in /home/bkarasulu/work/CARBON/AIRSS/Generating-Clusters/EDIP-Nigel-Params/with-SteepDescent/Only-C1/SD-CG/HFTN-CG
REM
REM
REM
REM
REM
REM ./C.cell (11c1c37f851c82e70ff6c80c92926a4b)
REM
REM compiler GCC version 9.2.1 20190827 (Red Hat 9.2.1-1)
REM options -cpp -mtune=generic -march=x86-64 -g -O0 -fpre-include=/usr/include/finclude/math-vector-fortran.h
REM seed -1003673224 1791753550 1790310367 269337535 823956828 -1703347873 422040715 437174680 -587112891 1303867250 -347291677 -779212647 -754336739 -1455728770 1328657442 1533274742 -1003897119 -2065307226 855306216 -1508592521 -2145774896 -981846634 147525709 1174260202 -368620621 -1084515882 1859032505 -1081818978 738549623 1473861180 481239465 -1128049243 -765727627
REM
CELL 1.54180   50.00000   50.00000   50.00000   90.00000   90.00000   90.00000
LATT -1
SFAC C  
C      1  0.4619410000000  0.5411660000000  0.5112890000000 1.0
C      1  0.5078460000000  0.4876930000000  0.5585030000000 1.0
C      1  0.5038020000000  0.4401850000000  0.4791740000000 1.0
C      1  0.4765990000000  0.4887110000000  0.5580150000000 1.0
C      1  0.5367650000000  0.4715420000000  0.4919860000000 1.0
C      1  0.5411350000000  0.4722990000000  0.5226660000000 1.0
C      1  0.4983480000000  0.4949430000000  0.5080130000000 1.0
C      1  0.5317480000000  0.4444030000000  0.4832100000000 1.0
C      1  0.4658920000000  0.5272710000000  0.4471920000000 1.0
C      1  0.4780640000000  0.5520750000000  0.4889580000000 1.0
C      1  0.5024820000000  0.5292380000000  0.5250690000000 1.0
C      1  0.4947730000000  0.4500940000000  0.4538820000000 1.0
C      1  0.5181500000000  0.4633100000000  0.5400250000000 1.0
C      1  0.5189740000000  0.5074520000000  0.5383570000000 1.0
C      1  0.4760340000000  0.5364460000000  0.5364310000000 1.0
C      1  0.5460530000000  0.5010070000000  0.5274000000000 1.0
C      1  0.4600820000000  0.5030580000000  0.4376060000000 1.0
C      1  0.4844760000000  0.5337570000000  0.4668360000000 1.0
C      1  0.4694840000000  0.4675140000000  0.5381760000000 1.0
C      1  0.4502960000000  0.5049540000000  0.5185740000000 1.0
C      1  0.4705950000000  0.4799290000000  0.4477320000000 1.0
C      1  0.4942460000000  0.4671360000000  0.5213440000000 1.0
C      1  0.5042450000000  0.5661470000000  0.4961720000000 1.0
C      1  0.4496380000000  0.4754420000000  0.5172380000000 1.0
C      1  0.5548670000000  0.5140250000000  0.5015950000000 1.0
C      1  0.5293670000000  0.5130440000000  0.4721320000000 1.0
C      1  0.5131050000000  0.4893910000000  0.4818890000000 1.0
C      1  0.4610850000000  0.5124410000000  0.5450340000000 1.0
C      1  0.4842220000000  0.4487470000000  0.5002630000000 1.0
C      1  0.5588380000000  0.4902010000000  0.4812670000000 1.0
C      1  0.5198030000000  0.5521600000000  0.5181620000000 1.0
C      1  0.4976490000000  0.4783800000000  0.4572340000000 1.0
C      1  0.5257580000000  0.5571820000000  0.4748930000000 1.0
C      1  0.5131510000000  0.5350510000000  0.4597490000000 1.0
C      1  0.5430010000000  0.5448920000000  0.4991650000000 1.0
C      1  0.4574860000000  0.4587150000000  0.4947710000000 1.0
END
