TITL C-950523-3027-579 -4.80283702790496e-06 125000 -1206.11055209417 0 0 193 (C1) n - 1
REM
REM in /home/bkarasulu/work/CARBON/AIRSS/Generating-Clusters/EDIP-Nigel-Params/with-SteepDescent/Only-C1/SD-CG/HFTN-CG
REM
REM
REM
REM
REM
REM ./C.cell (11c1c37f851c82e70ff6c80c92926a4b)
REM
REM compiler GCC version 9.2.1 20190827 (Red Hat 9.2.1-1)
REM options -cpp -mtune=generic -march=x86-64 -g -O0 -fpre-include=/usr/include/finclude/math-vector-fortran.h
REM seed 1072568091 1759330229 789699388 -66216072 521704101 -627738866 -1265481606 714576906 -1406566933 1358830900 -523838777 481682119 -1188063449 280013731 -10999470 1226599839 -537073952 1806554792 958452652 377146781 -1732531897 613949995 1163133447 -270949550 -1388724504 -118924505 533289346 -774379970 1297508519 -672309931 749854481 -157230151 1347080745
REM
CELL 1.54180   50.00000   50.00000   50.00000   90.00000   90.00000   90.00000
LATT -1
SFAC C  
C      1  0.5376310000000  0.4534710000000  0.5808150000000 1.0
C      1  0.4087160000000  0.5385540000000  0.4982400000000 1.0
C      1  0.5007860000000  0.5648220000000  0.5379730000000 1.0
C      1  0.4290700000000  0.5801060000000  0.5441070000000 1.0
C      1  0.5416090000000  0.3976470000000  0.5147300000000 1.0
C      1  0.6108500000000  0.4983090000000  0.4701030000000 1.0
C      1  0.5515450000000  0.5599480000000  0.4951630000000 1.0
C      1  0.5086060000000  0.5650280000000  0.4752680000000 1.0
C      1  0.4267970000000  0.5465090000000  0.5789100000000 1.0
C      1  0.4494570000000  0.4817290000000  0.4508090000000 1.0
C      1  0.5959420000000  0.5283690000000  0.4890120000000 1.0
C      1  0.4914850000000  0.5123460000000  0.4290600000000 1.0
C      1  0.4765980000000  0.5898540000000  0.4333690000000 1.0
C      1  0.5250460000000  0.4261430000000  0.5811380000000 1.0
C      1  0.5229740000000  0.5738680000000  0.4191860000000 1.0
C      1  0.4450820000000  0.5677860000000  0.5873070000000 1.0
C      1  0.4188250000000  0.5527960000000  0.5501990000000 1.0
C      1  0.4491470000000  0.4013900000000  0.4400380000000 1.0
C      1  0.5956710000000  0.5193110000000  0.4298730000000 1.0
C      1  0.4136080000000  0.4973530000000  0.5548700000000 1.0
C      1  0.4612200000000  0.4442780000000  0.4795180000000 1.0
C      1  0.4392600000000  0.5554470000000  0.4406210000000 1.0
C      1  0.4497260000000  0.5783880000000  0.4582140000000 1.0
C      1  0.5496800000000  0.5936370000000  0.4673740000000 1.0
C      1  0.4577130000000  0.5800730000000  0.5625300000000 1.0
C      1  0.5826830000000  0.5787470000000  0.5022070000000 1.0
C      1  0.4334390000000  0.4592420000000  0.5171370000000 1.0
C      1  0.5205100000000  0.5462530000000  0.5821840000000 1.0
C      1  0.5000850000000  0.4754270000000  0.5902930000000 1.0
C      1  0.4512710000000  0.5156200000000  0.6110540000000 1.0
C      1  0.4819150000000  0.5534830000000  0.4009830000000 1.0
C      1  0.4946710000000  0.3991870000000  0.4594720000000 1.0
C      1  0.4512550000000  0.4730900000000  0.5868440000000 1.0
C      1  0.4623480000000  0.4917360000000  0.5650860000000 1.0
C      1  0.5058060000000  0.4817480000000  0.5061540000000 1.0
C      1  0.5619280000000  0.5967970000000  0.4935200000000 1.0
C      1  0.4816590000000  0.5954000000000  0.5748520000000 1.0
C      1  0.4662430000000  0.3983080000000  0.4627800000000 1.0
C      1  0.5535320000000  0.4221140000000  0.5227060000000 1.0
C      1  0.5499250000000  0.5565250000000  0.5846840000000 1.0
C      1  0.4137590000000  0.4985460000000  0.4239960000000 1.0
C      1  0.4249010000000  0.5814170000000  0.4782210000000 1.0
C      1  0.4118150000000  0.5471320000000  0.4484480000000 1.0
C      1  0.4753810000000  0.4303120000000  0.5828880000000 1.0
C      1  0.5073400000000  0.6112220000000  0.4848270000000 1.0
C      1  0.4144160000000  0.4043550000000  0.4773100000000 1.0
C      1  0.5285110000000  0.4817560000000  0.4036510000000 1.0
C      1  0.5020070000000  0.4040020000000  0.4891110000000 1.0
C      1  0.5587800000000  0.5747340000000  0.5392850000000 1.0
C      1  0.4591920000000  0.4835080000000  0.3991000000000 1.0
C      1  0.5252200000000  0.5197130000000  0.5967200000000 1.0
C      1  0.4399420000000  0.5625010000000  0.4122280000000 1.0
C      1  0.5140970000000  0.4203720000000  0.4479770000000 1.0
C      1  0.5547750000000  0.4968580000000  0.4029010000000 1.0
C      1  0.5401540000000  0.4076950000000  0.5645190000000 1.0
C      1  0.5117250000000  0.4526030000000  0.5151900000000 1.0
C      1  0.4754310000000  0.4703650000000  0.5441520000000 1.0
C      1  0.5913700000000  0.5407950000000  0.5351690000000 1.0
C      1  0.4013560000000  0.5207050000000  0.4397480000000 1.0
C      1  0.5329770000000  0.4618570000000  0.4644480000000 1.0
C      1  0.5481740000000  0.5252330000000  0.3992960000000 1.0
C      1  0.5452780000000  0.5485620000000  0.5370910000000 1.0
C      1  0.4474250000000  0.4822640000000  0.5045370000000 1.0
C      1  0.4332750000000  0.4539530000000  0.5728290000000 1.0
C      1  0.3957010000000  0.5102110000000  0.5346350000000 1.0
C      1  0.5499490000000  0.5080200000000  0.4877180000000 1.0
C      1  0.4779280000000  0.5038000000000  0.3871330000000 1.0
C      1  0.4050040000000  0.4623820000000  0.4601090000000 1.0
C      1  0.4211020000000  0.5026100000000  0.4666190000000 1.0
C      1  0.5108080000000  0.5305930000000  0.5066500000000 1.0
C      1  0.4742870000000  0.5571270000000  0.5500960000000 1.0
C      1  0.5549080000000  0.5003240000000  0.5355390000000 1.0
C      1  0.4826170000000  0.5438620000000  0.5763500000000 1.0
C      1  0.4004430000000  0.4246960000000  0.4913750000000 1.0
C      1  0.4964810000000  0.4358520000000  0.4913910000000 1.0
C      1  0.5100410000000  0.4435740000000  0.4661690000000 1.0
C      1  0.5539840000000  0.4574280000000  0.4881910000000 1.0
C      1  0.4666800000000  0.5318560000000  0.3885440000000 1.0
C      1  0.4228240000000  0.4124240000000  0.4491530000000 1.0
C      1  0.5708300000000  0.4170000000000  0.4628090000000 1.0
C      1  0.5193370000000  0.5924220000000  0.4649840000000 1.0
C      1  0.4605290000000  0.3832820000000  0.5520820000000 1.0
C      1  0.4324430000000  0.3915110000000  0.4964330000000 1.0
C      1  0.5656820000000  0.5315290000000  0.4972430000000 1.0
C      1  0.5864690000000  0.4711310000000  0.4342160000000 1.0
C      1  0.4821670000000  0.3895990000000  0.5064300000000 1.0
C      1  0.5701510000000  0.4477560000000  0.4246790000000 1.0
C      1  0.5614150000000  0.4511740000000  0.5633680000000 1.0
C      1  0.4391640000000  0.5339430000000  0.4981590000000 1.0
C      1  0.4962870000000  0.4896030000000  0.4463880000000 1.0
C      1  0.4056550000000  0.5591120000000  0.4751140000000 1.0
C      1  0.3908360000000  0.4667110000000  0.5094050000000 1.0
C      1  0.5278550000000  0.4945520000000  0.5511960000000 1.0
C      1  0.4449800000000  0.4957640000000  0.4241260000000 1.0
C      1  0.5026640000000  0.5930500000000  0.5527850000000 1.0
C      1  0.3969440000000  0.4948910000000  0.5098350000000 1.0
C      1  0.5871710000000  0.5709240000000  0.5300230000000 1.0
C      1  0.5554710000000  0.5820250000000  0.5690740000000 1.0
C      1  0.5542390000000  0.5339850000000  0.4268390000000 1.0
C      1  0.5766320000000  0.4826460000000  0.5212060000000 1.0
C      1  0.5782180000000  0.4699390000000  0.5793500000000 1.0
C      1  0.4478430000000  0.4269920000000  0.5711650000000 1.0
C      1  0.5435180000000  0.4061640000000  0.4642950000000 1.0
C      1  0.4810700000000  0.4345230000000  0.4106170000000 1.0
C      1  0.4019740000000  0.4728620000000  0.4322590000000 1.0
C      1  0.5964320000000  0.4290970000000  0.5324280000000 1.0
C      1  0.5405930000000  0.4475490000000  0.5128340000000 1.0
C      1  0.4854470000000  0.5123850000000  0.5717930000000 1.0
C      1  0.5777210000000  0.4961190000000  0.4231200000000 1.0
C      1  0.5777370000000  0.4364670000000  0.4849620000000 1.0
C      1  0.4545590000000  0.5811800000000  0.5184770000000 1.0
C      1  0.6102790000000  0.5023830000000  0.5555200000000 1.0
C      1  0.4723870000000  0.5176560000000  0.4734060000000 1.0
C      1  0.4502480000000  0.5085540000000  0.5187100000000 1.0
C      1  0.6107170000000  0.4991600000000  0.5257210000000 1.0
C      1  0.4551630000000  0.4505230000000  0.5345890000000 1.0
C      1  0.5794480000000  0.4238300000000  0.4370490000000 1.0
C      1  0.3989090000000  0.4533680000000  0.5335420000000 1.0
C      1  0.5092760000000  0.4327680000000  0.4197930000000 1.0
C      1  0.5200880000000  0.5426830000000  0.4568810000000 1.0
C      1  0.5796200000000  0.4206920000000  0.5107000000000 1.0
C      1  0.6026800000000  0.4563490000000  0.5304310000000 1.0
C      1  0.4708750000000  0.6057580000000  0.5142160000000 1.0
C      1  0.5385730000000  0.5566600000000  0.4382280000000 1.0
C      1  0.5672970000000  0.4835130000000  0.4927790000000 1.0
C      1  0.4657150000000  0.5567240000000  0.5017030000000 1.0
C      1  0.4740180000000  0.4900190000000  0.4654150000000 1.0
C      1  0.4129150000000  0.4671200000000  0.5549740000000 1.0
C      1  0.4947880000000  0.6115940000000  0.5306110000000 1.0
C      1  0.5855480000000  0.4940970000000  0.5664060000000 1.0
C      1  0.5859050000000  0.5656540000000  0.4449970000000 1.0
C      1  0.5593790000000  0.5708450000000  0.4535930000000 1.0
C      1  0.4778010000000  0.5124030000000  0.6149140000000 1.0
C      1  0.5631260000000  0.4231860000000  0.5520790000000 1.0
C      1  0.5014780000000  0.4531760000000  0.5473690000000 1.0
C      1  0.5025720000000  0.5014240000000  0.6051320000000 1.0
C      1  0.5331180000000  0.4523920000000  0.4130080000000 1.0
C      1  0.5044430000000  0.5055240000000  0.4022490000000 1.0
C      1  0.4437870000000  0.4058890000000  0.5493730000000 1.0
C      1  0.5220240000000  0.4895120000000  0.4586790000000 1.0
C      1  0.3929330000000  0.4511200000000  0.4845420000000 1.0
C      1  0.5098090000000  0.5564060000000  0.3983600000000 1.0
C      1  0.6108020000000  0.5209680000000  0.4540840000000 1.0
C      1  0.5689210000000  0.5322200000000  0.5817140000000 1.0
C      1  0.6094230000000  0.5268430000000  0.5150590000000 1.0
C      1  0.4758830000000  0.4581090000000  0.5953190000000 1.0
C      1  0.4500310000000  0.4155770000000  0.5207910000000 1.0
C      1  0.4372580000000  0.4353840000000  0.4984140000000 1.0
C      1  0.4868380000000  0.5841440000000  0.6004190000000 1.0
C      1  0.4413070000000  0.5355560000000  0.4008670000000 1.0
C      1  0.6022880000000  0.4536990000000  0.4812470000000 1.0
C      1  0.5176990000000  0.4702400000000  0.5664200000000 1.0
C      1  0.5179110000000  0.6128280000000  0.5132670000000 1.0
C      1  0.4023500000000  0.5388580000000  0.5294170000000 1.0
C      1  0.5204080000000  0.5293560000000  0.3925050000000 1.0
C      1  0.6133690000000  0.4658780000000  0.5057940000000 1.0
C      1  0.4712100000000  0.5603130000000  0.6000070000000 1.0
C      1  0.5820410000000  0.5443630000000  0.4264410000000 1.0
C      1  0.4283950000000  0.5873760000000  0.5063260000000 1.0
C      1  0.4622430000000  0.4154260000000  0.4192690000000 1.0
C      1  0.5195270000000  0.5591860000000  0.5037500000000 1.0
C      1  0.4590650000000  0.3870800000000  0.4883840000000 1.0
C      1  0.4416360000000  0.5068240000000  0.5489760000000 1.0
C      1  0.4441000000000  0.5241590000000  0.4685210000000 1.0
C      1  0.4847340000000  0.4942750000000  0.5251990000000 1.0
C      1  0.4601890000000  0.5219470000000  0.4311850000000 1.0
C      1  0.5583750000000  0.4809600000000  0.5981120000000 1.0
C      1  0.4751150000000  0.5737280000000  0.4773270000000 1.0
C      1  0.5459410000000  0.4532250000000  0.4393740000000 1.0
C      1  0.5056640000000  0.4022770000000  0.5491290000000 1.0
C      1  0.4002180000000  0.5117650000000  0.4871420000000 1.0
C      1  0.5381470000000  0.5155280000000  0.4574500000000 1.0
C      1  0.5306590000000  0.3965500000000  0.4894090000000 1.0
C      1  0.5410200000000  0.6071880000000  0.5309230000000 1.0
C      1  0.4501410000000  0.4522650000000  0.4516730000000 1.0
C      1  0.5187700000000  0.5431630000000  0.5501530000000 1.0
C      1  0.4998410000000  0.4270080000000  0.5648890000000 1.0
C      1  0.5521900000000  0.5092580000000  0.5918600000000 1.0
C      1  0.4830160000000  0.5293350000000  0.4987750000000 1.0
C      1  0.4712510000000  0.4721060000000  0.4896020000000 1.0
C      1  0.5045750000000  0.5125960000000  0.5466800000000 1.0
C      1  0.5976270000000  0.4744000000000  0.4616770000000 1.0
C      1  0.5319670000000  0.6020370000000  0.5595740000000 1.0
C      1  0.5060560000000  0.5923920000000  0.4362090000000 1.0
C      1  0.4828660000000  0.3902000000000  0.5359160000000 1.0
C      1  0.4709760000000  0.4581170000000  0.3999420000000 1.0
C      1  0.5271530000000  0.5050830000000  0.5084930000000 1.0
C      1  0.4304360000000  0.5245960000000  0.5963120000000 1.0
C      1  0.4792180000000  0.6031340000000  0.4864930000000 1.0
C      1  0.5961600000000  0.5315070000000  0.5645300000000 1.0
C      1  0.4664140000000  0.5759270000000  0.4098630000000 1.0
C      1  0.4232620000000  0.4430790000000  0.4432800000000 1.0
C      1  0.5639900000000  0.5290410000000  0.5274800000000 1.0
END
