TITL C-950532-2784-458 -1.92145892069508e-06 125000 -678.64793972194 0 0 110 (C1) n - 1
REM
REM in /home/bkarasulu/work/CARBON/AIRSS/Generating-Clusters/EDIP-Nigel-Params/with-SteepDescent/Only-C1/SD-CG/HFTN-CG
REM
REM
REM
REM
REM
REM ./C.cell (11c1c37f851c82e70ff6c80c92926a4b)
REM
REM compiler GCC version 9.2.1 20190827 (Red Hat 9.2.1-1)
REM options -cpp -mtune=generic -march=x86-64 -g -O0 -fpre-include=/usr/include/finclude/math-vector-fortran.h
REM seed -2823380 -1538656022 960907390 -940435724 -1675407033 -2130229675 724533355 -1881104432 -557967956 -1470968621 -509561983 2037937811 557103203 -1583201373 -971585822 -2133011506 -1952798762 2107241299 -1620523451 779738119 -1432313725 1466930601 -434421187 330201872 1460350022 -952541409 -91852043 -343494364 1342333462 1434387018 -1805624766 -1314570408 -1803870380
REM
CELL 1.54180   50.00000   50.00000   50.00000   90.00000   90.00000   90.00000
LATT -1
SFAC C  
C      1  0.4180270000000  0.4762130000000  0.4920890000000 1.0
C      1  0.4298170000000  0.5455740000000  0.5150160000000 1.0
C      1  0.5649300000000  0.5008100000000  0.4568590000000 1.0
C      1  0.4446910000000  0.4183630000000  0.4498250000000 1.0
C      1  0.5158670000000  0.4290570000000  0.5748160000000 1.0
C      1  0.4871500000000  0.4217780000000  0.5491950000000 1.0
C      1  0.5120860000000  0.5032920000000  0.4082150000000 1.0
C      1  0.4508050000000  0.4354770000000  0.5194810000000 1.0
C      1  0.4322650000000  0.4289670000000  0.4966500000000 1.0
C      1  0.5292610000000  0.5701720000000  0.4546600000000 1.0
C      1  0.4905500000000  0.4896480000000  0.5712260000000 1.0
C      1  0.4848800000000  0.4712320000000  0.5459470000000 1.0
C      1  0.4976420000000  0.4696990000000  0.5923100000000 1.0
C      1  0.5227200000000  0.4559800000000  0.5848300000000 1.0
C      1  0.4355450000000  0.4791780000000  0.4667780000000 1.0
C      1  0.4907630000000  0.4138790000000  0.4973400000000 1.0
C      1  0.4494650000000  0.5699650000000  0.5533440000000 1.0
C      1  0.4752800000000  0.5581010000000  0.4344170000000 1.0
C      1  0.4606470000000  0.5049800000000  0.4926390000000 1.0
C      1  0.5551450000000  0.4637500000000  0.4251000000000 1.0
C      1  0.5417700000000  0.4726450000000  0.5684000000000 1.0
C      1  0.4833330000000  0.4596020000000  0.4554890000000 1.0
C      1  0.5830010000000  0.5135550000000  0.5322230000000 1.0
C      1  0.4840800000000  0.3959720000000  0.4764710000000 1.0
C      1  0.5307750000000  0.4788920000000  0.4849450000000 1.0
C      1  0.5114840000000  0.5123420000000  0.5712480000000 1.0
C      1  0.4366200000000  0.5115670000000  0.5324380000000 1.0
C      1  0.5251710000000  0.4171290000000  0.5510100000000 1.0
C      1  0.5522770000000  0.5627200000000  0.5208260000000 1.0
C      1  0.5027410000000  0.5070000000000  0.5050710000000 1.0
C      1  0.4449410000000  0.4480500000000  0.5614080000000 1.0
C      1  0.5415390000000  0.5027960000000  0.5729600000000 1.0
C      1  0.4985210000000  0.4777980000000  0.4016230000000 1.0
C      1  0.5437030000000  0.4508050000000  0.4830570000000 1.0
C      1  0.5471500000000  0.5048210000000  0.5042070000000 1.0
C      1  0.5586690000000  0.4916390000000  0.4291830000000 1.0
C      1  0.5324360000000  0.5681150000000  0.5604480000000 1.0
C      1  0.4997890000000  0.5348140000000  0.4660280000000 1.0
C      1  0.4224590000000  0.5248270000000  0.4704510000000 1.0
C      1  0.4868030000000  0.5544530000000  0.5718110000000 1.0
C      1  0.4880100000000  0.5144460000000  0.5291400000000 1.0
C      1  0.5293540000000  0.4595880000000  0.4381400000000 1.0
C      1  0.5923750000000  0.5359170000000  0.5185390000000 1.0
C      1  0.5583310000000  0.5212880000000  0.5501680000000 1.0
C      1  0.5017430000000  0.4354170000000  0.4669680000000 1.0
C      1  0.4363990000000  0.4738290000000  0.5625840000000 1.0
C      1  0.5799990000000  0.4859500000000  0.4788250000000 1.0
C      1  0.5403920000000  0.4625280000000  0.5395540000000 1.0
C      1  0.4618560000000  0.5238710000000  0.5167960000000 1.0
C      1  0.5738560000000  0.4934910000000  0.5106270000000 1.0
C      1  0.4739550000000  0.4463620000000  0.5627180000000 1.0
C      1  0.5236680000000  0.4848570000000  0.4557380000000 1.0
C      1  0.4508740000000  0.4314690000000  0.4743990000000 1.0
C      1  0.4590560000000  0.4605920000000  0.4728940000000 1.0
C      1  0.4961870000000  0.5256650000000  0.4043930000000 1.0
C      1  0.4579850000000  0.5931950000000  0.5660240000000 1.0
C      1  0.4775750000000  0.4492570000000  0.4277450000000 1.0
C      1  0.5047420000000  0.4771370000000  0.5019790000000 1.0
C      1  0.4502710000000  0.5242430000000  0.4197010000000 1.0
C      1  0.4708170000000  0.5690750000000  0.4811220000000 1.0
C      1  0.4120360000000  0.4486200000000  0.4940570000000 1.0
C      1  0.5530850000000  0.5314220000000  0.4891570000000 1.0
C      1  0.5554320000000  0.5523460000000  0.5497090000000 1.0
C      1  0.5727540000000  0.5493600000000  0.5038680000000 1.0
C      1  0.5596640000000  0.5289090000000  0.4615760000000 1.0
C      1  0.5511590000000  0.5938520000000  0.5219450000000 1.0
C      1  0.5445090000000  0.5373740000000  0.4179820000000 1.0
C      1  0.5406970000000  0.5096870000000  0.4130070000000 1.0
C      1  0.4665670000000  0.5068390000000  0.5771610000000 1.0
C      1  0.5782610000000  0.4459930000000  0.5085360000000 1.0
C      1  0.5434000000000  0.5460250000000  0.4445290000000 1.0
C      1  0.5112750000000  0.5992660000000  0.5256600000000 1.0
C      1  0.4735860000000  0.5651250000000  0.5101100000000 1.0
C      1  0.5004440000000  0.5702140000000  0.5233780000000 1.0
C      1  0.5147970000000  0.5314200000000  0.4908390000000 1.0
C      1  0.4812580000000  0.5138930000000  0.4551040000000 1.0
C      1  0.5070130000000  0.5556590000000  0.5499800000000 1.0
C      1  0.5334350000000  0.5957660000000  0.5480420000000 1.0
C      1  0.4794790000000  0.4483400000000  0.5917090000000 1.0
C      1  0.5075850000000  0.4533030000000  0.4167050000000 1.0
C      1  0.4709320000000  0.4759750000000  0.4971740000000 1.0
C      1  0.4749870000000  0.4178260000000  0.5217360000000 1.0
C      1  0.4491010000000  0.5651130000000  0.5251980000000 1.0
C      1  0.4691350000000  0.4201510000000  0.4354640000000 1.0
C      1  0.5301150000000  0.6029080000000  0.4995920000000 1.0
C      1  0.5219180000000  0.5585100000000  0.5049400000000 1.0
C      1  0.4781450000000  0.5291040000000  0.4270930000000 1.0
C      1  0.5370020000000  0.5164530000000  0.5311650000000 1.0
C      1  0.4453680000000  0.5074490000000  0.4670670000000 1.0
C      1  0.4950600000000  0.4870340000000  0.4544180000000 1.0
C      1  0.4322910000000  0.4834850000000  0.5192830000000 1.0
C      1  0.5252420000000  0.5785280000000  0.4828990000000 1.0
C      1  0.4918010000000  0.5625180000000  0.4596500000000 1.0
C      1  0.5305210000000  0.4384720000000  0.4595450000000 1.0
C      1  0.4424010000000  0.5012680000000  0.5614740000000 1.0
C      1  0.5111040000000  0.5255730000000  0.5444220000000 1.0
C      1  0.4912610000000  0.4106730000000  0.4532390000000 1.0
C      1  0.4577450000000  0.4661100000000  0.5225310000000 1.0
C      1  0.5751740000000  0.4566280000000  0.4798950000000 1.0
C      1  0.4682650000000  0.4762120000000  0.4049860000000 1.0
C      1  0.5553860000000  0.4279390000000  0.5118070000000 1.0
C      1  0.5678400000000  0.4685100000000  0.5248340000000 1.0
C      1  0.4935490000000  0.5314760000000  0.5878920000000 1.0
C      1  0.5440280000000  0.4331910000000  0.5374990000000 1.0
C      1  0.4742950000000  0.5777920000000  0.5820420000000 1.0
C      1  0.4255170000000  0.5480530000000  0.4853690000000 1.0
C      1  0.4446600000000  0.5634790000000  0.4691000000000 1.0
C      1  0.5106900000000  0.4670190000000  0.5293140000000 1.0
C      1  0.4515300000000  0.4984920000000  0.4087990000000 1.0
C      1  0.4462540000000  0.5568170000000  0.4404270000000 1.0
END
