TITL C-950531-5884-81 -2.52184015512003e-05 125000 -162.362324976768 0 0 28 (C1) n - 1
REM
REM in /home/bkarasulu/work/CARBON/AIRSS/Generating-Clusters/EDIP-Nigel-Params/with-SteepDescent/Only-C1/SD-CG/HFTN-CG
REM
REM
REM
REM
REM
REM ./C.cell (11c1c37f851c82e70ff6c80c92926a4b)
REM
REM compiler GCC version 9.2.1 20190827 (Red Hat 9.2.1-1)
REM options -cpp -mtune=generic -march=x86-64 -g -O0 -fpre-include=/usr/include/finclude/math-vector-fortran.h
REM seed -1024929522 -781321043 -2010442569 900336256 293584769 -115016422 -989532613 396394252 -2145173711 363553785 -1536175053 -1152267925 1525463184 -318413097 -1563101989 1290464790 1676388566 -1816692576 -1559501553 1946977252 -650643449 -1222075556 -998799592 833705685 -1996855884 -2117967234 -1715025250 -42763095 970389227 650921844 152869835 103909874 300306709
REM
CELL 1.54180   50.00000   50.00000   50.00000   90.00000   90.00000   90.00000
LATT -1
SFAC C  
C      1  0.4759600000000  0.4538680000000  0.4884650000000 1.0
C      1  0.5424230000000  0.4948920000000  0.5422350000000 1.0
C      1  0.4374480000000  0.4885940000000  0.5032890000000 1.0
C      1  0.5624660000000  0.5186790000000  0.5031580000000 1.0
C      1  0.5165080000000  0.5218860000000  0.5102300000000 1.0
C      1  0.5258350000000  0.4828580000000  0.5605970000000 1.0
C      1  0.4795600000000  0.5482040000000  0.4853460000000 1.0
C      1  0.4987340000000  0.4847160000000  0.5561520000000 1.0
C      1  0.4549480000000  0.4673630000000  0.5003800000000 1.0
C      1  0.5355130000000  0.4700290000000  0.5815540000000 1.0
C      1  0.4847480000000  0.4969510000000  0.5369370000000 1.0
C      1  0.4898760000000  0.5124740000000  0.5146430000000 1.0
C      1  0.4206710000000  0.5287610000000  0.4883140000000 1.0
C      1  0.5033670000000  0.4569080000000  0.4990450000000 1.0
C      1  0.5514310000000  0.5377780000000  0.4839390000000 1.0
C      1  0.5659290000000  0.5220910000000  0.4644680000000 1.0
C      1  0.4695420000000  0.5274390000000  0.5009440000000 1.0
C      1  0.5222220000000  0.5361080000000  0.4860580000000 1.0
C      1  0.5523390000000  0.4795660000000  0.4444400000000 1.0
C      1  0.5405470000000  0.4655480000000  0.4651900000000 1.0
C      1  0.5149900000000  0.4713380000000  0.4762600000000 1.0
C      1  0.4444670000000  0.5149470000000  0.4943890000000 1.0
C      1  0.4098100000000  0.4854700000000  0.4991750000000 1.0
C      1  0.4888020000000  0.4652830000000  0.4643860000000 1.0
C      1  0.5043140000000  0.5557390000000  0.4772450000000 1.0
C      1  0.4006090000000  0.5100950000000  0.4911150000000 1.0
C      1  0.5404930000000  0.5086780000000  0.5184360000000 1.0
C      1  0.5664500000000  0.4937380000000  0.4636100000000 1.0
END
