TITL C-951343-2256-51 -6.50081598411814e-07 125000 -724.897404021314 0 0 117 (C1) n - 1
REM
REM in /home/bkarasulu/work/CARBON/AIRSS/Generating-Clusters/EDIP-Nigel-Params/with-SteepDescent/Only-C1/SD-CG/HFTN-CG
REM
REM
REM
REM
REM
REM ./C.cell (11c1c37f851c82e70ff6c80c92926a4b)
REM
REM compiler GCC version 9.2.1 20190827 (Red Hat 9.2.1-1)
REM options -cpp -mtune=generic -march=x86-64 -g -O0 -fpre-include=/usr/include/finclude/math-vector-fortran.h
REM seed -687332102 53353169 -1967223665 556799363 -393312570 -652416847 -558648396 1325204269 1803787792 7539066 -1430184479 1639289592 -66950740 -1562363148 1492480304 801207995 15726049 -557932308 266500885 644958744 -808406573 2096370345 -2108220703 -1995737367 -977792653 -687207666 1439925549 -111689854 -1019984064 1951532878 389398865 2092140322 -1772112027
REM
CELL 1.54180   50.00000   50.00000   50.00000   90.00000   90.00000   90.00000
LATT -1
SFAC C  
C      1  0.4563580000000  0.5548680000000  0.4687020000000 1.0
C      1  0.5088710000000  0.4239380000000  0.5692720000000 1.0
C      1  0.5287030000000  0.5120480000000  0.4101850000000 1.0
C      1  0.4558190000000  0.4642910000000  0.5674050000000 1.0
C      1  0.4697120000000  0.5400320000000  0.5167290000000 1.0
C      1  0.4756160000000  0.4306020000000  0.5300430000000 1.0
C      1  0.5161530000000  0.5425070000000  0.5410250000000 1.0
C      1  0.5716010000000  0.4954060000000  0.5491030000000 1.0
C      1  0.4353700000000  0.5203500000000  0.4442480000000 1.0
C      1  0.5141450000000  0.5423350000000  0.4918850000000 1.0
C      1  0.4826370000000  0.5750030000000  0.5559670000000 1.0
C      1  0.5401600000000  0.5652620000000  0.4649280000000 1.0
C      1  0.4923080000000  0.4206800000000  0.4664650000000 1.0
C      1  0.4811170000000  0.5539850000000  0.5768420000000 1.0
C      1  0.4237390000000  0.4902810000000  0.5144760000000 1.0
C      1  0.5439990000000  0.5216690000000  0.5747510000000 1.0
C      1  0.5789960000000  0.4707810000000  0.5129420000000 1.0
C      1  0.5181180000000  0.4846790000000  0.5983980000000 1.0
C      1  0.5323600000000  0.5681630000000  0.5645380000000 1.0
C      1  0.5034500000000  0.5146470000000  0.5455220000000 1.0
C      1  0.5624360000000  0.5138910000000  0.4476810000000 1.0
C      1  0.5450490000000  0.5393810000000  0.5301660000000 1.0
C      1  0.5395420000000  0.4349510000000  0.5472260000000 1.0
C      1  0.4845680000000  0.4828390000000  0.4509750000000 1.0
C      1  0.4324970000000  0.4312430000000  0.5058810000000 1.0
C      1  0.4469590000000  0.4483600000000  0.4341220000000 1.0
C      1  0.5739060000000  0.4276940000000  0.5057110000000 1.0
C      1  0.4469500000000  0.4725760000000  0.5141760000000 1.0
C      1  0.4609300000000  0.4205830000000  0.5050280000000 1.0
C      1  0.4942890000000  0.4857100000000  0.5609250000000 1.0
C      1  0.4909020000000  0.4801060000000  0.5147760000000 1.0
C      1  0.5532850000000  0.4188780000000  0.4871500000000 1.0
C      1  0.5643260000000  0.5245670000000  0.5524800000000 1.0
C      1  0.4662660000000  0.4372330000000  0.4172750000000 1.0
C      1  0.5729040000000  0.5635220000000  0.5060470000000 1.0
C      1  0.4445500000000  0.4357340000000  0.4607840000000 1.0
C      1  0.4269840000000  0.5371310000000  0.5056700000000 1.0
C      1  0.5270330000000  0.4174210000000  0.4998570000000 1.0
C      1  0.4687350000000  0.4649060000000  0.4874700000000 1.0
C      1  0.5544160000000  0.5056690000000  0.5015050000000 1.0
C      1  0.5132280000000  0.4624080000000  0.5531910000000 1.0
C      1  0.5244000000000  0.4843180000000  0.4187910000000 1.0
C      1  0.4901230000000  0.5614970000000  0.4342370000000 1.0
C      1  0.4397500000000  0.5618510000000  0.4930540000000 1.0
C      1  0.5897960000000  0.4514460000000  0.4923540000000 1.0
C      1  0.4241160000000  0.4462410000000  0.4792360000000 1.0
C      1  0.4537090000000  0.5076950000000  0.4227440000000 1.0
C      1  0.5286000000000  0.5536840000000  0.4401370000000 1.0
C      1  0.5836280000000  0.5409180000000  0.5229900000000 1.0
C      1  0.5834700000000  0.5140960000000  0.5073510000000 1.0
C      1  0.4417540000000  0.5491990000000  0.4431900000000 1.0
C      1  0.5782460000000  0.4550250000000  0.4652040000000 1.0
C      1  0.4727840000000  0.5194450000000  0.5406750000000 1.0
C      1  0.5386380000000  0.4886480000000  0.5205320000000 1.0
C      1  0.5007010000000  0.5833880000000  0.5234980000000 1.0
C      1  0.5559270000000  0.4358670000000  0.4629630000000 1.0
C      1  0.5934470000000  0.4866030000000  0.5318260000000 1.0
C      1  0.5296850000000  0.5460280000000  0.5826860000000 1.0
C      1  0.5970820000000  0.5172390000000  0.4820150000000 1.0
C      1  0.5419120000000  0.5323000000000  0.4998160000000 1.0
C      1  0.4925960000000  0.4400010000000  0.5849160000000 1.0
C      1  0.4745440000000  0.4609820000000  0.5904150000000 1.0
C      1  0.5286180000000  0.5889790000000  0.5100890000000 1.0
C      1  0.4580040000000  0.5691920000000  0.5399890000000 1.0
C      1  0.4078410000000  0.5100770000000  0.4412120000000 1.0
C      1  0.5486560000000  0.4771000000000  0.5564200000000 1.0
C      1  0.4459860000000  0.5085940000000  0.4718120000000 1.0
C      1  0.4685110000000  0.4342130000000  0.4793800000000 1.0
C      1  0.5436570000000  0.4702280000000  0.4352070000000 1.0
C      1  0.5069500000000  0.4361710000000  0.4463960000000 1.0
C      1  0.4680830000000  0.5288690000000  0.4834660000000 1.0
C      1  0.5546460000000  0.5811750000000  0.5219530000000 1.0
C      1  0.5253090000000  0.4155640000000  0.5289220000000 1.0
C      1  0.5053390000000  0.4552780000000  0.5243510000000 1.0
C      1  0.5598170000000  0.5496620000000  0.4821000000000 1.0
C      1  0.4249280000000  0.5019180000000  0.5417210000000 1.0
C      1  0.5023000000000  0.4903360000000  0.4736460000000 1.0
C      1  0.5211680000000  0.5798180000000  0.4826760000000 1.0
C      1  0.4929900000000  0.5879950000000  0.4775200000000 1.0
C      1  0.4972850000000  0.5213020000000  0.4771940000000 1.0
C      1  0.4993820000000  0.5525570000000  0.5176510000000 1.0
C      1  0.5579910000000  0.4486460000000  0.5234810000000 1.0
C      1  0.4540430000000  0.4412300000000  0.5490180000000 1.0
C      1  0.4409940000000  0.5481490000000  0.5528600000000 1.0
C      1  0.5244040000000  0.4701600000000  0.4787610000000 1.0
C      1  0.4640200000000  0.5298050000000  0.4038850000000 1.0
C      1  0.4784020000000  0.5715910000000  0.4594560000000 1.0
C      1  0.5418790000000  0.5277720000000  0.4317410000000 1.0
C      1  0.4908850000000  0.4864600000000  0.5914370000000 1.0
C      1  0.4221290000000  0.5097620000000  0.4914320000000 1.0
C      1  0.5020140000000  0.5247400000000  0.4037750000000 1.0
C      1  0.4779360000000  0.5084940000000  0.4396860000000 1.0
C      1  0.5670240000000  0.4847000000000  0.4456320000000 1.0
C      1  0.5316740000000  0.4517990000000  0.4557400000000 1.0
C      1  0.4558890000000  0.4791090000000  0.4642380000000 1.0
C      1  0.4906440000000  0.4478940000000  0.4254900000000 1.0
C      1  0.4163330000000  0.4752050000000  0.4738460000000 1.0
C      1  0.5540830000000  0.5770550000000  0.5498710000000 1.0
C      1  0.4346710000000  0.4744660000000  0.4286900000000 1.0
C      1  0.4984480000000  0.4731360000000  0.4159120000000 1.0
C      1  0.5773930000000  0.5303140000000  0.4666380000000 1.0
C      1  0.4362180000000  0.4853330000000  0.5628710000000 1.0
C      1  0.5317080000000  0.4611260000000  0.5075240000000 1.0
C      1  0.4347400000000  0.4495570000000  0.5284950000000 1.0
C      1  0.4674650000000  0.4879890000000  0.5326010000000 1.0
C      1  0.5032940000000  0.5443050000000  0.5913670000000 1.0
C      1  0.4800770000000  0.5927730000000  0.5039100000000 1.0
C      1  0.5116640000000  0.5009240000000  0.5207590000000 1.0
C      1  0.5349830000000  0.4938310000000  0.5775910000000 1.0
C      1  0.4125680000000  0.4823940000000  0.4457840000000 1.0
C      1  0.4623430000000  0.5538110000000  0.4210970000000 1.0
C      1  0.4300660000000  0.5298690000000  0.5337380000000 1.0
C      1  0.4616590000000  0.5335120000000  0.5681550000000 1.0
C      1  0.4979280000000  0.5305340000000  0.4337950000000 1.0
C      1  0.5075810000000  0.4059110000000  0.4842340000000 1.0
C      1  0.4539320000000  0.5802330000000  0.5118670000000 1.0
C      1  0.4995570000000  0.4155780000000  0.5427620000000 1.0
END
