TITL C-951347-9520-627 -2.7400857060233e-07 125000 -545.764105030562 0 0 88 (C1) n - 1
REM
REM in /home/bkarasulu/work/CARBON/AIRSS/Generating-Clusters/EDIP-Nigel-Params/with-SteepDescent/Only-C1/SD-CG/HFTN-CG
REM
REM
REM
REM
REM
REM ./C.cell (11c1c37f851c82e70ff6c80c92926a4b)
REM
REM compiler GCC version 9.2.1 20190827 (Red Hat 9.2.1-1)
REM options -cpp -mtune=generic -march=x86-64 -g -O0 -fpre-include=/usr/include/finclude/math-vector-fortran.h
REM seed -49736450 1012519616 724629407 -160431755 -872889209 -2004945335 -1671777905 -1416041590 1561361919 -1440571058 -1751802414 -473651164 -1766908612 601404871 -940895737 1423849778 -1704911965 -1675456614 1553651928 12324382 -1635875431 -1745872629 -592368273 341421004 -205474213 -1638318139 -955334093 -887585994 -258409285 818920022 -1234394157 -1511161140 -941289707
REM
CELL 1.54180   50.00000   50.00000   50.00000   90.00000   90.00000   90.00000
LATT -1
SFAC C  
C      1  0.5874320000000  0.5343520000000  0.4660080000000 1.0
C      1  0.5044510000000  0.5696840000000  0.4910210000000 1.0
C      1  0.4390240000000  0.4679550000000  0.4979480000000 1.0
C      1  0.4165970000000  0.5252700000000  0.5209200000000 1.0
C      1  0.4710670000000  0.5305650000000  0.4846370000000 1.0
C      1  0.5432680000000  0.5013380000000  0.5584020000000 1.0
C      1  0.4331240000000  0.5269360000000  0.4512740000000 1.0
C      1  0.4412380000000  0.5240510000000  0.5622010000000 1.0
C      1  0.4956220000000  0.4242140000000  0.4833290000000 1.0
C      1  0.5856120000000  0.4847220000000  0.5197890000000 1.0
C      1  0.4202880000000  0.4889220000000  0.4818090000000 1.0
C      1  0.4912010000000  0.4345500000000  0.4558890000000 1.0
C      1  0.5457250000000  0.5488410000000  0.5519600000000 1.0
C      1  0.5954010000000  0.5069200000000  0.4722730000000 1.0
C      1  0.5179320000000  0.4699390000000  0.5832450000000 1.0
C      1  0.5364710000000  0.4952290000000  0.5155390000000 1.0
C      1  0.4739270000000  0.5849300000000  0.5271570000000 1.0
C      1  0.4675030000000  0.4525630000000  0.4573540000000 1.0
C      1  0.5530140000000  0.4549560000000  0.5556240000000 1.0
C      1  0.4596700000000  0.5026750000000  0.5244530000000 1.0
C      1  0.5480130000000  0.4394500000000  0.5329420000000 1.0
C      1  0.4708780000000  0.5649410000000  0.4569930000000 1.0
C      1  0.4446780000000  0.5501600000000  0.4926250000000 1.0
C      1  0.4817540000000  0.4562880000000  0.5510390000000 1.0
C      1  0.5660100000000  0.4411780000000  0.5095320000000 1.0
C      1  0.4991670000000  0.5520160000000  0.5502680000000 1.0
C      1  0.5646820000000  0.5377810000000  0.5320640000000 1.0
C      1  0.5811700000000  0.5071580000000  0.4994660000000 1.0
C      1  0.5048810000000  0.5307470000000  0.5703280000000 1.0
C      1  0.5005570000000  0.4594950000000  0.5277400000000 1.0
C      1  0.5336730000000  0.4735090000000  0.4715580000000 1.0
C      1  0.4756650000000  0.4907620000000  0.4198530000000 1.0
C      1  0.4918620000000  0.4940540000000  0.4596740000000 1.0
C      1  0.5740700000000  0.5510390000000  0.4833350000000 1.0
C      1  0.5392320000000  0.4671310000000  0.5001410000000 1.0
C      1  0.5188650000000  0.4358640000000  0.5241610000000 1.0
C      1  0.5034150000000  0.4712650000000  0.4750260000000 1.0
C      1  0.5113620000000  0.5167260000000  0.4662370000000 1.0
C      1  0.5044600000000  0.4135770000000  0.5375370000000 1.0
C      1  0.4523850000000  0.4456880000000  0.4823560000000 1.0
C      1  0.4575810000000  0.5756450000000  0.4819740000000 1.0
C      1  0.4650020000000  0.5019350000000  0.4750190000000 1.0
C      1  0.5871080000000  0.4776880000000  0.4748070000000 1.0
C      1  0.5283120000000  0.5628300000000  0.5082900000000 1.0
C      1  0.4111510000000  0.5167210000000  0.4924560000000 1.0
C      1  0.4852770000000  0.5086690000000  0.5368630000000 1.0
C      1  0.5470980000000  0.4663330000000  0.4179380000000 1.0
C      1  0.5388240000000  0.5036480000000  0.4662840000000 1.0
C      1  0.4534450000000  0.4644930000000  0.5461390000000 1.0
C      1  0.4935300000000  0.4771750000000  0.5041400000000 1.0
C      1  0.4733770000000  0.5653170000000  0.5467950000000 1.0
C      1  0.4927180000000  0.4755580000000  0.5731270000000 1.0
C      1  0.4680460000000  0.4172980000000  0.5252240000000 1.0
C      1  0.5418690000000  0.4754320000000  0.5705940000000 1.0
C      1  0.5057950000000  0.4861110000000  0.4239500000000 1.0
C      1  0.4781770000000  0.5213150000000  0.4277340000000 1.0
C      1  0.4719150000000  0.4309410000000  0.4993090000000 1.0
C      1  0.4219230000000  0.5391430000000  0.4754230000000 1.0
C      1  0.4613650000000  0.5370320000000  0.4474660000000 1.0
C      1  0.5164460000000  0.5486860000000  0.4461460000000 1.0
C      1  0.4809700000000  0.4252190000000  0.5511300000000 1.0
C      1  0.4614730000000  0.5132410000000  0.5781060000000 1.0
C      1  0.5058260000000  0.5038780000000  0.5139210000000 1.0
C      1  0.5206410000000  0.4334660000000  0.4950960000000 1.0
C      1  0.4318490000000  0.4602250000000  0.5266060000000 1.0
C      1  0.5643010000000  0.5085220000000  0.5399210000000 1.0
C      1  0.5510860000000  0.5132660000000  0.4952740000000 1.0
C      1  0.4382100000000  0.4988860000000  0.4599230000000 1.0
C      1  0.4869390000000  0.5059050000000  0.5669060000000 1.0
C      1  0.5538240000000  0.5439720000000  0.5035650000000 1.0
C      1  0.5340290000000  0.5265890000000  0.5691000000000 1.0
C      1  0.5238430000000  0.5094040000000  0.4189430000000 1.0
C      1  0.4636690000000  0.4858420000000  0.5008490000000 1.0
C      1  0.5175360000000  0.4462550000000  0.4481050000000 1.0
C      1  0.4187160000000  0.4811830000000  0.5423070000000 1.0
C      1  0.5059220000000  0.5318310000000  0.4252600000000 1.0
C      1  0.4620920000000  0.4712270000000  0.4361520000000 1.0
C      1  0.4801060000000  0.5836680000000  0.5000030000000 1.0
C      1  0.5831340000000  0.4632040000000  0.5007520000000 1.0
C      1  0.5001600000000  0.5663030000000  0.4619520000000 1.0
C      1  0.4329590000000  0.5069730000000  0.5381890000000 1.0
C      1  0.5484030000000  0.5068690000000  0.4364310000000 1.0
C      1  0.5202790000000  0.4601550000000  0.4228710000000 1.0
C      1  0.4323840000000  0.5505720000000  0.5211940000000 1.0
C      1  0.5237190000000  0.5634040000000  0.5381230000000 1.0
C      1  0.4482890000000  0.5493760000000  0.5464200000000 1.0
C      1  0.5011960000000  0.5255710000000  0.4929630000000 1.0
C      1  0.5641410000000  0.4855840000000  0.4265530000000 1.0
END
