TITL C-951338-5626-466 -0.000105035435382934 125000 -784.069722269221 0 0 128 (C1) n - 1
REM
REM in /home/bkarasulu/work/CARBON/AIRSS/Generating-Clusters/EDIP-Nigel-Params/with-SteepDescent/Only-C1/SD-CG/HFTN-CG
REM
REM
REM
REM
REM
REM ./C.cell (11c1c37f851c82e70ff6c80c92926a4b)
REM
REM compiler GCC version 9.2.1 20190827 (Red Hat 9.2.1-1)
REM options -cpp -mtune=generic -march=x86-64 -g -O0 -fpre-include=/usr/include/finclude/math-vector-fortran.h
REM seed 114568685 1551874722 -1761563726 50943138 1513164070 -1022499407 -548344023 1771595264 -1237393824 2050046429 1956778367 -1928564996 -2059251697 -100000968 -90851731 1034159685 -858666449 -1006599627 883438569 -725975128 -1209695629 -1712715054 -791832703 2065087146 213306162 235142555 -698391253 1761167516 351085769 -2059491419 -1270609420 927593214 -1254436131
REM
CELL 1.54180   50.00000   50.00000   50.00000   90.00000   90.00000   90.00000
LATT -1
SFAC C  
C      1  0.5502550000000  0.4857630000000  0.4129160000000 1.0
C      1  0.4749870000000  0.4782740000000  0.4470380000000 1.0
C      1  0.5117980000000  0.4460430000000  0.5049910000000 1.0
C      1  0.4459260000000  0.4858340000000  0.4489650000000 1.0
C      1  0.6153810000000  0.4550670000000  0.4546740000000 1.0
C      1  0.5776500000000  0.4694280000000  0.5163080000000 1.0
C      1  0.4868850000000  0.4075290000000  0.4515040000000 1.0
C      1  0.4066370000000  0.5221060000000  0.4540880000000 1.0
C      1  0.5269720000000  0.4816480000000  0.5917610000000 1.0
C      1  0.4330100000000  0.4591820000000  0.4508690000000 1.0
C      1  0.4351580000000  0.5263960000000  0.4154770000000 1.0
C      1  0.4996800000000  0.4715870000000  0.5962730000000 1.0
C      1  0.5494270000000  0.5426320000000  0.5609500000000 1.0
C      1  0.5447510000000  0.4519380000000  0.5740150000000 1.0
C      1  0.4812380000000  0.5316510000000  0.5572230000000 1.0
C      1  0.5539320000000  0.5820360000000  0.5174890000000 1.0
C      1  0.5092140000000  0.5251410000000  0.4905210000000 1.0
C      1  0.5031960000000  0.4037170000000  0.4968440000000 1.0
C      1  0.4998970000000  0.5329400000000  0.5970660000000 1.0
C      1  0.4825590000000  0.5720310000000  0.4701940000000 1.0
C      1  0.5708570000000  0.5435480000000  0.4477370000000 1.0
C      1  0.4411410000000  0.5175230000000  0.5843000000000 1.0
C      1  0.4756440000000  0.4087900000000  0.5066320000000 1.0
C      1  0.5189080000000  0.4410370000000  0.4193600000000 1.0
C      1  0.4930480000000  0.5064440000000  0.5631730000000 1.0
C      1  0.6319810000000  0.4518500000000  0.4354300000000 1.0
C      1  0.4947580000000  0.5537460000000  0.5214200000000 1.0
C      1  0.4692020000000  0.6101190000000  0.4982610000000 1.0
C      1  0.4371090000000  0.5596370000000  0.4456580000000 1.0
C      1  0.4657630000000  0.5640600000000  0.4431470000000 1.0
C      1  0.4302780000000  0.4882190000000  0.5443030000000 1.0
C      1  0.4645350000000  0.5384560000000  0.5823530000000 1.0
C      1  0.5887730000000  0.5235410000000  0.5293670000000 1.0
C      1  0.4562890000000  0.5261220000000  0.4751760000000 1.0
C      1  0.5437920000000  0.5782330000000  0.4631010000000 1.0
C      1  0.5151050000000  0.4968320000000  0.4639680000000 1.0
C      1  0.5036330000000  0.4471560000000  0.4766490000000 1.0
C      1  0.4873060000000  0.4482770000000  0.5249580000000 1.0
C      1  0.4663140000000  0.5956210000000  0.5226510000000 1.0
C      1  0.5137590000000  0.5972200000000  0.5285510000000 1.0
C      1  0.4008060000000  0.4783760000000  0.4858230000000 1.0
C      1  0.5484640000000  0.5544470000000  0.5088640000000 1.0
C      1  0.4427520000000  0.5790090000000  0.5229660000000 1.0
C      1  0.5270990000000  0.5563850000000  0.4561560000000 1.0
C      1  0.4934780000000  0.5036000000000  0.4435190000000 1.0
C      1  0.4284810000000  0.5241910000000  0.5140270000000 1.0
C      1  0.5238000000000  0.4809990000000  0.5354480000000 1.0
C      1  0.5981130000000  0.4536620000000  0.4762430000000 1.0
C      1  0.5011910000000  0.4868920000000  0.4062030000000 1.0
C      1  0.5697760000000  0.4725950000000  0.4256150000000 1.0
C      1  0.4978090000000  0.4588430000000  0.4153030000000 1.0
C      1  0.5323690000000  0.5623160000000  0.5708390000000 1.0
C      1  0.5254420000000  0.5127700000000  0.5926940000000 1.0
C      1  0.5408080000000  0.5099120000000  0.4642080000000 1.0
C      1  0.4537100000000  0.4399350000000  0.4412510000000 1.0
C      1  0.5133050000000  0.5973710000000  0.5007880000000 1.0
C      1  0.6005490000000  0.4758380000000  0.4956960000000 1.0
C      1  0.4903120000000  0.5808230000000  0.5351400000000 1.0
C      1  0.4546690000000  0.4915700000000  0.5878350000000 1.0
C      1  0.5599060000000  0.4379230000000  0.5548310000000 1.0
C      1  0.5430030000000  0.5338050000000  0.4460340000000 1.0
C      1  0.5264750000000  0.5000250000000  0.4140990000000 1.0
C      1  0.4230690000000  0.5138760000000  0.5601060000000 1.0
C      1  0.4533900000000  0.4776310000000  0.5609570000000 1.0
C      1  0.4188610000000  0.4559420000000  0.4776500000000 1.0
C      1  0.5670450000000  0.4402550000000  0.5273290000000 1.0
C      1  0.5496900000000  0.4241560000000  0.5084160000000 1.0
C      1  0.4410570000000  0.5015070000000  0.4731560000000 1.0
C      1  0.5733930000000  0.5463010000000  0.5442350000000 1.0
C      1  0.4937800000000  0.4950060000000  0.4965990000000 1.0
C      1  0.5061280000000  0.5594510000000  0.5808630000000 1.0
C      1  0.4782560000000  0.5492540000000  0.4184320000000 1.0
C      1  0.4615530000000  0.4542900000000  0.4892890000000 1.0
C      1  0.4424880000000  0.4970220000000  0.5170300000000 1.0
C      1  0.5678730000000  0.4511040000000  0.4722070000000 1.0
C      1  0.5545650000000  0.5116450000000  0.5162750000000 1.0
C      1  0.4924150000000  0.4479330000000  0.5823170000000 1.0
C      1  0.4562450000000  0.5654450000000  0.5707910000000 1.0
C      1  0.4728950000000  0.5346550000000  0.5271270000000 1.0
C      1  0.5401610000000  0.4345940000000  0.4363220000000 1.0
C      1  0.4711260000000  0.4503140000000  0.4202770000000 1.0
C      1  0.5291220000000  0.5285380000000  0.4194050000000 1.0
C      1  0.3946440000000  0.4741300000000  0.5129990000000 1.0
C      1  0.4569420000000  0.4610430000000  0.5168500000000 1.0
C      1  0.4370820000000  0.5680440000000  0.4975140000000 1.0
C      1  0.4613680000000  0.4171670000000  0.4579780000000 1.0
C      1  0.4772650000000  0.5027740000000  0.4051190000000 1.0
C      1  0.4118840000000  0.5058180000000  0.4774550000000 1.0
C      1  0.4625030000000  0.5266070000000  0.4090800000000 1.0
C      1  0.4518850000000  0.4489230000000  0.5633560000000 1.0
C      1  0.4843460000000  0.4975180000000  0.5913300000000 1.0
C      1  0.4899010000000  0.5967470000000  0.4849600000000 1.0
C      1  0.5431120000000  0.5171500000000  0.5705120000000 1.0
C      1  0.4984450000000  0.4675730000000  0.5431620000000 1.0
C      1  0.4207090000000  0.5388330000000  0.4358890000000 1.0
C      1  0.4312990000000  0.4450560000000  0.5243420000000 1.0
C      1  0.5271220000000  0.5135010000000  0.5359230000000 1.0
C      1  0.5246440000000  0.4112230000000  0.5153760000000 1.0
C      1  0.4565300000000  0.4237590000000  0.4870880000000 1.0
C      1  0.4790020000000  0.4878400000000  0.5463660000000 1.0
C      1  0.5918040000000  0.5282670000000  0.4985180000000 1.0
C      1  0.5564840000000  0.4247640000000  0.4799870000000 1.0
C      1  0.5197220000000  0.5387210000000  0.5154900000000 1.0
C      1  0.4729100000000  0.5029220000000  0.5202450000000 1.0
C      1  0.5745730000000  0.4948280000000  0.5337620000000 1.0
C      1  0.4114460000000  0.4658940000000  0.5341860000000 1.0
C      1  0.5356880000000  0.4166230000000  0.4596850000000 1.0
C      1  0.5903310000000  0.5020600000000  0.4830060000000 1.0
C      1  0.5678110000000  0.5439840000000  0.4868140000000 1.0
C      1  0.5068790000000  0.4175430000000  0.4700340000000 1.0
C      1  0.5017800000000  0.5484360000000  0.4702630000000 1.0
C      1  0.4804790000000  0.5298280000000  0.4566550000000 1.0
C      1  0.5693800000000  0.5661810000000  0.4654050000000 1.0
C      1  0.5585730000000  0.4553780000000  0.4442490000000 1.0
C      1  0.4237750000000  0.5363670000000  0.5408740000000 1.0
C      1  0.5593010000000  0.5003710000000  0.4865620000000 1.0
C      1  0.4417580000000  0.5599930000000  0.5450200000000 1.0
C      1  0.4243090000000  0.4322740000000  0.4970200000000 1.0
C      1  0.5746420000000  0.5721500000000  0.5327360000000 1.0
C      1  0.4741030000000  0.4324390000000  0.5671060000000 1.0
C      1  0.4833550000000  0.4230670000000  0.5404800000000 1.0
C      1  0.4832310000000  0.4686650000000  0.4760570000000 1.0
C      1  0.4487300000000  0.5411090000000  0.5007100000000 1.0
C      1  0.4848550000000  0.5752430000000  0.5657570000000 1.0
C      1  0.5059550000000  0.5442470000000  0.4160850000000 1.0
C      1  0.5435920000000  0.4756900000000  0.5578230000000 1.0
C      1  0.5552010000000  0.4715810000000  0.4942160000000 1.0
C      1  0.5284740000000  0.4700880000000  0.5082270000000 1.0
END
