TITL C-951336-9012-393 9.10449747676106e-08 125000 -618.142013773206 0 0 99 (C1) n - 1
REM
REM in /home/bkarasulu/work/CARBON/AIRSS/Generating-Clusters/EDIP-Nigel-Params/with-SteepDescent/Only-C1/SD-CG/HFTN-CG
REM
REM
REM
REM
REM
REM ./C.cell (11c1c37f851c82e70ff6c80c92926a4b)
REM
REM compiler GCC version 9.2.1 20190827 (Red Hat 9.2.1-1)
REM options -cpp -mtune=generic -march=x86-64 -g -O0 -fpre-include=/usr/include/finclude/math-vector-fortran.h
REM seed 1790470943 284719037 -1803201424 -85795314 -885094880 -1605425603 -965615534 487127900 138397695 1415928606 403036585 -1829579080 777679491 1713828185 713357999 1016072388 -2124712064 755767003 -370783414 1359383875 1423219378 -743746249 1609217719 1235650918 -1538875973 519735886 1260545937 1887096326 -877638306 -1648906078 -581307189 -1156383151 16392042
REM
CELL 1.54180   50.00000   50.00000   50.00000   90.00000   90.00000   90.00000
LATT -1
SFAC C  
C      1  0.4277040000000  0.4933240000000  0.4728350000000 1.0
C      1  0.4009700000000  0.5161360000000  0.5189590000000 1.0
C      1  0.4995920000000  0.4933670000000  0.4569650000000 1.0
C      1  0.5664230000000  0.5106650000000  0.4942620000000 1.0
C      1  0.5788150000000  0.4961130000000  0.4502690000000 1.0
C      1  0.5390110000000  0.5556140000000  0.4801550000000 1.0
C      1  0.4430150000000  0.5425630000000  0.4836670000000 1.0
C      1  0.5281270000000  0.4732300000000  0.4303600000000 1.0
C      1  0.5354350000000  0.5451900000000  0.5665400000000 1.0
C      1  0.5165300000000  0.5257280000000  0.5259590000000 1.0
C      1  0.4174830000000  0.4761910000000  0.4958980000000 1.0
C      1  0.4223400000000  0.5274820000000  0.4450570000000 1.0
C      1  0.4778850000000  0.5097130000000  0.4715790000000 1.0
C      1  0.4436220000000  0.5441480000000  0.5744660000000 1.0
C      1  0.5217420000000  0.4832930000000  0.5528410000000 1.0
C      1  0.5830350000000  0.5313560000000  0.5066760000000 1.0
C      1  0.5285130000000  0.5013490000000  0.4743730000000 1.0
C      1  0.5418170000000  0.4332440000000  0.4592140000000 1.0
C      1  0.5310970000000  0.4162820000000  0.5010870000000 1.0
C      1  0.5182720000000  0.5267380000000  0.4922300000000 1.0
C      1  0.4482390000000  0.5309800000000  0.4056810000000 1.0
C      1  0.4910930000000  0.5330820000000  0.4808540000000 1.0
C      1  0.5686120000000  0.5534310000000  0.5190990000000 1.0
C      1  0.5849540000000  0.4958030000000  0.4781230000000 1.0
C      1  0.4197520000000  0.5335540000000  0.5304840000000 1.0
C      1  0.5535650000000  0.4296240000000  0.4859900000000 1.0
C      1  0.4795310000000  0.5733010000000  0.4541930000000 1.0
C      1  0.5251960000000  0.5757720000000  0.5222630000000 1.0
C      1  0.4370030000000  0.5498220000000  0.5128440000000 1.0
C      1  0.4728240000000  0.5433720000000  0.4102140000000 1.0
C      1  0.5478950000000  0.5681480000000  0.5050290000000 1.0
C      1  0.5150730000000  0.4224030000000  0.4566650000000 1.0
C      1  0.5388790000000  0.5089610000000  0.5391660000000 1.0
C      1  0.5683710000000  0.4569550000000  0.4904890000000 1.0
C      1  0.4528010000000  0.4893790000000  0.4320640000000 1.0
C      1  0.5182280000000  0.5266300000000  0.4244020000000 1.0
C      1  0.4758340000000  0.4376280000000  0.5140060000000 1.0
C      1  0.4129170000000  0.4908640000000  0.5205660000000 1.0
C      1  0.5482520000000  0.4576520000000  0.4453130000000 1.0
C      1  0.5810900000000  0.5344740000000  0.5502560000000 1.0
C      1  0.5084370000000  0.4100140000000  0.4827140000000 1.0
C      1  0.5552080000000  0.5249940000000  0.5591350000000 1.0
C      1  0.4540410000000  0.4509530000000  0.5707490000000 1.0
C      1  0.4948100000000  0.4434190000000  0.4516280000000 1.0
C      1  0.5319680000000  0.4679120000000  0.4847980000000 1.0
C      1  0.5222670000000  0.4582450000000  0.5113330000000 1.0
C      1  0.5333430000000  0.5027300000000  0.4306170000000 1.0
C      1  0.4912680000000  0.5575310000000  0.5562090000000 1.0
C      1  0.4230810000000  0.4801020000000  0.5454530000000 1.0
C      1  0.4422230000000  0.4746010000000  0.4552220000000 1.0
C      1  0.5239370000000  0.5062160000000  0.5936140000000 1.0
C      1  0.5575200000000  0.4943280000000  0.5185690000000 1.0
C      1  0.5829830000000  0.4871780000000  0.5322570000000 1.0
C      1  0.5014270000000  0.4665610000000  0.4713110000000 1.0
C      1  0.5947070000000  0.5158610000000  0.5307320000000 1.0
C      1  0.5543270000000  0.5107020000000  0.4480940000000 1.0
C      1  0.5189250000000  0.4812590000000  0.5828640000000 1.0
C      1  0.4939790000000  0.4637410000000  0.5173820000000 1.0
C      1  0.4938970000000  0.4712010000000  0.5902270000000 1.0
C      1  0.4883620000000  0.4994510000000  0.3987050000000 1.0
C      1  0.5835050000000  0.4396950000000  0.5336720000000 1.0
C      1  0.5004130000000  0.4618460000000  0.4271560000000 1.0
C      1  0.5056850000000  0.5827560000000  0.4571710000000 1.0
C      1  0.5353880000000  0.4007660000000  0.5241140000000 1.0
C      1  0.4687120000000  0.4323980000000  0.4641200000000 1.0
C      1  0.4468830000000  0.4424150000000  0.5217880000000 1.0
C      1  0.5022780000000  0.5839470000000  0.5084280000000 1.0
C      1  0.5285320000000  0.5507330000000  0.4337240000000 1.0
C      1  0.4226590000000  0.5476170000000  0.4636120000000 1.0
C      1  0.4268880000000  0.4997630000000  0.5669820000000 1.0
C      1  0.4375490000000  0.5141550000000  0.4253530000000 1.0
C      1  0.5184750000000  0.5534240000000  0.5414990000000 1.0
C      1  0.4798150000000  0.4187320000000  0.4888020000000 1.0
C      1  0.5572000000000  0.4416910000000  0.5434370000000 1.0
C      1  0.4680300000000  0.5707450000000  0.5479230000000 1.0
C      1  0.4495510000000  0.5130560000000  0.4813130000000 1.0
C      1  0.4342580000000  0.4513410000000  0.4966650000000 1.0
C      1  0.5440040000000  0.4172790000000  0.5435170000000 1.0
C      1  0.4252440000000  0.5285650000000  0.5592640000000 1.0
C      1  0.4409370000000  0.4570980000000  0.5465520000000 1.0
C      1  0.4793040000000  0.4700960000000  0.4909650000000 1.0
C      1  0.4767740000000  0.5746300000000  0.5017890000000 1.0
C      1  0.4552700000000  0.4561800000000  0.4759590000000 1.0
C      1  0.4948530000000  0.5248540000000  0.4082220000000 1.0
C      1  0.5750280000000  0.4667290000000  0.4539070000000 1.0
C      1  0.4890370000000  0.5291710000000  0.5658450000000 1.0
C      1  0.4665450000000  0.4720470000000  0.5842850000000 1.0
C      1  0.5294290000000  0.5680900000000  0.4555620000000 1.0
C      1  0.4817670000000  0.4853340000000  0.4230630000000 1.0
C      1  0.5148060000000  0.5301800000000  0.5824920000000 1.0
C      1  0.4530420000000  0.4978310000000  0.5801010000000 1.0
C      1  0.4939880000000  0.4837340000000  0.5409610000000 1.0
C      1  0.4581880000000  0.5675920000000  0.5222410000000 1.0
C      1  0.4737560000000  0.5637250000000  0.4289340000000 1.0
C      1  0.5862920000000  0.4611020000000  0.5159740000000 1.0
C      1  0.4724120000000  0.5570140000000  0.4785950000000 1.0
C      1  0.4635990000000  0.5251560000000  0.5815230000000 1.0
C      1  0.4915350000000  0.5129780000000  0.5384310000000 1.0
C      1  0.5401230000000  0.4649730000000  0.5333520000000 1.0
END
