TITL C-950530-3293-103 3.35679800516431e-08 125000 -819.737963187175 0 0 131 (C1) n - 1
REM
REM in /home/bkarasulu/work/CARBON/AIRSS/Generating-Clusters/EDIP-Nigel-Params/with-SteepDescent/Only-C1/SD-CG/HFTN-CG
REM
REM
REM
REM
REM
REM ./C.cell (11c1c37f851c82e70ff6c80c92926a4b)
REM
REM compiler GCC version 9.2.1 20190827 (Red Hat 9.2.1-1)
REM options -cpp -mtune=generic -march=x86-64 -g -O0 -fpre-include=/usr/include/finclude/math-vector-fortran.h
REM seed 663866706 635959724 429470034 1310680917 1335020356 1474336917 2130320674 -1869549519 10775319 276872397 -1128656861 47320907 -355771977 -960269664 1179482190 -1422895136 1245662866 -515389985 310982469 -1708201828 1908373074 -597780380 810903344 -627177964 -1750691830 -2029498438 1922680314 1242984311 1996095382 -769329422 -1497999578 -2033461229 -2127040761
REM
CELL 1.54180   50.00000   50.00000   50.00000   90.00000   90.00000   90.00000
LATT -1
SFAC C  
C      1  0.5165520000000  0.4916600000000  0.4157730000000 1.0
C      1  0.4771770000000  0.5158350000000  0.5527390000000 1.0
C      1  0.4936970000000  0.4820010000000  0.4561720000000 1.0
C      1  0.5801390000000  0.4545200000000  0.4923250000000 1.0
C      1  0.4059520000000  0.4548210000000  0.4777470000000 1.0
C      1  0.5438630000000  0.4284740000000  0.5822410000000 1.0
C      1  0.4717350000000  0.5799970000000  0.4563150000000 1.0
C      1  0.4012330000000  0.5021440000000  0.5466920000000 1.0
C      1  0.5154490000000  0.4880820000000  0.5906570000000 1.0
C      1  0.5204420000000  0.4179290000000  0.4896940000000 1.0
C      1  0.5050770000000  0.4315820000000  0.5566430000000 1.0
C      1  0.4464130000000  0.5728520000000  0.5433500000000 1.0
C      1  0.4484070000000  0.5219670000000  0.4877060000000 1.0
C      1  0.5085400000000  0.5542300000000  0.4972000000000 1.0
C      1  0.5456570000000  0.4799470000000  0.4159430000000 1.0
C      1  0.5193680000000  0.5861000000000  0.5392040000000 1.0
C      1  0.5352580000000  0.5486320000000  0.5106350000000 1.0
C      1  0.4972880000000  0.5342280000000  0.5906510000000 1.0
C      1  0.4985810000000  0.5365060000000  0.5422840000000 1.0
C      1  0.6007770000000  0.4988870000000  0.5567720000000 1.0
C      1  0.4922370000000  0.5008240000000  0.5023960000000 1.0
C      1  0.5290470000000  0.4099430000000  0.4442580000000 1.0
C      1  0.4949490000000  0.5733650000000  0.4399110000000 1.0
C      1  0.4726820000000  0.5783560000000  0.5562800000000 1.0
C      1  0.5564500000000  0.5201410000000  0.4720910000000 1.0
C      1  0.5417860000000  0.5893400000000  0.4906720000000 1.0
C      1  0.4790570000000  0.5094570000000  0.4449050000000 1.0
C      1  0.5061520000000  0.4932120000000  0.5284350000000 1.0
C      1  0.4417520000000  0.5016960000000  0.5753400000000 1.0
C      1  0.4086700000000  0.5298180000000  0.4590850000000 1.0
C      1  0.4978790000000  0.5544050000000  0.5669600000000 1.0
C      1  0.5247410000000  0.5685930000000  0.5629940000000 1.0
C      1  0.4294670000000  0.4606130000000  0.5491870000000 1.0
C      1  0.5661320000000  0.5774730000000  0.5346850000000 1.0
C      1  0.4727040000000  0.5215010000000  0.4031070000000 1.0
C      1  0.4762940000000  0.4326870000000  0.5495040000000 1.0
C      1  0.5273430000000  0.4766180000000  0.4657960000000 1.0
C      1  0.4599720000000  0.4263260000000  0.4736190000000 1.0
C      1  0.4400890000000  0.4492920000000  0.4739440000000 1.0
C      1  0.4347720000000  0.4949000000000  0.4858770000000 1.0
C      1  0.4593430000000  0.5019280000000  0.5327200000000 1.0
C      1  0.5840010000000  0.4873310000000  0.4542800000000 1.0
C      1  0.4252880000000  0.5354680000000  0.5225960000000 1.0
C      1  0.4900610000000  0.5606810000000  0.4147870000000 1.0
C      1  0.5124050000000  0.4607700000000  0.5939410000000 1.0
C      1  0.5237130000000  0.4313620000000  0.4237760000000 1.0
C      1  0.5795290000000  0.4588530000000  0.4629970000000 1.0
C      1  0.4488150000000  0.4550750000000  0.4222490000000 1.0
C      1  0.5446140000000  0.5282430000000  0.5829930000000 1.0
C      1  0.4273080000000  0.4882870000000  0.4553770000000 1.0
C      1  0.5532080000000  0.4185680000000  0.4597000000000 1.0
C      1  0.5800750000000  0.5045880000000  0.4780520000000 1.0
C      1  0.4299670000000  0.5152320000000  0.4434620000000 1.0
C      1  0.5581290000000  0.5450620000000  0.4901330000000 1.0
C      1  0.5114030000000  0.5427310000000  0.4077170000000 1.0
C      1  0.5589400000000  0.4360250000000  0.5594750000000 1.0
C      1  0.5659550000000  0.4232890000000  0.5084760000000 1.0
C      1  0.4896110000000  0.5537940000000  0.5199500000000 1.0
C      1  0.4332910000000  0.4262630000000  0.5138420000000 1.0
C      1  0.5974980000000  0.5193770000000  0.4973860000000 1.0
C      1  0.5059400000000  0.4106410000000  0.5143880000000 1.0
C      1  0.4649460000000  0.4836140000000  0.5798050000000 1.0
C      1  0.5411010000000  0.5777420000000  0.5199950000000 1.0
C      1  0.4053780000000  0.5146600000000  0.5221320000000 1.0
C      1  0.4936140000000  0.4696430000000  0.4269090000000 1.0
C      1  0.4680460000000  0.4728380000000  0.4123370000000 1.0
C      1  0.4315180000000  0.5552170000000  0.4999820000000 1.0
C      1  0.5157750000000  0.5913290000000  0.4755410000000 1.0
C      1  0.6084450000000  0.5044550000000  0.5190800000000 1.0
C      1  0.5529000000000  0.4491180000000  0.4546230000000 1.0
C      1  0.5024320000000  0.5164080000000  0.3997400000000 1.0
C      1  0.5217390000000  0.5805160000000  0.4488910000000 1.0
C      1  0.4492590000000  0.5613360000000  0.4481780000000 1.0
C      1  0.5819360000000  0.5430000000000  0.5073800000000 1.0
C      1  0.5574220000000  0.5696880000000  0.4732430000000 1.0
C      1  0.5761670000000  0.5516730000000  0.5350960000000 1.0
C      1  0.4896760000000  0.5815830000000  0.5310740000000 1.0
C      1  0.5587290000000  0.4804440000000  0.5322130000000 1.0
C      1  0.4271330000000  0.4905670000000  0.5519060000000 1.0
C      1  0.4525720000000  0.4705710000000  0.4942230000000 1.0
C      1  0.5168320000000  0.4359660000000  0.5827430000000 1.0
C      1  0.5012460000000  0.5295760000000  0.4424740000000 1.0
C      1  0.4345480000000  0.5459420000000  0.5489920000000 1.0
C      1  0.5473640000000  0.4514360000000  0.4253770000000 1.0
C      1  0.5505840000000  0.5246830000000  0.4422690000000 1.0
C      1  0.4589650000000  0.4993820000000  0.4140210000000 1.0
C      1  0.4040220000000  0.4653240000000  0.5053380000000 1.0
C      1  0.5879290000000  0.4977290000000  0.5812230000000 1.0
C      1  0.5300520000000  0.5308430000000  0.5362180000000 1.0
C      1  0.5343880000000  0.5003080000000  0.5345620000000 1.0
C      1  0.4439670000000  0.4643900000000  0.4483560000000 1.0
C      1  0.4979300000000  0.4656170000000  0.5293370000000 1.0
C      1  0.5355270000000  0.5018890000000  0.4801880000000 1.0
C      1  0.4552750000000  0.5245640000000  0.4572480000000 1.0
C      1  0.4461440000000  0.5792670000000  0.5135370000000 1.0
C      1  0.4072030000000  0.4956190000000  0.4995280000000 1.0
C      1  0.4971360000000  0.4407500000000  0.4325210000000 1.0
C      1  0.4574410000000  0.4180030000000  0.5021520000000 1.0
C      1  0.4645670000000  0.5471660000000  0.4156830000000 1.0
C      1  0.5450340000000  0.5624110000000  0.4475820000000 1.0
C      1  0.4524730000000  0.5290380000000  0.5675720000000 1.0
C      1  0.3912960000000  0.5056210000000  0.4747710000000 1.0
C      1  0.4997410000000  0.4550710000000  0.5014810000000 1.0
C      1  0.5401250000000  0.4991630000000  0.5785480000000 1.0
C      1  0.4240440000000  0.4514760000000  0.5219650000000 1.0
C      1  0.5850010000000  0.4961040000000  0.5332290000000 1.0
C      1  0.4903220000000  0.5031220000000  0.5869440000000 1.0
C      1  0.4729960000000  0.5929640000000  0.5072980000000 1.0
C      1  0.4859040000000  0.5879080000000  0.4810120000000 1.0
C      1  0.5545950000000  0.4603840000000  0.5074580000000 1.0
C      1  0.5643230000000  0.4822320000000  0.5811810000000 1.0
C      1  0.4253790000000  0.5541850000000  0.4693670000000 1.0
C      1  0.5234030000000  0.5109300000000  0.4386010000000 1.0
C      1  0.5019600000000  0.5375750000000  0.4710890000000 1.0
C      1  0.5236170000000  0.5364670000000  0.5999650000000 1.0
C      1  0.5646640000000  0.4645970000000  0.5574890000000 1.0
C      1  0.4675220000000  0.4716550000000  0.5299360000000 1.0
C      1  0.5126250000000  0.5168770000000  0.4894860000000 1.0
C      1  0.5652740000000  0.4983610000000  0.4314210000000 1.0
C      1  0.5492130000000  0.4099260000000  0.4880630000000 1.0
C      1  0.4593090000000  0.4587830000000  0.5572190000000 1.0
C      1  0.4863720000000  0.4288100000000  0.4582400000000 1.0
C      1  0.5068490000000  0.4095840000000  0.4647510000000 1.0
C      1  0.4686740000000  0.5167780000000  0.5084830000000 1.0
C      1  0.5458140000000  0.5460980000000  0.5578270000000 1.0
C      1  0.3979690000000  0.4787250000000  0.4593670000000 1.0
C      1  0.5216730000000  0.4158510000000  0.5381010000000 1.0
C      1  0.4806790000000  0.4260620000000  0.5191070000000 1.0
C      1  0.5491580000000  0.4256820000000  0.5339530000000 1.0
C      1  0.5282460000000  0.4563500000000  0.4897620000000 1.0
C      1  0.4829630000000  0.4758260000000  0.4865290000000 1.0
END
