TITL C-950529-3362-270 -5.30026117098017e-06 125000 -513.218075163937 0 0 82 (C1) n - 1
REM
REM in /home/bkarasulu/work/CARBON/AIRSS/Generating-Clusters/EDIP-Nigel-Params/with-SteepDescent/Only-C1/SD-CG/HFTN-CG
REM
REM
REM
REM
REM
REM ./C.cell (11c1c37f851c82e70ff6c80c92926a4b)
REM
REM compiler GCC version 9.2.1 20190827 (Red Hat 9.2.1-1)
REM options -cpp -mtune=generic -march=x86-64 -g -O0 -fpre-include=/usr/include/finclude/math-vector-fortran.h
REM seed 552568543 -1294139284 -646139730 -302074993 638174750 -953669468 -1435430157 1781747603 -1653361422 1127896390 -287165161 309879313 -20464366 -56439432 1607052949 898994057 -27179228 -410128047 165920988 -1217719146 1302593986 -851968763 853680926 51727381 -738120185 887983880 -1190853290 -2014205424 92240111 -1029464822 1538012993 -113885215 1992345980
REM
CELL 1.54180   50.00000   50.00000   50.00000   90.00000   90.00000   90.00000
LATT -1
SFAC C  
C      1  0.4912560000000  0.5362370000000  0.4226530000000 1.0
C      1  0.4837130000000  0.5304740000000  0.5615400000000 1.0
C      1  0.4347060000000  0.5250490000000  0.5596850000000 1.0
C      1  0.4408730000000  0.4748690000000  0.5068080000000 1.0
C      1  0.5399490000000  0.4238400000000  0.4828670000000 1.0
C      1  0.5506450000000  0.4808230000000  0.4517910000000 1.0
C      1  0.5544960000000  0.5105940000000  0.4536440000000 1.0
C      1  0.5323030000000  0.5433270000000  0.5550890000000 1.0
C      1  0.4559900000000  0.5432460000000  0.5607150000000 1.0
C      1  0.4820320000000  0.4417970000000  0.4852150000000 1.0
C      1  0.4567280000000  0.5605860000000  0.5363910000000 1.0
C      1  0.5143820000000  0.4626390000000  0.5713380000000 1.0
C      1  0.4354870000000  0.4994320000000  0.5484110000000 1.0
C      1  0.5489570000000  0.5386240000000  0.5313380000000 1.0
C      1  0.5311470000000  0.4714930000000  0.4735910000000 1.0
C      1  0.4447880000000  0.5439370000000  0.4420540000000 1.0
C      1  0.4860990000000  0.4580170000000  0.5650750000000 1.0
C      1  0.4719420000000  0.4826540000000  0.5730530000000 1.0
C      1  0.5074880000000  0.5810520000000  0.4975910000000 1.0
C      1  0.5113080000000  0.5706280000000  0.4696940000000 1.0
C      1  0.5212900000000  0.4173500000000  0.5066000000000 1.0
C      1  0.5750530000000  0.4665110000000  0.4547550000000 1.0
C      1  0.5696560000000  0.5034770000000  0.5022330000000 1.0
C      1  0.4357250000000  0.5525260000000  0.5156420000000 1.0
C      1  0.5108020000000  0.5142100000000  0.4734980000000 1.0
C      1  0.5644220000000  0.5138870000000  0.5297440000000 1.0
C      1  0.4607090000000  0.5163710000000  0.4920280000000 1.0
C      1  0.4498800000000  0.4638700000000  0.4547920000000 1.0
C      1  0.4256550000000  0.4973420000000  0.5215030000000 1.0
C      1  0.5327130000000  0.4499200000000  0.5516690000000 1.0
C      1  0.4822130000000  0.5395920000000  0.5021600000000 1.0
C      1  0.5089030000000  0.4767640000000  0.5161770000000 1.0
C      1  0.5359610000000  0.4747810000000  0.5028260000000 1.0
C      1  0.4410110000000  0.5651630000000  0.4888120000000 1.0
C      1  0.5211250000000  0.4444600000000  0.4375340000000 1.0
C      1  0.5342630000000  0.4717320000000  0.4273150000000 1.0
C      1  0.5354320000000  0.5476460000000  0.5069850000000 1.0
C      1  0.5836200000000  0.4555090000000  0.4790870000000 1.0
C      1  0.5412430000000  0.5326270000000  0.5795800000000 1.0
C      1  0.5570700000000  0.4655800000000  0.5448500000000 1.0
C      1  0.5844360000000  0.4769880000000  0.5022470000000 1.0
C      1  0.5174890000000  0.4900960000000  0.5818100000000 1.0
C      1  0.5283580000000  0.5253360000000  0.4521200000000 1.0
C      1  0.5278300000000  0.5745050000000  0.5148050000000 1.0
C      1  0.4632840000000  0.4883450000000  0.4441770000000 1.0
C      1  0.4893420000000  0.4730660000000  0.4932560000000 1.0
C      1  0.5227870000000  0.4437370000000  0.4675210000000 1.0
C      1  0.5046330000000  0.4858930000000  0.4698510000000 1.0
C      1  0.4710450000000  0.5672820000000  0.4875080000000 1.0
C      1  0.5419690000000  0.5048940000000  0.5750190000000 1.0
C      1  0.5679150000000  0.5216870000000  0.4781630000000 1.0
C      1  0.4551790000000  0.4515320000000  0.5234570000000 1.0
C      1  0.4251120000000  0.4998770000000  0.4639400000000 1.0
C      1  0.5102600000000  0.5266430000000  0.5006360000000 1.0
C      1  0.4843740000000  0.4531410000000  0.5353630000000 1.0
C      1  0.4834750000000  0.5663630000000  0.4600320000000 1.0
C      1  0.4818110000000  0.5127600000000  0.5377200000000 1.0
C      1  0.4915420000000  0.4508410000000  0.4364160000000 1.0
C      1  0.4918760000000  0.4805330000000  0.4421550000000 1.0
C      1  0.4949960000000  0.4155720000000  0.4943230000000 1.0
C      1  0.5666620000000  0.4335160000000  0.4915500000000 1.0
C      1  0.4300150000000  0.4721730000000  0.4770990000000 1.0
C      1  0.5149260000000  0.5211670000000  0.4252190000000 1.0
C      1  0.4161320000000  0.5233360000000  0.4804980000000 1.0
C      1  0.4635810000000  0.4893440000000  0.5438230000000 1.0
C      1  0.5182270000000  0.4367210000000  0.5291490000000 1.0
C      1  0.5034410000000  0.5512390000000  0.5515080000000 1.0
C      1  0.5572380000000  0.4947090000000  0.5516590000000 1.0
C      1  0.4535280000000  0.5119050000000  0.4602340000000 1.0
C      1  0.5599960000000  0.4620960000000  0.5152510000000 1.0
C      1  0.4333210000000  0.5226040000000  0.5051990000000 1.0
C      1  0.4709540000000  0.4414840000000  0.4571450000000 1.0
C      1  0.4737020000000  0.5464090000000  0.4419060000000 1.0
C      1  0.5347710000000  0.5537850000000  0.4606970000000 1.0
C      1  0.4908690000000  0.5038190000000  0.5836100000000 1.0
C      1  0.4616030000000  0.4313670000000  0.5042640000000 1.0
C      1  0.5540460000000  0.5482990000000  0.4831560000000 1.0
C      1  0.5059890000000  0.5060010000000  0.5228330000000 1.0
C      1  0.5108950000000  0.4916900000000  0.4209890000000 1.0
C      1  0.4666480000000  0.4895690000000  0.5039550000000 1.0
C      1  0.4280100000000  0.5485670000000  0.4669450000000 1.0
C      1  0.4866950000000  0.5624730000000  0.5264620000000 1.0
END
