TITL C-951336-9012-220 -3.96210725009715e-06 125000 -1220.9558400654 0 0 196 (C1) n - 1
REM
REM in /home/bkarasulu/work/CARBON/AIRSS/Generating-Clusters/EDIP-Nigel-Params/with-SteepDescent/Only-C1/SD-CG/HFTN-CG
REM
REM
REM
REM
REM
REM ./C.cell (11c1c37f851c82e70ff6c80c92926a4b)
REM
REM compiler GCC version 9.2.1 20190827 (Red Hat 9.2.1-1)
REM options -cpp -mtune=generic -march=x86-64 -g -O0 -fpre-include=/usr/include/finclude/math-vector-fortran.h
REM seed -1418972843 -1809958049 1375444667 -2002246076 519964412 -97612406 -276041534 -16361245 -171369239 -1862256947 -2097523612 294514282 -202782960 338351664 -1485266125 -2134237167 -1427125172 1389349371 1253914966 -1262433158 -713407307 50963213 -83601958 2090503195 -485875287 -1521458267 1929779703 -1577909879 79300408 1579825461 -582987417 1118810641 1971884421
REM
CELL 1.54180   50.00000   50.00000   50.00000   90.00000   90.00000   90.00000
LATT -1
SFAC C  
C      1  0.3997570000000  0.5518020000000  0.4848540000000 1.0
C      1  0.4400890000000  0.4984030000000  0.3863270000000 1.0
C      1  0.5174400000000  0.4176760000000  0.5951750000000 1.0
C      1  0.4294670000000  0.5643960000000  0.5479910000000 1.0
C      1  0.5248260000000  0.5290530000000  0.4032850000000 1.0
C      1  0.5233100000000  0.5272370000000  0.5708060000000 1.0
C      1  0.5204570000000  0.4683840000000  0.5320500000000 1.0
C      1  0.4782770000000  0.5279940000000  0.5480160000000 1.0
C      1  0.5101170000000  0.3846400000000  0.5508240000000 1.0
C      1  0.4851100000000  0.4483510000000  0.5013210000000 1.0
C      1  0.4896050000000  0.5444370000000  0.5013700000000 1.0
C      1  0.5520420000000  0.4086040000000  0.5438770000000 1.0
C      1  0.5022190000000  0.4830780000000  0.5500220000000 1.0
C      1  0.5539150000000  0.4780370000000  0.4355650000000 1.0
C      1  0.5373150000000  0.3954620000000  0.4856110000000 1.0
C      1  0.5567200000000  0.5554100000000  0.4337090000000 1.0
C      1  0.5818710000000  0.4666050000000  0.5813190000000 1.0
C      1  0.4592430000000  0.4870650000000  0.5695320000000 1.0
C      1  0.4783550000000  0.4901850000000  0.5931090000000 1.0
C      1  0.4870710000000  0.5539780000000  0.3869280000000 1.0
C      1  0.4091060000000  0.5179980000000  0.4514910000000 1.0
C      1  0.5420920000000  0.5944490000000  0.4608450000000 1.0
C      1  0.4216160000000  0.5102590000000  0.5954580000000 1.0
C      1  0.4806280000000  0.6033490000000  0.5597890000000 1.0
C      1  0.4974660000000  0.4354500000000  0.5617910000000 1.0
C      1  0.4565350000000  0.3846930000000  0.5367370000000 1.0
C      1  0.4829590000000  0.5267320000000  0.3799950000000 1.0
C      1  0.4795570000000  0.4536160000000  0.4578070000000 1.0
C      1  0.5089380000000  0.5549990000000  0.5723980000000 1.0
C      1  0.5119140000000  0.5733170000000  0.4662750000000 1.0
C      1  0.4198870000000  0.4143230000000  0.5036000000000 1.0
C      1  0.5112780000000  0.5563920000000  0.4015010000000 1.0
C      1  0.4741490000000  0.3881660000000  0.5152300000000 1.0
C      1  0.4755500000000  0.4295420000000  0.4183430000000 1.0
C      1  0.4074200000000  0.4896130000000  0.5113750000000 1.0
C      1  0.5055730000000  0.4530880000000  0.4461870000000 1.0
C      1  0.3955300000000  0.4738290000000  0.4622830000000 1.0
C      1  0.5251370000000  0.4559840000000  0.4659620000000 1.0
C      1  0.5229090000000  0.5772990000000  0.5491100000000 1.0
C      1  0.4766050000000  0.5183660000000  0.6058380000000 1.0
C      1  0.5042340000000  0.5724810000000  0.4972260000000 1.0
C      1  0.4327090000000  0.5344670000000  0.5871420000000 1.0
C      1  0.5059910000000  0.5588330000000  0.6039940000000 1.0
C      1  0.4069680000000  0.4906320000000  0.4423140000000 1.0
C      1  0.4913280000000  0.5988850000000  0.5047240000000 1.0
C      1  0.5711740000000  0.4465300000000  0.5621460000000 1.0
C      1  0.4217230000000  0.5649500000000  0.4444490000000 1.0
C      1  0.4324090000000  0.4477810000000  0.4451480000000 1.0
C      1  0.4387650000000  0.5159810000000  0.4972970000000 1.0
C      1  0.5680450000000  0.4462870000000  0.5094450000000 1.0
C      1  0.5573060000000  0.4947650000000  0.3929710000000 1.0
C      1  0.5995470000000  0.5188540000000  0.4696910000000 1.0
C      1  0.5438830000000  0.4733690000000  0.4074060000000 1.0
C      1  0.5146080000000  0.5776790000000  0.4224710000000 1.0
C      1  0.4623900000000  0.5969280000000  0.5377360000000 1.0
C      1  0.5012300000000  0.5308540000000  0.6150390000000 1.0
C      1  0.4041400000000  0.4367820000000  0.4935840000000 1.0
C      1  0.4539110000000  0.4187110000000  0.5734630000000 1.0
C      1  0.4782630000000  0.5500970000000  0.5673940000000 1.0
C      1  0.5593450000000  0.4783120000000  0.5975820000000 1.0
C      1  0.4583340000000  0.5972540000000  0.4707650000000 1.0
C      1  0.5837520000000  0.5596480000000  0.4457160000000 1.0
C      1  0.5677200000000  0.5771610000000  0.5254090000000 1.0
C      1  0.5020290000000  0.3847480000000  0.5223240000000 1.0
C      1  0.4645220000000  0.3954130000000  0.4876370000000 1.0
C      1  0.4706380000000  0.5456420000000  0.5239010000000 1.0
C      1  0.4763070000000  0.5915120000000  0.5852640000000 1.0
C      1  0.5827150000000  0.4217910000000  0.4829270000000 1.0
C      1  0.5512370000000  0.4460940000000  0.4012690000000 1.0
C      1  0.6050440000000  0.4735740000000  0.4884780000000 1.0
C      1  0.5505070000000  0.4707740000000  0.4989580000000 1.0
C      1  0.4476630000000  0.5709420000000  0.4298210000000 1.0
C      1  0.5088220000000  0.6044810000000  0.5496230000000 1.0
C      1  0.5325580000000  0.4033110000000  0.4581530000000 1.0
C      1  0.5093790000000  0.5202980000000  0.5083540000000 1.0
C      1  0.5945610000000  0.5328430000000  0.4429030000000 1.0
C      1  0.5631070000000  0.4045130000000  0.4969220000000 1.0
C      1  0.4674330000000  0.4798490000000  0.4624700000000 1.0
C      1  0.4226840000000  0.5391180000000  0.5600700000000 1.0
C      1  0.4057180000000  0.5219750000000  0.5173590000000 1.0
C      1  0.4117970000000  0.4877620000000  0.5819840000000 1.0
C      1  0.4625090000000  0.5126600000000  0.3971870000000 1.0
C      1  0.5443750000000  0.5571750000000  0.5992910000000 1.0
C      1  0.4754680000000  0.5341860000000  0.4753330000000 1.0
C      1  0.4098670000000  0.4492220000000  0.4663180000000 1.0
C      1  0.5327430000000  0.4001700000000  0.5636080000000 1.0
C      1  0.5478620000000  0.4836980000000  0.5258860000000 1.0
C      1  0.4967240000000  0.4091920000000  0.5760670000000 1.0
C      1  0.5349250000000  0.4255140000000  0.4154230000000 1.0
C      1  0.5534440000000  0.5317980000000  0.5309700000000 1.0
C      1  0.4461220000000  0.5363330000000  0.4779400000000 1.0
C      1  0.5954310000000  0.4876180000000  0.5648390000000 1.0
C      1  0.4688050000000  0.4512870000000  0.4004030000000 1.0
C      1  0.5569860000000  0.4927900000000  0.4775330000000 1.0
C      1  0.5027100000000  0.4708910000000  0.5074390000000 1.0
C      1  0.4820320000000  0.4584140000000  0.5959810000000 1.0
C      1  0.4600190000000  0.5030190000000  0.5164140000000 1.0
C      1  0.4736930000000  0.4703730000000  0.5475550000000 1.0
C      1  0.5788600000000  0.4351000000000  0.4257790000000 1.0
C      1  0.5104010000000  0.6150930000000  0.5214070000000 1.0
C      1  0.6039230000000  0.4912020000000  0.5140200000000 1.0
C      1  0.5423740000000  0.5366610000000  0.4551610000000 1.0
C      1  0.5815350000000  0.4882710000000  0.4230250000000 1.0
C      1  0.5138790000000  0.5447950000000  0.4571940000000 1.0
C      1  0.3891600000000  0.5287300000000  0.4708910000000 1.0
C      1  0.4550170000000  0.4453210000000  0.5859790000000 1.0
C      1  0.5788490000000  0.5648410000000  0.4749120000000 1.0
C      1  0.5532820000000  0.4257110000000  0.4403240000000 1.0
C      1  0.5416190000000  0.5811770000000  0.4343280000000 1.0
C      1  0.4730170000000  0.4388130000000  0.5464180000000 1.0
C      1  0.4455400000000  0.4716200000000  0.4799880000000 1.0
C      1  0.5362980000000  0.5115080000000  0.5209380000000 1.0
C      1  0.4867250000000  0.5014910000000  0.4727290000000 1.0
C      1  0.5044790000000  0.5126700000000  0.5514110000000 1.0
C      1  0.4551570000000  0.5107450000000  0.5512600000000 1.0
C      1  0.4102370000000  0.4419290000000  0.5404690000000 1.0
C      1  0.4436350000000  0.4061750000000  0.5491790000000 1.0
C      1  0.6016790000000  0.5395790000000  0.5348180000000 1.0
C      1  0.5582090000000  0.5431530000000  0.4823830000000 1.0
C      1  0.5054540000000  0.4282850000000  0.4290410000000 1.0
C      1  0.5611760000000  0.5997700000000  0.5064130000000 1.0
C      1  0.5227500000000  0.5149770000000  0.6066340000000 1.0
C      1  0.5555420000000  0.5223230000000  0.4042700000000 1.0
C      1  0.5041450000000  0.4063730000000  0.4500260000000 1.0
C      1  0.5770760000000  0.5170840000000  0.4255390000000 1.0
C      1  0.5112950000000  0.4961820000000  0.4535110000000 1.0
C      1  0.3979040000000  0.4935610000000  0.5546080000000 1.0
C      1  0.4775420000000  0.4097200000000  0.4646030000000 1.0
C      1  0.4900490000000  0.4636020000000  0.3866900000000 1.0
C      1  0.3713790000000  0.4921700000000  0.5040930000000 1.0
C      1  0.5409370000000  0.5026330000000  0.4531960000000 1.0
C      1  0.5529670000000  0.5813510000000  0.5538160000000 1.0
C      1  0.3916090000000  0.4493090000000  0.5192690000000 1.0
C      1  0.5158800000000  0.4016170000000  0.5043330000000 1.0
C      1  0.4226340000000  0.4908140000000  0.4831310000000 1.0
C      1  0.4331150000000  0.5917970000000  0.5136070000000 1.0
C      1  0.5529630000000  0.4209800000000  0.5184100000000 1.0
C      1  0.6131590000000  0.5200410000000  0.5154590000000 1.0
C      1  0.4933770000000  0.5914750000000  0.4375730000000 1.0
C      1  0.5943710000000  0.4473470000000  0.4750290000000 1.0
C      1  0.4783990000000  0.4918380000000  0.4138560000000 1.0
C      1  0.4561400000000  0.4566450000000  0.5029620000000 1.0
C      1  0.4618480000000  0.4320340000000  0.4461530000000 1.0
C      1  0.4371690000000  0.3998760000000  0.4874930000000 1.0
C      1  0.4376110000000  0.5846490000000  0.4862140000000 1.0
C      1  0.4024140000000  0.5221840000000  0.5467230000000 1.0
C      1  0.4949970000000  0.5336030000000  0.4359890000000 1.0
C      1  0.4244240000000  0.4676530000000  0.5447690000000 1.0
C      1  0.5494420000000  0.4530940000000  0.4531860000000 1.0
C      1  0.5804800000000  0.4550070000000  0.5348860000000 1.0
C      1  0.5975160000000  0.4487540000000  0.4452890000000 1.0
C      1  0.6108070000000  0.4909170000000  0.4654980000000 1.0
C      1  0.4573430000000  0.4916760000000  0.4373560000000 1.0
C      1  0.4770410000000  0.6124570000000  0.4846540000000 1.0
C      1  0.4428550000000  0.4518770000000  0.3898600000000 1.0
C      1  0.4624110000000  0.5426750000000  0.5940280000000 1.0
C      1  0.5855030000000  0.4834990000000  0.5363480000000 1.0
C      1  0.4179930000000  0.5377430000000  0.4315470000000 1.0
C      1  0.5963800000000  0.5655330000000  0.5219830000000 1.0
C      1  0.5226660000000  0.4395990000000  0.5441460000000 1.0
C      1  0.6040890000000  0.4769700000000  0.4397840000000 1.0
C      1  0.5370830000000  0.6134200000000  0.5115700000000 1.0
C      1  0.5888000000000  0.5126740000000  0.5780450000000 1.0
C      1  0.3798640000000  0.5216650000000  0.5004260000000 1.0
C      1  0.4582410000000  0.5683240000000  0.5434420000000 1.0
C      1  0.4311100000000  0.4760990000000  0.4301890000000 1.0
C      1  0.4924990000000  0.4274800000000  0.5215230000000 1.0
C      1  0.4473260000000  0.5400960000000  0.4198980000000 1.0
C      1  0.5929600000000  0.5359620000000  0.5620710000000 1.0
C      1  0.4313220000000  0.4751960000000  0.3997590000000 1.0
C      1  0.5340690000000  0.4636590000000  0.5889700000000 1.0
C      1  0.5497910000000  0.5549430000000  0.5138460000000 1.0
C      1  0.6034100000000  0.5618300000000  0.4931270000000 1.0
C      1  0.5584480000000  0.5605720000000  0.5737760000000 1.0
C      1  0.5478130000000  0.5285200000000  0.6074500000000 1.0
C      1  0.4675170000000  0.5835060000000  0.4471310000000 1.0
C      1  0.4269010000000  0.4207640000000  0.5310040000000 1.0
C      1  0.3762070000000  0.4746030000000  0.5284270000000 1.0
C      1  0.5076530000000  0.4845670000000  0.3844940000000 1.0
C      1  0.4518120000000  0.4744400000000  0.5256750000000 1.0
C      1  0.5089760000000  0.5128050000000  0.3830790000000 1.0
C      1  0.5647560000000  0.5910110000000  0.4786140000000 1.0
C      1  0.5645700000000  0.5076290000000  0.5938530000000 1.0
C      1  0.5117080000000  0.4471660000000  0.6015480000000 1.0
C      1  0.4145790000000  0.5756590000000  0.5270980000000 1.0
C      1  0.4348370000000  0.4692190000000  0.5745140000000 1.0
C      1  0.4904510000000  0.4978830000000  0.5023970000000 1.0
C      1  0.5419590000000  0.4431080000000  0.5689940000000 1.0
C      1  0.5729540000000  0.5167660000000  0.4851370000000 1.0
C      1  0.5030290000000  0.5065380000000  0.4265820000000 1.0
C      1  0.5234290000000  0.5663090000000  0.5199830000000 1.0
C      1  0.4779400000000  0.5721640000000  0.6054950000000 1.0
C      1  0.4263070000000  0.5597700000000  0.4739070000000 1.0
C      1  0.5541080000000  0.5332720000000  0.5609300000000 1.0
C      1  0.6159540000000  0.5346170000000  0.4894650000000 1.0
C      1  0.4646260000000  0.5250000000000  0.4395740000000 1.0
END
