TITL C-951345-2650-148 4.9523695235569e-07 125000 -954.384623548078 0 0 152 (C1) n - 1
REM
REM in /home/bkarasulu/work/CARBON/AIRSS/Generating-Clusters/EDIP-Nigel-Params/with-SteepDescent/Only-C1/SD-CG/HFTN-CG
REM
REM
REM
REM
REM
REM ./C.cell (11c1c37f851c82e70ff6c80c92926a4b)
REM
REM compiler GCC version 9.2.1 20190827 (Red Hat 9.2.1-1)
REM options -cpp -mtune=generic -march=x86-64 -g -O0 -fpre-include=/usr/include/finclude/math-vector-fortran.h
REM seed -701242138 -1562792793 1981767441 1796995316 -199689776 423958578 1325816512 -168244738 -1412965337 1772536804 1350091681 -1581333035 582274047 330392499 -451287272 -1195727794 -1736531950 464027162 1333594067 -1943847305 -1259909816 1034506155 1667804108 782523271 220801607 774309603 276975477 -6852466 30603487 -1303539151 -1347016700 -1661728684 1551574689
REM
CELL 1.54180   50.00000   50.00000   50.00000   90.00000   90.00000   90.00000
LATT -1
SFAC C  
C      1  0.6037670000000  0.4847700000000  0.4588310000000 1.0
C      1  0.4695900000000  0.4828640000000  0.5372760000000 1.0
C      1  0.5111930000000  0.5144760000000  0.5290340000000 1.0
C      1  0.5838210000000  0.4205720000000  0.5029480000000 1.0
C      1  0.4240550000000  0.5644480000000  0.4470830000000 1.0
C      1  0.4452000000000  0.5270580000000  0.5992610000000 1.0
C      1  0.4738780000000  0.4530370000000  0.4708960000000 1.0
C      1  0.5882940000000  0.4598060000000  0.4631720000000 1.0
C      1  0.4489740000000  0.5502740000000  0.4228980000000 1.0
C      1  0.5049870000000  0.4819850000000  0.4967830000000 1.0
C      1  0.5380270000000  0.5391340000000  0.5792420000000 1.0
C      1  0.4653790000000  0.5386740000000  0.5270570000000 1.0
C      1  0.3975550000000  0.4838080000000  0.4645340000000 1.0
C      1  0.5070690000000  0.4359900000000  0.5801410000000 1.0
C      1  0.4792830000000  0.4698590000000  0.4446700000000 1.0
C      1  0.5193410000000  0.4473210000000  0.4098600000000 1.0
C      1  0.4881620000000  0.6028090000000  0.4974000000000 1.0
C      1  0.4059240000000  0.4741530000000  0.5102990000000 1.0
C      1  0.4694960000000  0.4589620000000  0.5555360000000 1.0
C      1  0.5850520000000  0.5039320000000  0.4484980000000 1.0
C      1  0.4696100000000  0.4487150000000  0.4137150000000 1.0
C      1  0.5341340000000  0.5085920000000  0.4184910000000 1.0
C      1  0.4349540000000  0.4769510000000  0.5850850000000 1.0
C      1  0.5028930000000  0.5827230000000  0.5375760000000 1.0
C      1  0.5171370000000  0.4563310000000  0.4625450000000 1.0
C      1  0.4892080000000  0.5256640000000  0.5106900000000 1.0
C      1  0.5492400000000  0.5529120000000  0.4471220000000 1.0
C      1  0.4954300000000  0.4333260000000  0.4174090000000 1.0
C      1  0.5824480000000  0.4578700000000  0.5389980000000 1.0
C      1  0.5386350000000  0.4975360000000  0.4666110000000 1.0
C      1  0.6156260000000  0.4808920000000  0.5178860000000 1.0
C      1  0.4122200000000  0.5559880000000  0.5371560000000 1.0
C      1  0.5126960000000  0.5377590000000  0.5496150000000 1.0
C      1  0.5469750000000  0.5412090000000  0.4960830000000 1.0
C      1  0.4718320000000  0.5720330000000  0.5339510000000 1.0
C      1  0.4895290000000  0.3871840000000  0.5127370000000 1.0
C      1  0.5545080000000  0.4686720000000  0.5375240000000 1.0
C      1  0.4613190000000  0.4669390000000  0.5836340000000 1.0
C      1  0.4499170000000  0.4388250000000  0.4346890000000 1.0
C      1  0.4958920000000  0.4189260000000  0.4438100000000 1.0
C      1  0.4647830000000  0.5886740000000  0.5094310000000 1.0
C      1  0.5070400000000  0.5582090000000  0.4761200000000 1.0
C      1  0.4608720000000  0.5481860000000  0.4654620000000 1.0
C      1  0.5879500000000  0.5593410000000  0.5352050000000 1.0
C      1  0.4461860000000  0.4282870000000  0.5557350000000 1.0
C      1  0.4644520000000  0.5934170000000  0.4452210000000 1.0
C      1  0.4289920000000  0.5586860000000  0.5614250000000 1.0
C      1  0.4299010000000  0.5335170000000  0.5768460000000 1.0
C      1  0.5531480000000  0.5130360000000  0.5804300000000 1.0
C      1  0.4115720000000  0.5145030000000  0.5646790000000 1.0
C      1  0.4453610000000  0.5261930000000  0.4789710000000 1.0
C      1  0.5200390000000  0.4731580000000  0.3965780000000 1.0
C      1  0.4330170000000  0.4606130000000  0.4440680000000 1.0
C      1  0.4053980000000  0.5263370000000  0.5380630000000 1.0
C      1  0.5594220000000  0.5634720000000  0.5385970000000 1.0
C      1  0.5770640000000  0.4919020000000  0.4959660000000 1.0
C      1  0.4979340000000  0.4891800000000  0.5397770000000 1.0
C      1  0.5087520000000  0.4902460000000  0.5927820000000 1.0
C      1  0.5336860000000  0.5935180000000  0.5006600000000 1.0
C      1  0.4677090000000  0.4261620000000  0.4561930000000 1.0
C      1  0.4324980000000  0.4439570000000  0.5363010000000 1.0
C      1  0.5369740000000  0.5150240000000  0.5115620000000 1.0
C      1  0.5603920000000  0.4661450000000  0.4206560000000 1.0
C      1  0.5124100000000  0.5403760000000  0.5937310000000 1.0
C      1  0.5426470000000  0.5665160000000  0.5141850000000 1.0
C      1  0.5172980000000  0.5809170000000  0.5648800000000 1.0
C      1  0.4880240000000  0.4596860000000  0.5046150000000 1.0
C      1  0.5133310000000  0.4179720000000  0.4915210000000 1.0
C      1  0.4008230000000  0.5592150000000  0.4887300000000 1.0
C      1  0.4428820000000  0.4913890000000  0.5279020000000 1.0
C      1  0.4228220000000  0.5617550000000  0.5071580000000 1.0
C      1  0.4231980000000  0.5134370000000  0.5174350000000 1.0
C      1  0.5745360000000  0.5229400000000  0.5390110000000 1.0
C      1  0.6071580000000  0.4979850000000  0.4942950000000 1.0
C      1  0.5754050000000  0.5358590000000  0.4831860000000 1.0
C      1  0.5986640000000  0.4919240000000  0.5684480000000 1.0
C      1  0.4130440000000  0.4576950000000  0.4650240000000 1.0
C      1  0.5995260000000  0.4804140000000  0.5425400000000 1.0
C      1  0.4401930000000  0.5356270000000  0.5073790000000 1.0
C      1  0.4514420000000  0.4979560000000  0.4128750000000 1.0
C      1  0.4474040000000  0.5744650000000  0.4636040000000 1.0
C      1  0.4709100000000  0.4778780000000  0.4023860000000 1.0
C      1  0.4501110000000  0.5785630000000  0.5638810000000 1.0
C      1  0.5105820000000  0.4642150000000  0.5487580000000 1.0
C      1  0.5728960000000  0.4060380000000  0.5236830000000 1.0
C      1  0.5513590000000  0.4205800000000  0.5334690000000 1.0
C      1  0.5090180000000  0.4700960000000  0.4388110000000 1.0
C      1  0.5790190000000  0.5121160000000  0.5660430000000 1.0
C      1  0.4674670000000  0.4017570000000  0.5213360000000 1.0
C      1  0.5686900000000  0.4186540000000  0.4787350000000 1.0
C      1  0.6025890000000  0.5284740000000  0.4984020000000 1.0
C      1  0.4703700000000  0.5626930000000  0.5773680000000 1.0
C      1  0.5524440000000  0.4267730000000  0.4566120000000 1.0
C      1  0.5105660000000  0.3907880000000  0.4965500000000 1.0
C      1  0.4541580000000  0.4711110000000  0.4901220000000 1.0
C      1  0.4931510000000  0.4639400000000  0.5874180000000 1.0
C      1  0.5661600000000  0.4514440000000  0.4446570000000 1.0
C      1  0.4891510000000  0.5058130000000  0.4876900000000 1.0
C      1  0.4700240000000  0.5187580000000  0.6055920000000 1.0
C      1  0.5105170000000  0.5455720000000  0.4133280000000 1.0
C      1  0.5358680000000  0.4891830000000  0.5822800000000 1.0
C      1  0.5074990000000  0.5891570000000  0.4757290000000 1.0
C      1  0.4955480000000  0.5941860000000  0.4479680000000 1.0
C      1  0.4050840000000  0.5488400000000  0.4631920000000 1.0
C      1  0.4544420000000  0.4076850000000  0.4740820000000 1.0
C      1  0.5604930000000  0.5000080000000  0.5215270000000 1.0
C      1  0.4105610000000  0.5024770000000  0.4444370000000 1.0
C      1  0.3987790000000  0.4974370000000  0.4922670000000 1.0
C      1  0.4968000000000  0.4915770000000  0.4019860000000 1.0
C      1  0.4705780000000  0.4153680000000  0.5473110000000 1.0
C      1  0.5083970000000  0.4375180000000  0.5151690000000 1.0
C      1  0.5460720000000  0.4851400000000  0.4045380000000 1.0
C      1  0.4167580000000  0.5221260000000  0.4677330000000 1.0
C      1  0.4412610000000  0.5823260000000  0.4932520000000 1.0
C      1  0.5765580000000  0.4628790000000  0.4907610000000 1.0
C      1  0.4694130000000  0.4978710000000  0.4480500000000 1.0
C      1  0.4944360000000  0.5639160000000  0.4315810000000 1.0
C      1  0.5924030000000  0.5293240000000  0.4386090000000 1.0
C      1  0.4250220000000  0.4579150000000  0.4927850000000 1.0
C      1  0.4514800000000  0.4146640000000  0.5009030000000 1.0
C      1  0.4887570000000  0.5459910000000  0.4556390000000 1.0
C      1  0.5002190000000  0.5507570000000  0.5029690000000 1.0
C      1  0.4930650000000  0.5214980000000  0.4073480000000 1.0
C      1  0.5203130000000  0.4271830000000  0.4628730000000 1.0
C      1  0.5668630000000  0.5070690000000  0.4718170000000 1.0
C      1  0.5107340000000  0.6038880000000  0.5170970000000 1.0
C      1  0.5327560000000  0.5467670000000  0.4706890000000 1.0
C      1  0.4982280000000  0.4271070000000  0.5512530000000 1.0
C      1  0.5439050000000  0.5655440000000  0.5644490000000 1.0
C      1  0.4217720000000  0.4727420000000  0.5373010000000 1.0
C      1  0.4305390000000  0.4862970000000  0.4309260000000 1.0
C      1  0.4997790000000  0.5663290000000  0.5846790000000 1.0
C      1  0.4608480000000  0.4997310000000  0.4774730000000 1.0
C      1  0.5397610000000  0.4461270000000  0.5207450000000 1.0
C      1  0.5484300000000  0.4549710000000  0.4939760000000 1.0
C      1  0.5398290000000  0.5456710000000  0.4199120000000 1.0
C      1  0.5373890000000  0.4661820000000  0.5634770000000 1.0
C      1  0.4830090000000  0.5398220000000  0.5608160000000 1.0
C      1  0.5774550000000  0.5470760000000  0.4549540000000 1.0
C      1  0.5287800000000  0.4737570000000  0.4815210000000 1.0
C      1  0.4312870000000  0.4334500000000  0.5090640000000 1.0
C      1  0.5936040000000  0.4492310000000  0.5115680000000 1.0
C      1  0.4638460000000  0.5254660000000  0.4144080000000 1.0
C      1  0.4160520000000  0.4846340000000  0.5656190000000 1.0
C      1  0.4959880000000  0.5163180000000  0.5958380000000 1.0
C      1  0.4948590000000  0.5156570000000  0.4509780000000 1.0
C      1  0.4669010000000  0.5731430000000  0.4214850000000 1.0
C      1  0.5474580000000  0.4195540000000  0.5609470000000 1.0
C      1  0.6008690000000  0.5344550000000  0.5269510000000 1.0
C      1  0.5201980000000  0.4992470000000  0.4429330000000 1.0
C      1  0.5159460000000  0.5592760000000  0.5260290000000 1.0
C      1  0.5367290000000  0.4393260000000  0.5772760000000 1.0
END
