TITL C-951345-2650-36 -3.31623883600225e-07 125000 -308.588282696492 0 0 50 (C1) n - 1
REM
REM in /home/bkarasulu/work/CARBON/AIRSS/Generating-Clusters/EDIP-Nigel-Params/with-SteepDescent/Only-C1/SD-CG/HFTN-CG
REM
REM
REM
REM
REM
REM ./C.cell (11c1c37f851c82e70ff6c80c92926a4b)
REM
REM compiler GCC version 9.2.1 20190827 (Red Hat 9.2.1-1)
REM options -cpp -mtune=generic -march=x86-64 -g -O0 -fpre-include=/usr/include/finclude/math-vector-fortran.h
REM seed -1616943470 1202250455 -2089979299 143584844 -462498292 -576680582 1025894504 -1655237974 -138403488 1463573892 2138853779 1393930769 1928662192 -1777312796 1037923858 422484824 1829143285 781730570 -2050052086 -460201947 -1412383139 1448596226 319172930 -914768839 -242257320 -1450663777 -736068684 990259059 728756414 1670821219 1295947106 667584523 -617573489
REM
CELL 1.54180   50.00000   50.00000   50.00000   90.00000   90.00000   90.00000
LATT -1
SFAC C  
C      1  0.5023380000000  0.4387790000000  0.5356280000000 1.0
C      1  0.5068210000000  0.4188780000000  0.4890930000000 1.0
C      1  0.4434970000000  0.4799330000000  0.4954200000000 1.0
C      1  0.5627000000000  0.5155550000000  0.4869980000000 1.0
C      1  0.5106000000000  0.5235940000000  0.4714190000000 1.0
C      1  0.5098250000000  0.4559920000000  0.4537930000000 1.0
C      1  0.4432180000000  0.4640810000000  0.4594790000000 1.0
C      1  0.4774210000000  0.5305400000000  0.5732810000000 1.0
C      1  0.5705790000000  0.4889590000000  0.4876090000000 1.0
C      1  0.5019380000000  0.5154550000000  0.5208160000000 1.0
C      1  0.4611400000000  0.5239230000000  0.4779730000000 1.0
C      1  0.4818960000000  0.5200900000000  0.4332810000000 1.0
C      1  0.4829550000000  0.5626910000000  0.4784980000000 1.0
C      1  0.4712100000000  0.5214320000000  0.5276770000000 1.0
C      1  0.5042720000000  0.5330530000000  0.5647520000000 1.0
C      1  0.5023990000000  0.4836880000000  0.5571420000000 1.0
C      1  0.4269860000000  0.4895600000000  0.4701860000000 1.0
C      1  0.4923330000000  0.4715170000000  0.4352540000000 1.0
C      1  0.4849560000000  0.4509180000000  0.4899420000000 1.0
C      1  0.4657390000000  0.5503210000000  0.5221550000000 1.0
C      1  0.5741310000000  0.4811600000000  0.5140600000000 1.0
C      1  0.5147910000000  0.5097730000000  0.5482760000000 1.0
C      1  0.5165830000000  0.4790290000000  0.4936830000000 1.0
C      1  0.5430030000000  0.4616730000000  0.5449220000000 1.0
C      1  0.5276830000000  0.4765370000000  0.4678420000000 1.0
C      1  0.4948630000000  0.4903710000000  0.5065510000000 1.0
C      1  0.5158300000000  0.4587580000000  0.5495960000000 1.0
C      1  0.5561890000000  0.4716960000000  0.4706770000000 1.0
C      1  0.5040730000000  0.4990990000000  0.4311920000000 1.0
C      1  0.4659730000000  0.5008400000000  0.4984570000000 1.0
C      1  0.5022410000000  0.4294960000000  0.4629130000000 1.0
C      1  0.4634120000000  0.4767280000000  0.4408800000000 1.0
C      1  0.4556160000000  0.4530470000000  0.4859980000000 1.0
C      1  0.4920100000000  0.5652250000000  0.5258130000000 1.0
C      1  0.5573700000000  0.4836980000000  0.5362350000000 1.0
C      1  0.5534440000000  0.5350810000000  0.5305220000000 1.0
C      1  0.5383230000000  0.5563300000000  0.5413760000000 1.0
C      1  0.4917110000000  0.4300800000000  0.5114470000000 1.0
C      1  0.5226550000000  0.5030240000000  0.4543640000000 1.0
C      1  0.4665280000000  0.5116520000000  0.5556780000000 1.0
C      1  0.5051230000000  0.5623950000000  0.4990290000000 1.0
C      1  0.4395540000000  0.5143180000000  0.4584990000000 1.0
C      1  0.4859160000000  0.5344800000000  0.4606170000000 1.0
C      1  0.5175430000000  0.5342110000000  0.4986360000000 1.0
C      1  0.4561450000000  0.5047980000000  0.4351570000000 1.0
C      1  0.4583600000000  0.5516450000000  0.4929290000000 1.0
C      1  0.4745500000000  0.4850370000000  0.5603030000000 1.0
C      1  0.5476930000000  0.5341490000000  0.5016740000000 1.0
C      1  0.5110890000000  0.5572990000000  0.5489140000000 1.0
C      1  0.5447740000000  0.5094110000000  0.5433580000000 1.0
END
