TITL C-950524-1808-393 -2.77678969626261e-06 125000 -551.707845984775 0 0 89 (C1) n - 1
REM
REM in /home/bkarasulu/work/CARBON/AIRSS/Generating-Clusters/EDIP-Nigel-Params/with-SteepDescent/Only-C1/SD-CG/HFTN-CG
REM
REM
REM
REM
REM
REM ./C.cell (11c1c37f851c82e70ff6c80c92926a4b)
REM
REM compiler GCC version 9.2.1 20190827 (Red Hat 9.2.1-1)
REM options -cpp -mtune=generic -march=x86-64 -g -O0 -fpre-include=/usr/include/finclude/math-vector-fortran.h
REM seed -1103639568 -1752177373 1336293881 991295823 -313908076 -281516785 -175561383 -479070381 -649828659 492544645 -156302824 926984562 195912930 -1862446302 72782408 -1421828369 2040470730 1960468836 -1167565983 -1056143293 -1861704559 350069719 841946946 936821729 -1589792484 635728220 2140421730 -780300935 -942848602 -1193751643 -444156751 -745140315 -279723740
REM
CELL 1.54180   50.00000   50.00000   50.00000   90.00000   90.00000   90.00000
LATT -1
SFAC C  
C      1  0.4129160000000  0.4997080000000  0.4766280000000 1.0
C      1  0.4457200000000  0.5352680000000  0.4213250000000 1.0
C      1  0.4312910000000  0.4702620000000  0.5359870000000 1.0
C      1  0.5936860000000  0.5443310000000  0.5150270000000 1.0
C      1  0.5599240000000  0.5166590000000  0.5248540000000 1.0
C      1  0.5889810000000  0.5162310000000  0.5185710000000 1.0
C      1  0.4612490000000  0.5572770000000  0.5119040000000 1.0
C      1  0.4554880000000  0.4414500000000  0.5378070000000 1.0
C      1  0.4902720000000  0.4765520000000  0.5344930000000 1.0
C      1  0.4691800000000  0.4744990000000  0.5017930000000 1.0
C      1  0.4885960000000  0.4609170000000  0.4258620000000 1.0
C      1  0.5449160000000  0.4456820000000  0.4915590000000 1.0
C      1  0.4595050000000  0.5601720000000  0.4587020000000 1.0
C      1  0.4346890000000  0.4981620000000  0.5246680000000 1.0
C      1  0.4790840000000  0.4126190000000  0.4962720000000 1.0
C      1  0.5481130000000  0.5612460000000  0.5038240000000 1.0
C      1  0.4939860000000  0.4626930000000  0.4923450000000 1.0
C      1  0.4846880000000  0.4473570000000  0.4516190000000 1.0
C      1  0.4148070000000  0.5006850000000  0.5042140000000 1.0
C      1  0.4390960000000  0.4329450000000  0.5144480000000 1.0
C      1  0.5559640000000  0.4324400000000  0.5494540000000 1.0
C      1  0.5237190000000  0.4950310000000  0.4960290000000 1.0
C      1  0.5143630000000  0.4780100000000  0.4734480000000 1.0
C      1  0.5355320000000  0.4963760000000  0.4463850000000 1.0
C      1  0.4906120000000  0.5657450000000  0.5523310000000 1.0
C      1  0.4659820000000  0.5547740000000  0.5412670000000 1.0
C      1  0.5320860000000  0.5780480000000  0.4855810000000 1.0
C      1  0.4564600000000  0.4286980000000  0.4900850000000 1.0
C      1  0.5479480000000  0.4894910000000  0.5357560000000 1.0
C      1  0.5898790000000  0.4961020000000  0.4956230000000 1.0
C      1  0.5141700000000  0.5418840000000  0.4521150000000 1.0
C      1  0.4842510000000  0.4458300000000  0.5319000000000 1.0
C      1  0.5280910000000  0.4285190000000  0.5084320000000 1.0
C      1  0.5210440000000  0.5232140000000  0.4913490000000 1.0
C      1  0.5613120000000  0.5296010000000  0.4703010000000 1.0
C      1  0.5081240000000  0.5797440000000  0.5360200000000 1.0
C      1  0.4290600000000  0.5227230000000  0.5414460000000 1.0
C      1  0.5178880000000  0.4918970000000  0.5253340000000 1.0
C      1  0.4187980000000  0.5411350000000  0.5221980000000 1.0
C      1  0.4562500000000  0.4946210000000  0.4467860000000 1.0
C      1  0.5033960000000  0.5509780000000  0.5717360000000 1.0
C      1  0.5057320000000  0.4387640000000  0.5516120000000 1.0
C      1  0.4852590000000  0.4799460000000  0.5653230000000 1.0
C      1  0.5725940000000  0.4487140000000  0.4834450000000 1.0
C      1  0.5009120000000  0.4319980000000  0.4929470000000 1.0
C      1  0.5389150000000  0.5259100000000  0.4507210000000 1.0
C      1  0.4787250000000  0.5781230000000  0.4999470000000 1.0
C      1  0.4719800000000  0.5235250000000  0.4956300000000 1.0
C      1  0.5046650000000  0.5674760000000  0.5102920000000 1.0
C      1  0.5079430000000  0.5190560000000  0.5337090000000 1.0
C      1  0.5104700000000  0.5242190000000  0.5634630000000 1.0
C      1  0.5715630000000  0.5607370000000  0.5224490000000 1.0
C      1  0.4521310000000  0.5338600000000  0.5560060000000 1.0
C      1  0.4950150000000  0.5068210000000  0.4203960000000 1.0
C      1  0.5693690000000  0.4584220000000  0.4560050000000 1.0
C      1  0.5114950000000  0.5677010000000  0.4664860000000 1.0
C      1  0.4621320000000  0.4999930000000  0.5121110000000 1.0
C      1  0.5769760000000  0.4501570000000  0.5495820000000 1.0
C      1  0.4581080000000  0.4465330000000  0.4652190000000 1.0
C      1  0.5080690000000  0.4327720000000  0.4629120000000 1.0
C      1  0.5002200000000  0.5347390000000  0.5092200000000 1.0
C      1  0.4395000000000  0.5443070000000  0.4753990000000 1.0
C      1  0.5769520000000  0.5047220000000  0.4695450000000 1.0
C      1  0.4349990000000  0.5141020000000  0.4365290000000 1.0
C      1  0.5060010000000  0.4602150000000  0.5730750000000 1.0
C      1  0.4761970000000  0.5116440000000  0.4658400000000 1.0
C      1  0.4892770000000  0.5067010000000  0.5773680000000 1.0
C      1  0.5562710000000  0.5358110000000  0.5475500000000 1.0
C      1  0.4736650000000  0.4862750000000  0.4230820000000 1.0
C      1  0.5842690000000  0.4671960000000  0.5039690000000 1.0
C      1  0.5472770000000  0.4920160000000  0.5654610000000 1.0
C      1  0.5307700000000  0.4362000000000  0.5365840000000 1.0
C      1  0.4227260000000  0.5233640000000  0.4618090000000 1.0
C      1  0.4679910000000  0.5474400000000  0.4334800000000 1.0
C      1  0.4421680000000  0.4708670000000  0.4595950000000 1.0
C      1  0.4333420000000  0.5549780000000  0.5024050000000 1.0
C      1  0.5639750000000  0.4859830000000  0.4503540000000 1.0
C      1  0.5206290000000  0.4911370000000  0.4210700000000 1.0
C      1  0.4191340000000  0.4534000000000  0.5158370000000 1.0
C      1  0.5480010000000  0.5327020000000  0.4969080000000 1.0
C      1  0.5149970000000  0.4638410000000  0.4157770000000 1.0
C      1  0.4893160000000  0.5276720000000  0.4426110000000 1.0
C      1  0.4646400000000  0.5204940000000  0.5774820000000 1.0
C      1  0.5640640000000  0.4636510000000  0.5272490000000 1.0
C      1  0.5304170000000  0.4734740000000  0.5778610000000 1.0
C      1  0.4824290000000  0.5753390000000  0.4713570000000 1.0
C      1  0.5319850000000  0.4524860000000  0.4655330000000 1.0
C      1  0.5407650000000  0.5207630000000  0.5684520000000 1.0
C      1  0.4148510000000  0.4741790000000  0.4648640000000 1.0
END
