TITL C-950534-5965-108 -1.70288755713011e-06 125000 -696.978406223297 0 0 113 (C1) n - 1
REM
REM in /home/bkarasulu/work/CARBON/AIRSS/Generating-Clusters/EDIP-Nigel-Params/with-SteepDescent/Only-C1/SD-CG/HFTN-CG
REM
REM
REM
REM
REM
REM ./C.cell (11c1c37f851c82e70ff6c80c92926a4b)
REM
REM compiler GCC version 9.2.1 20190827 (Red Hat 9.2.1-1)
REM options -cpp -mtune=generic -march=x86-64 -g -O0 -fpre-include=/usr/include/finclude/math-vector-fortran.h
REM seed -1775962548 -817553056 1944868707 149154850 1169769489 1621370368 -570440879 1543343045 1974530176 -739396073 -2115085310 -1309008306 -293138195 -48879795 -943760447 -43226655 -624174229 -868686421 -855618833 -1409303832 -351979926 558947162 1753235396 -726487827 2077339404 1877096517 1080316793 1795550232 -1034704141 -29303490 -313646115 -32090374 -626575992
REM
CELL 1.54180   50.00000   50.00000   50.00000   90.00000   90.00000   90.00000
LATT -1
SFAC C  
C      1  0.5764600000000  0.4914530000000  0.4351740000000 1.0
C      1  0.5738400000000  0.5529560000000  0.4744550000000 1.0
C      1  0.5878180000000  0.4542090000000  0.5047310000000 1.0
C      1  0.5010090000000  0.4512550000000  0.4853250000000 1.0
C      1  0.5893160000000  0.4892300000000  0.5441500000000 1.0
C      1  0.4372560000000  0.4276250000000  0.5075960000000 1.0
C      1  0.4304960000000  0.5667060000000  0.5035020000000 1.0
C      1  0.4830790000000  0.5476960000000  0.5826020000000 1.0
C      1  0.4584180000000  0.5233430000000  0.5492670000000 1.0
C      1  0.5018710000000  0.5928100000000  0.4882640000000 1.0
C      1  0.5068310000000  0.4235690000000  0.5468470000000 1.0
C      1  0.5453270000000  0.5472430000000  0.5445830000000 1.0
C      1  0.4498040000000  0.5535200000000  0.5447830000000 1.0
C      1  0.5301860000000  0.4502670000000  0.4746570000000 1.0
C      1  0.5031200000000  0.5591550000000  0.5663470000000 1.0
C      1  0.4985140000000  0.4847850000000  0.5341200000000 1.0
C      1  0.5715190000000  0.4636040000000  0.5452800000000 1.0
C      1  0.4930280000000  0.4805770000000  0.4869030000000 1.0
C      1  0.5329230000000  0.4346620000000  0.4495360000000 1.0
C      1  0.5159460000000  0.4457320000000  0.4267510000000 1.0
C      1  0.4737120000000  0.5467630000000  0.4785030000000 1.0
C      1  0.5034030000000  0.4928740000000  0.4032570000000 1.0
C      1  0.4651770000000  0.4620350000000  0.5569910000000 1.0
C      1  0.4098220000000  0.5056360000000  0.4599460000000 1.0
C      1  0.5189240000000  0.5822650000000  0.5216300000000 1.0
C      1  0.4461020000000  0.5053610000000  0.4228940000000 1.0
C      1  0.4758180000000  0.4763330000000  0.4423320000000 1.0
C      1  0.5787050000000  0.5280190000000  0.5155240000000 1.0
C      1  0.4244120000000  0.5523450000000  0.5298380000000 1.0
C      1  0.5358410000000  0.4543000000000  0.5761530000000 1.0
C      1  0.4880270000000  0.4430130000000  0.5135080000000 1.0
C      1  0.4970780000000  0.5720860000000  0.5404890000000 1.0
C      1  0.4960410000000  0.4922370000000  0.4597010000000 1.0
C      1  0.5264640000000  0.5502940000000  0.4279630000000 1.0
C      1  0.4810340000000  0.5408780000000  0.4302490000000 1.0
C      1  0.4268020000000  0.4434160000000  0.4633420000000 1.0
C      1  0.5213840000000  0.5608400000000  0.4984340000000 1.0
C      1  0.4928300000000  0.4937450000000  0.5773330000000 1.0
C      1  0.4286040000000  0.4936400000000  0.5475320000000 1.0
C      1  0.5253070000000  0.4942430000000  0.4502040000000 1.0
C      1  0.5317070000000  0.5248590000000  0.5261510000000 1.0
C      1  0.4552120000000  0.4340740000000  0.5539540000000 1.0
C      1  0.5589960000000  0.4458150000000  0.4344820000000 1.0
C      1  0.4765850000000  0.4165300000000  0.5406870000000 1.0
C      1  0.4208660000000  0.5231440000000  0.5254120000000 1.0
C      1  0.4899840000000  0.4634900000000  0.5728160000000 1.0
C      1  0.5410010000000  0.5224090000000  0.4491190000000 1.0
C      1  0.4365540000000  0.5232240000000  0.4995570000000 1.0
C      1  0.4226160000000  0.4702140000000  0.4509590000000 1.0
C      1  0.5722960000000  0.5098040000000  0.5583280000000 1.0
C      1  0.4689120000000  0.5710480000000  0.5314280000000 1.0
C      1  0.5287280000000  0.5263770000000  0.5875960000000 1.0
C      1  0.5842320000000  0.5329180000000  0.4577630000000 1.0
C      1  0.5406490000000  0.4558880000000  0.4117090000000 1.0
C      1  0.5839450000000  0.5552520000000  0.5017220000000 1.0
C      1  0.4229680000000  0.4679780000000  0.5333810000000 1.0
C      1  0.4495750000000  0.5680770000000  0.4566820000000 1.0
C      1  0.5693990000000  0.5752440000000  0.5153670000000 1.0
C      1  0.5035850000000  0.5422250000000  0.4118060000000 1.0
C      1  0.4123010000000  0.4694510000000  0.5081730000000 1.0
C      1  0.4723340000000  0.5852440000000  0.4829840000000 1.0
C      1  0.4360750000000  0.4755150000000  0.4917620000000 1.0
C      1  0.5947960000000  0.5009840000000  0.5164640000000 1.0
C      1  0.4881850000000  0.4088830000000  0.4852080000000 1.0
C      1  0.5510560000000  0.4263890000000  0.5227750000000 1.0
C      1  0.5076800000000  0.5387880000000  0.5128010000000 1.0
C      1  0.5728720000000  0.5351110000000  0.5444840000000 1.0
C      1  0.5521770000000  0.5191370000000  0.5022370000000 1.0
C      1  0.4537240000000  0.4478200000000  0.4716690000000 1.0
C      1  0.4468690000000  0.4865550000000  0.4449130000000 1.0
C      1  0.5431300000000  0.5026550000000  0.5547660000000 1.0
C      1  0.5396770000000  0.4808570000000  0.5860750000000 1.0
C      1  0.4626270000000  0.5142840000000  0.5120050000000 1.0
C      1  0.4335200000000  0.4401610000000  0.5343440000000 1.0
C      1  0.4333880000000  0.5318340000000  0.4274420000000 1.0
C      1  0.5115500000000  0.4899750000000  0.5088720000000 1.0
C      1  0.4905860000000  0.5519380000000  0.4547480000000 1.0
C      1  0.4559910000000  0.5819000000000  0.5074710000000 1.0
C      1  0.4736020000000  0.4462950000000  0.4515370000000 1.0
C      1  0.5295630000000  0.5483500000000  0.5703340000000 1.0
C      1  0.5750220000000  0.4413940000000  0.5259520000000 1.0
C      1  0.5688660000000  0.5176980000000  0.4398220000000 1.0
C      1  0.5122110000000  0.4487770000000  0.5618000000000 1.0
C      1  0.4539030000000  0.5530990000000  0.4299070000000 1.0
C      1  0.4754320000000  0.4678610000000  0.5279630000000 1.0
C      1  0.5366400000000  0.4763600000000  0.5134430000000 1.0
C      1  0.5430210000000  0.4736480000000  0.5434450000000 1.0
C      1  0.4276490000000  0.5016590000000  0.4817910000000 1.0
C      1  0.4846930000000  0.5283760000000  0.4985290000000 1.0
C      1  0.5841530000000  0.4811010000000  0.4972470000000 1.0
C      1  0.4611610000000  0.5300590000000  0.5802710000000 1.0
C      1  0.4925280000000  0.5074980000000  0.5505000000000 1.0
C      1  0.4161560000000  0.5328580000000  0.4521970000000 1.0
C      1  0.4476250000000  0.4845090000000  0.5683840000000 1.0
C      1  0.5441850000000  0.4762640000000  0.4674800000000 1.0
C      1  0.5065150000000  0.5196510000000  0.3957720000000 1.0
C      1  0.5179560000000  0.5594090000000  0.4544970000000 1.0
C      1  0.5466980000000  0.5743170000000  0.5318270000000 1.0
C      1  0.5551230000000  0.4887670000000  0.4942110000000 1.0
C      1  0.4776210000000  0.4852710000000  0.4133410000000 1.0
C      1  0.4167290000000  0.4306750000000  0.4870620000000 1.0
C      1  0.4633560000000  0.4847080000000  0.5050210000000 1.0
C      1  0.5483950000000  0.5368250000000  0.4769500000000 1.0
C      1  0.5190970000000  0.5003450000000  0.5910990000000 1.0
C      1  0.5675250000000  0.4695820000000  0.4499800000000 1.0
C      1  0.4648960000000  0.5018060000000  0.5873340000000 1.0
C      1  0.4911340000000  0.4243430000000  0.4599780000000 1.0
C      1  0.4303460000000  0.5516920000000  0.4740620000000 1.0
C      1  0.5118960000000  0.4062630000000  0.5005990000000 1.0
C      1  0.4673940000000  0.4184700000000  0.5071530000000 1.0
C      1  0.5248630000000  0.4821190000000  0.4210170000000 1.0
C      1  0.5216150000000  0.5845180000000  0.4677120000000 1.0
C      1  0.5238370000000  0.4186570000000  0.5229760000000 1.0
END
