TITL C-950535-5962-553 -6.91716102020396e-07 125000 -201.716709819441 0 0 34 (C1) n - 1
REM
REM in /home/bkarasulu/work/CARBON/AIRSS/Generating-Clusters/EDIP-Nigel-Params/with-SteepDescent/Only-C1/SD-CG/HFTN-CG
REM
REM
REM
REM
REM
REM ./C.cell (11c1c37f851c82e70ff6c80c92926a4b)
REM
REM compiler GCC version 9.2.1 20190827 (Red Hat 9.2.1-1)
REM options -cpp -mtune=generic -march=x86-64 -g -O0 -fpre-include=/usr/include/finclude/math-vector-fortran.h
REM seed 655443912 745826221 303232646 1181470711 -114436920 -343003296 -1000442684 -406454101 171591748 -1658619030 -1502523823 1969313675 -2043492974 406929943 702191283 -2117284889 -772177473 -528202498 2130243016 -1585595943 791602946 -1044570371 31639964 -797310426 1271962366 -1270401752 827250062 -1055925315 -168213323 846200548 -464647455 1746749060 2081969193
REM
CELL 1.54180   50.00000   50.00000   50.00000   90.00000   90.00000   90.00000
LATT -1
SFAC C  
C      1  0.5007080000000  0.4621780000000  0.4725910000000 1.0
C      1  0.4930220000000  0.5490850000000  0.5260190000000 1.0
C      1  0.4759790000000  0.4687660000000  0.4577260000000 1.0
C      1  0.4361550000000  0.4866540000000  0.5095980000000 1.0
C      1  0.5173890000000  0.5562400000000  0.5144040000000 1.0
C      1  0.5403010000000  0.5526490000000  0.4691460000000 1.0
C      1  0.5252760000000  0.4608000000000  0.5385060000000 1.0
C      1  0.5247030000000  0.4697530000000  0.4604620000000 1.0
C      1  0.5469330000000  0.5320100000000  0.5463800000000 1.0
C      1  0.4996650000000  0.4466370000000  0.4970660000000 1.0
C      1  0.4778760000000  0.4981120000000  0.4510200000000 1.0
C      1  0.4506480000000  0.4623100000000  0.4698460000000 1.0
C      1  0.5400750000000  0.5516080000000  0.5295320000000 1.0
C      1  0.4995850000000  0.5007480000000  0.5474370000000 1.0
C      1  0.4706080000000  0.5318290000000  0.4883140000000 1.0
C      1  0.4735820000000  0.5302740000000  0.5178820000000 1.0
C      1  0.5238590000000  0.4900750000000  0.5362220000000 1.0
C      1  0.5170730000000  0.5511180000000  0.4861380000000 1.0
C      1  0.4752540000000  0.4449770000000  0.5106280000000 1.0
C      1  0.5373570000000  0.5076010000000  0.5541910000000 1.0
C      1  0.4552190000000  0.4839300000000  0.5300920000000 1.0
C      1  0.4911750000000  0.5471150000000  0.4762100000000 1.0
C      1  0.5635990000000  0.5591420000000  0.4798460000000 1.0
C      1  0.5059750000000  0.4527990000000  0.5572780000000 1.0
C      1  0.5383050000000  0.4895990000000  0.4468110000000 1.0
C      1  0.4776060000000  0.5031920000000  0.5288790000000 1.0
C      1  0.4438530000000  0.4864370000000  0.4828130000000 1.0
C      1  0.4634260000000  0.4556240000000  0.5340810000000 1.0
C      1  0.5398840000000  0.5387490000000  0.4449930000000 1.0
C      1  0.5219810000000  0.4473810000000  0.5139490000000 1.0
C      1  0.4615170000000  0.5076200000000  0.4736980000000 1.0
C      1  0.5047330000000  0.5085200000000  0.4534610000000 1.0
C      1  0.4790250000000  0.4517100000000  0.5570700000000 1.0
C      1  0.5276530000000  0.5147580000000  0.4377090000000 1.0
END
