TITL C-951347-9520-459 2.3376077052896e-07 125000 -507.272332393891 0 0 82 (C1) n - 1
REM
REM in /home/bkarasulu/work/CARBON/AIRSS/Generating-Clusters/EDIP-Nigel-Params/with-SteepDescent/Only-C1/SD-CG/HFTN-CG
REM
REM
REM
REM
REM
REM ./C.cell (11c1c37f851c82e70ff6c80c92926a4b)
REM
REM compiler GCC version 9.2.1 20190827 (Red Hat 9.2.1-1)
REM options -cpp -mtune=generic -march=x86-64 -g -O0 -fpre-include=/usr/include/finclude/math-vector-fortran.h
REM seed 1323020772 -1779196138 -729509585 -868263566 679354643 -1062633045 -501496308 1877049410 -789112603 -2121018359 1282883221 748391570 -778389591 -1308182436 2010486369 -314992278 -861667293 1674491696 1617203369 -946020542 483712329 -1870084210 -799794835 -1123393180 46807019 -1237652203 405361372 704983431 1582393585 -818450206 1646477914 -1012061229 384170681
REM
CELL 1.54180   50.00000   50.00000   50.00000   90.00000   90.00000   90.00000
LATT -1
SFAC C  
C      1  0.5505610000000  0.4501620000000  0.5413350000000 1.0
C      1  0.5560350000000  0.5334860000000  0.5353150000000 1.0
C      1  0.5541250000000  0.5129940000000  0.4341670000000 1.0
C      1  0.4862040000000  0.5380880000000  0.5698490000000 1.0
C      1  0.5768670000000  0.5626130000000  0.5033200000000 1.0
C      1  0.5599050000000  0.5611410000000  0.5269480000000 1.0
C      1  0.5144260000000  0.5794190000000  0.5350090000000 1.0
C      1  0.5600340000000  0.4665060000000  0.4479370000000 1.0
C      1  0.4893370000000  0.5540350000000  0.4946790000000 1.0
C      1  0.5223940000000  0.4693100000000  0.4761170000000 1.0
C      1  0.5724710000000  0.4845300000000  0.4715840000000 1.0
C      1  0.5153380000000  0.4842960000000  0.5765810000000 1.0
C      1  0.4446000000000  0.4567220000000  0.4461210000000 1.0
C      1  0.5390220000000  0.4498260000000  0.4591710000000 1.0
C      1  0.4618170000000  0.5025650000000  0.4384890000000 1.0
C      1  0.5361560000000  0.4962450000000  0.5617310000000 1.0
C      1  0.4620730000000  0.4348940000000  0.4803590000000 1.0
C      1  0.4376140000000  0.5134260000000  0.4480490000000 1.0
C      1  0.4315530000000  0.4789750000000  0.5326420000000 1.0
C      1  0.5158520000000  0.5119570000000  0.4947620000000 1.0
C      1  0.4383750000000  0.4550290000000  0.5179000000000 1.0
C      1  0.4491880000000  0.5651890000000  0.5136300000000 1.0
C      1  0.4752930000000  0.5122370000000  0.5805170000000 1.0
C      1  0.5503660000000  0.4525450000000  0.5107520000000 1.0
C      1  0.5270160000000  0.4145180000000  0.5112290000000 1.0
C      1  0.4472110000000  0.5094100000000  0.5686320000000 1.0
C      1  0.5557160000000  0.4791930000000  0.5481340000000 1.0
C      1  0.5339320000000  0.5247390000000  0.5527770000000 1.0
C      1  0.5358840000000  0.4139530000000  0.5388330000000 1.0
C      1  0.4433010000000  0.4814130000000  0.5595990000000 1.0
C      1  0.5043010000000  0.5312960000000  0.5456960000000 1.0
C      1  0.5147000000000  0.4855870000000  0.4275330000000 1.0
C      1  0.4711020000000  0.5487280000000  0.4421170000000 1.0
C      1  0.4619860000000  0.5495780000000  0.5562490000000 1.0
C      1  0.5659580000000  0.5349120000000  0.4786190000000 1.0
C      1  0.4276170000000  0.5131870000000  0.5047850000000 1.0
C      1  0.5690880000000  0.4921440000000  0.5257660000000 1.0
C      1  0.4930700000000  0.5659740000000  0.4487480000000 1.0
C      1  0.5790210000000  0.5176600000000  0.5314300000000 1.0
C      1  0.4124330000000  0.4972780000000  0.5223950000000 1.0
C      1  0.4907180000000  0.4370590000000  0.4810510000000 1.0
C      1  0.4936950000000  0.4657760000000  0.4325150000000 1.0
C      1  0.5003470000000  0.4914520000000  0.5104190000000 1.0
C      1  0.4183160000000  0.5302310000000  0.4835340000000 1.0
C      1  0.5215090000000  0.4615500000000  0.5056360000000 1.0
C      1  0.5056200000000  0.4359060000000  0.5065430000000 1.0
C      1  0.5072230000000  0.5135840000000  0.4249730000000 1.0
C      1  0.5487390000000  0.4260940000000  0.4701280000000 1.0
C      1  0.4598570000000  0.5447530000000  0.4962310000000 1.0
C      1  0.5593300000000  0.5640920000000  0.4791360000000 1.0
C      1  0.5367220000000  0.5770640000000  0.5190000000000 1.0
C      1  0.4562090000000  0.5169590000000  0.5101980000000 1.0
C      1  0.5128140000000  0.5448490000000  0.4555830000000 1.0
C      1  0.5515940000000  0.4250820000000  0.4976200000000 1.0
C      1  0.5230300000000  0.4300620000000  0.5578830000000 1.0
C      1  0.4924780000000  0.5786440000000  0.4757130000000 1.0
C      1  0.5699630000000  0.4746080000000  0.5014510000000 1.0
C      1  0.4210170000000  0.4966180000000  0.4642430000000 1.0
C      1  0.5565700000000  0.5099330000000  0.4647900000000 1.0
C      1  0.4290730000000  0.4688460000000  0.4689160000000 1.0
C      1  0.5032750000000  0.5330820000000  0.4808940000000 1.0
C      1  0.4526970000000  0.4305830000000  0.4539010000000 1.0
C      1  0.4936030000000  0.5039010000000  0.5372130000000 1.0
C      1  0.4918370000000  0.4659610000000  0.4707830000000 1.0
C      1  0.4809030000000  0.5226040000000  0.4340170000000 1.0
C      1  0.4956610000000  0.4296180000000  0.5565200000000 1.0
C      1  0.4973140000000  0.5577680000000  0.5266520000000 1.0
C      1  0.4693170000000  0.4683820000000  0.5641080000000 1.0
C      1  0.5311240000000  0.5303250000000  0.4270450000000 1.0
C      1  0.4398760000000  0.5395590000000  0.4631190000000 1.0
C      1  0.5342330000000  0.5758740000000  0.4905410000000 1.0
C      1  0.4734360000000  0.4867550000000  0.4935860000000 1.0
C      1  0.5303410000000  0.4984430000000  0.4748910000000 1.0
C      1  0.4691670000000  0.5664780000000  0.5339030000000 1.0
C      1  0.4730860000000  0.4439260000000  0.5500580000000 1.0
C      1  0.4663350000000  0.4744500000000  0.4363870000000 1.0
C      1  0.4896360000000  0.4906360000000  0.5648050000000 1.0
C      1  0.4520720000000  0.4360870000000  0.5335400000000 1.0
C      1  0.4471120000000  0.5270800000000  0.5455810000000 1.0
C      1  0.5455080000000  0.4847120000000  0.4278250000000 1.0
C      1  0.5161600000000  0.5937150000000  0.4785970000000 1.0
C      1  0.4505400000000  0.4611370000000  0.4909620000000 1.0
END
