TITL C-951341-1326-96 -3.40805380277017e-06 125000 -916.148657976211 0 0 147 (C1) n - 1
REM
REM in /home/bkarasulu/work/CARBON/AIRSS/Generating-Clusters/EDIP-Nigel-Params/with-SteepDescent/Only-C1/SD-CG/HFTN-CG
REM
REM
REM
REM
REM
REM ./C.cell (11c1c37f851c82e70ff6c80c92926a4b)
REM
REM compiler GCC version 9.2.1 20190827 (Red Hat 9.2.1-1)
REM options -cpp -mtune=generic -march=x86-64 -g -O0 -fpre-include=/usr/include/finclude/math-vector-fortran.h
REM seed 2026170415 1225302354 679015255 -440783427 1900438214 -1882703174 1800670574 -75227695 14346095 -1399555467 1091641934 973482239 375737192 221959571 -216009341 -1790414332 -672932388 830699846 1991950121 -864359461 1840498606 -1159527927 -485982771 -1939092119 -2056528054 -1245073739 947269888 774739537 -1983414850 324156294 1739599659 773253585 22224863
REM
CELL 1.54180   50.00000   50.00000   50.00000   90.00000   90.00000   90.00000
LATT -1
SFAC C  
C      1  0.5568110000000  0.5131420000000  0.5064810000000 1.0
C      1  0.5170770000000  0.4724530000000  0.4594930000000 1.0
C      1  0.4126200000000  0.5216590000000  0.5548460000000 1.0
C      1  0.5616730000000  0.4654280000000  0.5647430000000 1.0
C      1  0.4627180000000  0.5946970000000  0.4724150000000 1.0
C      1  0.4990120000000  0.5059750000000  0.4917140000000 1.0
C      1  0.4171250000000  0.4521200000000  0.5254280000000 1.0
C      1  0.4958850000000  0.5197730000000  0.4063600000000 1.0
C      1  0.4741310000000  0.4187640000000  0.5500540000000 1.0
C      1  0.5186190000000  0.5780690000000  0.4703800000000 1.0
C      1  0.4623700000000  0.5017750000000  0.5578540000000 1.0
C      1  0.5085060000000  0.4424180000000  0.4571320000000 1.0
C      1  0.4183340000000  0.5763600000000  0.4769190000000 1.0
C      1  0.5629050000000  0.4297700000000  0.5100300000000 1.0
C      1  0.5657100000000  0.4454260000000  0.4351650000000 1.0
C      1  0.5610830000000  0.4746480000000  0.4108160000000 1.0
C      1  0.4746050000000  0.5166370000000  0.5069560000000 1.0
C      1  0.4946900000000  0.5958170000000  0.5102110000000 1.0
C      1  0.5592030000000  0.5394460000000  0.4300980000000 1.0
C      1  0.4897270000000  0.5125940000000  0.5505670000000 1.0
C      1  0.5989880000000  0.5360190000000  0.4928180000000 1.0
C      1  0.4979370000000  0.4681680000000  0.3914590000000 1.0
C      1  0.4154230000000  0.4734430000000  0.4473950000000 1.0
C      1  0.4788820000000  0.5561960000000  0.4875690000000 1.0
C      1  0.5529890000000  0.4926620000000  0.5671260000000 1.0
C      1  0.4751630000000  0.4240140000000  0.4913160000000 1.0
C      1  0.4333860000000  0.5642830000000  0.5694740000000 1.0
C      1  0.5847850000000  0.4628290000000  0.5481370000000 1.0
C      1  0.4218020000000  0.5219980000000  0.4467080000000 1.0
C      1  0.5049090000000  0.5989390000000  0.5388410000000 1.0
C      1  0.5246880000000  0.4281030000000  0.4816010000000 1.0
C      1  0.5078490000000  0.5749710000000  0.5576780000000 1.0
C      1  0.4583430000000  0.4650170000000  0.4675960000000 1.0
C      1  0.5593740000000  0.5797480000000  0.5064720000000 1.0
C      1  0.4589710000000  0.4929600000000  0.5231880000000 1.0
C      1  0.4433320000000  0.5309920000000  0.4669890000000 1.0
C      1  0.4308690000000  0.4444860000000  0.5007160000000 1.0
C      1  0.4850890000000  0.5348130000000  0.5291750000000 1.0
C      1  0.4767750000000  0.4389750000000  0.4638730000000 1.0
C      1  0.5510380000000  0.5487740000000  0.5578860000000 1.0
C      1  0.4649140000000  0.5965080000000  0.5035920000000 1.0
C      1  0.4553790000000  0.5671630000000  0.5066280000000 1.0
C      1  0.4773690000000  0.4933050000000  0.6032810000000 1.0
C      1  0.5461650000000  0.4120140000000  0.5271380000000 1.0
C      1  0.5832100000000  0.5491610000000  0.4713800000000 1.0
C      1  0.5551800000000  0.4304770000000  0.4815350000000 1.0
C      1  0.4979660000000  0.5846170000000  0.4389560000000 1.0
C      1  0.4415550000000  0.5748970000000  0.4612520000000 1.0
C      1  0.5236060000000  0.4894380000000  0.5242520000000 1.0
C      1  0.4682310000000  0.5196750000000  0.4550050000000 1.0
C      1  0.5950910000000  0.4627070000000  0.4716540000000 1.0
C      1  0.4710040000000  0.4686160000000  0.4048800000000 1.0
C      1  0.4488680000000  0.4168660000000  0.5340580000000 1.0
C      1  0.4315870000000  0.4781200000000  0.5776570000000 1.0
C      1  0.5718720000000  0.4975490000000  0.4236860000000 1.0
C      1  0.5421220000000  0.5278800000000  0.4815450000000 1.0
C      1  0.5354370000000  0.5485370000000  0.4205700000000 1.0
C      1  0.5100450000000  0.4951420000000  0.3972800000000 1.0
C      1  0.5454810000000  0.4194720000000  0.5554090000000 1.0
C      1  0.5528360000000  0.5934810000000  0.5491490000000 1.0
C      1  0.4265670000000  0.5374370000000  0.5745590000000 1.0
C      1  0.5192690000000  0.4026670000000  0.5198630000000 1.0
C      1  0.5139760000000  0.4455240000000  0.4028520000000 1.0
C      1  0.5041970000000  0.5690700000000  0.4984890000000 1.0
C      1  0.5420440000000  0.4491330000000  0.5510310000000 1.0
C      1  0.5139700000000  0.5232900000000  0.4733900000000 1.0
C      1  0.4637210000000  0.5506260000000  0.4237760000000 1.0
C      1  0.4647790000000  0.4327090000000  0.5754000000000 1.0
C      1  0.4618780000000  0.5543010000000  0.5325300000000 1.0
C      1  0.4794130000000  0.4742950000000  0.5796240000000 1.0
C      1  0.5721790000000  0.5226910000000  0.4116430000000 1.0
C      1  0.5289140000000  0.5334090000000  0.5455490000000 1.0
C      1  0.5161090000000  0.4452800000000  0.5076570000000 1.0
C      1  0.5265940000000  0.4937600000000  0.5781480000000 1.0
C      1  0.3935730000000  0.5329010000000  0.4857090000000 1.0
C      1  0.4779850000000  0.3955070000000  0.4569880000000 1.0
C      1  0.5122380000000  0.4362490000000  0.5796160000000 1.0
C      1  0.4825720000000  0.5623040000000  0.5712340000000 1.0
C      1  0.5759790000000  0.5506670000000  0.5406400000000 1.0
C      1  0.4194160000000  0.4934180000000  0.5538720000000 1.0
C      1  0.3975470000000  0.5157550000000  0.4638400000000 1.0
C      1  0.5834330000000  0.5276640000000  0.5180480000000 1.0
C      1  0.5729240000000  0.5786210000000  0.5317260000000 1.0
C      1  0.5076820000000  0.4847990000000  0.4343760000000 1.0
C      1  0.4147620000000  0.5379140000000  0.5045310000000 1.0
C      1  0.5116310000000  0.5481110000000  0.5227900000000 1.0
C      1  0.4884450000000  0.6000880000000  0.4601610000000 1.0
C      1  0.5380920000000  0.4657010000000  0.5163420000000 1.0
C      1  0.5465020000000  0.5842120000000  0.4647630000000 1.0
C      1  0.4293190000000  0.4475090000000  0.4499040000000 1.0
C      1  0.4685970000000  0.5228150000000  0.4168170000000 1.0
C      1  0.5329200000000  0.6065770000000  0.5305080000000 1.0
C      1  0.5948660000000  0.4689540000000  0.5007850000000 1.0
C      1  0.4055340000000  0.5338690000000  0.5311700000000 1.0
C      1  0.5709680000000  0.4998460000000  0.4532750000000 1.0
C      1  0.4040890000000  0.4877640000000  0.4718420000000 1.0
C      1  0.5629090000000  0.5300870000000  0.4591630000000 1.0
C      1  0.5970630000000  0.4879070000000  0.5494070000000 1.0
C      1  0.4507090000000  0.5219930000000  0.5812230000000 1.0
C      1  0.4856220000000  0.3975600000000  0.4838170000000 1.0
C      1  0.5584010000000  0.4823460000000  0.4977480000000 1.0
C      1  0.4484390000000  0.4212870000000  0.5047910000000 1.0
C      1  0.4465290000000  0.4691540000000  0.4949600000000 1.0
C      1  0.5063110000000  0.4394410000000  0.5397660000000 1.0
C      1  0.4543190000000  0.4459310000000  0.4063380000000 1.0
C      1  0.5089780000000  0.5426780000000  0.4185950000000 1.0
C      1  0.4735950000000  0.5399490000000  0.5901100000000 1.0
C      1  0.5514990000000  0.4782860000000  0.4676520000000 1.0
C      1  0.5372890000000  0.5738840000000  0.5654780000000 1.0
C      1  0.5393790000000  0.5993250000000  0.5031690000000 1.0
C      1  0.4788610000000  0.4703540000000  0.5249430000000 1.0
C      1  0.4929750000000  0.5199060000000  0.5985240000000 1.0
C      1  0.5421790000000  0.5089680000000  0.5341410000000 1.0
C      1  0.5202760000000  0.4095590000000  0.5684640000000 1.0
C      1  0.4906580000000  0.5563130000000  0.4367850000000 1.0
C      1  0.4385450000000  0.5561640000000  0.4377860000000 1.0
C      1  0.4375630000000  0.5191770000000  0.4956040000000 1.0
C      1  0.6115050000000  0.5094110000000  0.4838590000000 1.0
C      1  0.4163900000000  0.4815810000000  0.5267270000000 1.0
C      1  0.6026820000000  0.5072160000000  0.5303220000000 1.0
C      1  0.4901430000000  0.4587780000000  0.5000450000000 1.0
C      1  0.4243030000000  0.4910200000000  0.4956700000000 1.0
C      1  0.6127700000000  0.4921320000000  0.5077640000000 1.0
C      1  0.5694930000000  0.5750120000000  0.4797040000000 1.0
C      1  0.5417640000000  0.4585090000000  0.4253510000000 1.0
C      1  0.4976330000000  0.4798120000000  0.4808910000000 1.0
C      1  0.5107670000000  0.5186260000000  0.5734790000000 1.0
C      1  0.5983070000000  0.4917510000000  0.4627120000000 1.0
C      1  0.5138360000000  0.4011060000000  0.4905880000000 1.0
C      1  0.4474420000000  0.4342610000000  0.4311090000000 1.0
C      1  0.5016810000000  0.4011380000000  0.5458040000000 1.0
C      1  0.4256570000000  0.5648390000000  0.5011040000000 1.0
C      1  0.4465170000000  0.4970010000000  0.5987040000000 1.0
C      1  0.4581070000000  0.5698160000000  0.5566550000000 1.0
C      1  0.4856960000000  0.4447210000000  0.5904820000000 1.0
C      1  0.5800590000000  0.4519890000000  0.5207230000000 1.0
C      1  0.4431180000000  0.4515630000000  0.5687960000000 1.0
C      1  0.5087190000000  0.4731530000000  0.5662230000000 1.0
C      1  0.4897510000000  0.5399690000000  0.4639970000000 1.0
C      1  0.5002920000000  0.4852820000000  0.5399200000000 1.0
C      1  0.5130790000000  0.4325490000000  0.4289840000000 1.0
C      1  0.5675390000000  0.4521410000000  0.4636560000000 1.0
C      1  0.4307270000000  0.4369820000000  0.5466130000000 1.0
C      1  0.4635240000000  0.4116890000000  0.4394740000000 1.0
C      1  0.4797850000000  0.4778960000000  0.4308150000000 1.0
C      1  0.4600390000000  0.4895690000000  0.4486330000000 1.0
C      1  0.4325840000000  0.4947950000000  0.4367000000000 1.0
END
