TITL C-950536-5891-502 -2.58694179681906e-07 125000 -212.510123037537 0 0 36 (C1) n - 1
REM
REM in /home/bkarasulu/work/CARBON/AIRSS/Generating-Clusters/EDIP-Nigel-Params/with-SteepDescent/Only-C1/SD-CG/HFTN-CG
REM
REM
REM
REM
REM
REM ./C.cell (11c1c37f851c82e70ff6c80c92926a4b)
REM
REM compiler GCC version 9.2.1 20190827 (Red Hat 9.2.1-1)
REM options -cpp -mtune=generic -march=x86-64 -g -O0 -fpre-include=/usr/include/finclude/math-vector-fortran.h
REM seed -1314477080 1547143149 -1819389733 1257628254 -1135097364 -1401717538 419837425 -1777988292 2141803891 796361894 1499241737 1716638922 1463069895 1580473420 -1652948414 1089249197 -1331995726 -829613944 -714361713 -1092771429 -885792635 -1731950423 832683090 -527500243 405142413 1637311796 487984314 97834355 889902241 -969077486 1407458405 973417648 -441885833
REM
CELL 1.54180   50.00000   50.00000   50.00000   90.00000   90.00000   90.00000
LATT -1
SFAC C  
C      1  0.4703370000000  0.4826500000000  0.5180810000000 1.0
C      1  0.4864600000000  0.5378730000000  0.5288220000000 1.0
C      1  0.4954540000000  0.5627910000000  0.5176510000000 1.0
C      1  0.4900680000000  0.4745240000000  0.4814440000000 1.0
C      1  0.5335060000000  0.5590540000000  0.5105910000000 1.0
C      1  0.4405570000000  0.5098510000000  0.4782470000000 1.0
C      1  0.5116540000000  0.5667320000000  0.4954590000000 1.0
C      1  0.4957450000000  0.4739860000000  0.5325000000000 1.0
C      1  0.5243090000000  0.4858140000000  0.4379020000000 1.0
C      1  0.4784280000000  0.5011940000000  0.4487430000000 1.0
C      1  0.5077980000000  0.4482360000000  0.5198300000000 1.0
C      1  0.5212180000000  0.4937730000000  0.5342570000000 1.0
C      1  0.4618380000000  0.5260690000000  0.5187250000000 1.0
C      1  0.5564580000000  0.4578510000000  0.5268400000000 1.0
C      1  0.5134190000000  0.5321880000000  0.4495660000000 1.0
C      1  0.4539140000000  0.5310280000000  0.4908550000000 1.0
C      1  0.5384710000000  0.5322660000000  0.5209070000000 1.0
C      1  0.5294130000000  0.5287090000000  0.5489710000000 1.0
C      1  0.5443260000000  0.4771310000000  0.5425060000000 1.0
C      1  0.4546560000000  0.4645100000000  0.4719890000000 1.0
C      1  0.4962810000000  0.4849970000000  0.4340810000000 1.0
C      1  0.5007060000000  0.5276070000000  0.5528950000000 1.0
C      1  0.5211970000000  0.4937810000000  0.4815510000000 1.0
C      1  0.4581650000000  0.4632140000000  0.5003210000000 1.0
C      1  0.4859820000000  0.5287510000000  0.4532990000000 1.0
C      1  0.5263630000000  0.5077420000000  0.5078390000000 1.0
C      1  0.4540170000000  0.4913560000000  0.4615080000000 1.0
C      1  0.4531060000000  0.5018330000000  0.5299510000000 1.0
C      1  0.5359970000000  0.4628880000000  0.4500710000000 1.0
C      1  0.4902630000000  0.4764190000000  0.5612800000000 1.0
C      1  0.5330390000000  0.4652510000000  0.4781920000000 1.0
C      1  0.5289290000000  0.5093160000000  0.4559260000000 1.0
C      1  0.4925990000000  0.5036250000000  0.5653140000000 1.0
C      1  0.5090500000000  0.4518880000000  0.4898100000000 1.0
C      1  0.5340820000000  0.4420260000000  0.5308580000000 1.0
C      1  0.4721920000000  0.5430760000000  0.4732180000000 1.0
END
