TITL C-950536-5891-387 6.58106745122846e-06 125000 -144.078159405817 0 0 25 (C1) n - 1
REM
REM in /home/bkarasulu/work/CARBON/AIRSS/Generating-Clusters/EDIP-Nigel-Params/with-SteepDescent/Only-C1/SD-CG/HFTN-CG
REM
REM
REM
REM
REM
REM ./C.cell (11c1c37f851c82e70ff6c80c92926a4b)
REM
REM compiler GCC version 9.2.1 20190827 (Red Hat 9.2.1-1)
REM options -cpp -mtune=generic -march=x86-64 -g -O0 -fpre-include=/usr/include/finclude/math-vector-fortran.h
REM seed 829833384 267074505 -2075992785 -713903232 -1397840542 -963554320 892356085 -631505946 911854466 1769340859 1916353594 -1315214737 -291562046 60710456 -469756509 -1269461549 1677238209 -249997160 228598918 1543749876 577928468 898713082 853122263 -1669504694 142685620 1112804777 -56408091 1699821446 2122563362 -1929690980 -2126077637 1111711395 742049499
REM
CELL 1.54180   50.00000   50.00000   50.00000   90.00000   90.00000   90.00000
LATT -1
SFAC C  
C      1  0.4635480000000  0.4898800000000  0.4834210000000 1.0
C      1  0.4920460000000  0.4537890000000  0.5133840000000 1.0
C      1  0.4998340000000  0.4882090000000  0.5488920000000 1.0
C      1  0.5426940000000  0.4753060000000  0.5075320000000 1.0
C      1  0.4949350000000  0.4835490000000  0.5199700000000 1.0
C      1  0.4660490000000  0.5529710000000  0.5088800000000 1.0
C      1  0.4707060000000  0.4990560000000  0.5106530000000 1.0
C      1  0.5149130000000  0.4928130000000  0.4740900000000 1.0
C      1  0.4805860000000  0.5659680000000  0.4894820000000 1.0
C      1  0.4856550000000  0.4973700000000  0.4642390000000 1.0
C      1  0.5197500000000  0.4937450000000  0.5043170000000 1.0
C      1  0.5139040000000  0.4422260000000  0.5002520000000 1.0
C      1  0.5211320000000  0.5185860000000  0.5553020000000 1.0
C      1  0.4949980000000  0.5418040000000  0.4845140000000 1.0
C      1  0.4678290000000  0.5264320000000  0.5153100000000 1.0
C      1  0.4671670000000  0.4451570000000  0.5040310000000 1.0
C      1  0.5277730000000  0.5224650000000  0.5060380000000 1.0
C      1  0.4867840000000  0.5268390000000  0.4591180000000 1.0
C      1  0.5352790000000  0.4555330000000  0.4883030000000 1.0
C      1  0.5138460000000  0.5347600000000  0.4510290000000 1.0
C      1  0.5295520000000  0.5190010000000  0.4689520000000 1.0
C      1  0.5290640000000  0.5311690000000  0.5321160000000 1.0
C      1  0.5284170000000  0.4686000000000  0.4641540000000 1.0
C      1  0.4946340000000  0.5126000000000  0.5612230000000 1.0
C      1  0.4589050000000  0.4621750000000  0.4847980000000 1.0
END
