TITL C-950524-1808-427 -1.57357277839563e-06 125000 -1179.45949142016 0 0 187 (C1) n - 1
REM
REM in /home/bkarasulu/work/CARBON/AIRSS/Generating-Clusters/EDIP-Nigel-Params/with-SteepDescent/Only-C1/SD-CG/HFTN-CG
REM
REM
REM
REM
REM
REM ./C.cell (11c1c37f851c82e70ff6c80c92926a4b)
REM
REM compiler GCC version 9.2.1 20190827 (Red Hat 9.2.1-1)
REM options -cpp -mtune=generic -march=x86-64 -g -O0 -fpre-include=/usr/include/finclude/math-vector-fortran.h
REM seed 1803011351 -404792926 -886754688 -2141361814 -32385351 -2041314374 1495448924 -890734533 301034884 1843201750 -679580102 1974871756 1078708684 -341277921 -308747591 1386864355 1912733367 2062164293 -436880407 1594626998 -705682815 1919123008 -1167128143 -2051053616 -2065966201 1014806044 578196785 -349722889 1985381593 71302458 -122962061 1513403786 -1084655552
REM
CELL 1.54180   50.00000   50.00000   50.00000   90.00000   90.00000   90.00000
LATT -1
SFAC C  
C      1  0.4997860000000  0.5181780000000  0.5087080000000 1.0
C      1  0.5686050000000  0.5861770000000  0.5191900000000 1.0
C      1  0.5093080000000  0.4550640000000  0.5115350000000 1.0
C      1  0.4473380000000  0.4182160000000  0.4610440000000 1.0
C      1  0.5440090000000  0.4540000000000  0.5064270000000 1.0
C      1  0.5336060000000  0.5602480000000  0.4753170000000 1.0
C      1  0.4669390000000  0.4900200000000  0.6143460000000 1.0
C      1  0.5426670000000  0.4978270000000  0.4413160000000 1.0
C      1  0.4859610000000  0.4167570000000  0.4323740000000 1.0
C      1  0.5068500000000  0.4974680000000  0.5821320000000 1.0
C      1  0.5579310000000  0.5612470000000  0.5685590000000 1.0
C      1  0.4583810000000  0.5129540000000  0.5620890000000 1.0
C      1  0.4725430000000  0.4561560000000  0.4484840000000 1.0
C      1  0.4515270000000  0.6081920000000  0.4816460000000 1.0
C      1  0.4152430000000  0.4811550000000  0.5605760000000 1.0
C      1  0.4435820000000  0.4585610000000  0.3979260000000 1.0
C      1  0.4118160000000  0.4815390000000  0.5317170000000 1.0
C      1  0.5583150000000  0.5199900000000  0.3969390000000 1.0
C      1  0.4537030000000  0.4313170000000  0.5345320000000 1.0
C      1  0.4045000000000  0.5425870000000  0.4556350000000 1.0
C      1  0.4617690000000  0.3904790000000  0.5078590000000 1.0
C      1  0.4379130000000  0.5492170000000  0.5849550000000 1.0
C      1  0.5472240000000  0.4477960000000  0.5491200000000 1.0
C      1  0.4739470000000  0.5524980000000  0.4273070000000 1.0
C      1  0.5150520000000  0.6088730000000  0.4560200000000 1.0
C      1  0.5537410000000  0.4730880000000  0.5317060000000 1.0
C      1  0.4523720000000  0.6024440000000  0.4535910000000 1.0
C      1  0.4986180000000  0.4778560000000  0.4887130000000 1.0
C      1  0.4538240000000  0.5146570000000  0.5318380000000 1.0
C      1  0.4597090000000  0.4361220000000  0.4871780000000 1.0
C      1  0.5528990000000  0.5839970000000  0.4703590000000 1.0
C      1  0.4793580000000  0.5011370000000  0.5209550000000 1.0
C      1  0.5952770000000  0.4670640000000  0.4471760000000 1.0
C      1  0.4372870000000  0.5182240000000  0.5824650000000 1.0
C      1  0.5463900000000  0.5441780000000  0.4054680000000 1.0
C      1  0.5880550000000  0.5527250000000  0.4941560000000 1.0
C      1  0.4798870000000  0.5330510000000  0.5683250000000 1.0
C      1  0.4181060000000  0.5730540000000  0.4887880000000 1.0
C      1  0.5584420000000  0.4938690000000  0.4068050000000 1.0
C      1  0.4863010000000  0.5018400000000  0.4645280000000 1.0
C      1  0.4885680000000  0.4732020000000  0.5318320000000 1.0
C      1  0.4061740000000  0.5285080000000  0.4301420000000 1.0
C      1  0.4561170000000  0.5092940000000  0.4697010000000 1.0
C      1  0.5193410000000  0.5027750000000  0.4940490000000 1.0
C      1  0.4829720000000  0.3918750000000  0.4503300000000 1.0
C      1  0.5768040000000  0.5796530000000  0.4903660000000 1.0
C      1  0.5057850000000  0.5729830000000  0.4662550000000 1.0
C      1  0.5085520000000  0.4334510000000  0.4666890000000 1.0
C      1  0.4834260000000  0.5498170000000  0.4575660000000 1.0
C      1  0.4561860000000  0.5762560000000  0.4249170000000 1.0
C      1  0.4614970000000  0.4610670000000  0.5301620000000 1.0
C      1  0.4191480000000  0.5694420000000  0.5376740000000 1.0
C      1  0.5232680000000  0.5238140000000  0.4412720000000 1.0
C      1  0.5954580000000  0.4967940000000  0.5514420000000 1.0
C      1  0.5148680000000  0.4732470000000  0.3895840000000 1.0
C      1  0.5836840000000  0.4769500000000  0.5316770000000 1.0
C      1  0.5743820000000  0.4516050000000  0.4598930000000 1.0
C      1  0.4841370000000  0.5369120000000  0.6036880000000 1.0
C      1  0.4442900000000  0.5044500000000  0.6069180000000 1.0
C      1  0.4443400000000  0.4947520000000  0.4435400000000 1.0
C      1  0.4922770000000  0.4586810000000  0.4029620000000 1.0
C      1  0.5780270000000  0.5666230000000  0.5407700000000 1.0
C      1  0.5360620000000  0.5098730000000  0.6203300000000 1.0
C      1  0.4990750000000  0.4238750000000  0.5131860000000 1.0
C      1  0.5974000000000  0.5163320000000  0.4553390000000 1.0
C      1  0.5092830000000  0.4968400000000  0.3760280000000 1.0
C      1  0.6085740000000  0.5247340000000  0.5284070000000 1.0
C      1  0.5471920000000  0.5061750000000  0.5027790000000 1.0
C      1  0.5620970000000  0.4080350000000  0.4732810000000 1.0
C      1  0.4996120000000  0.4273510000000  0.4076960000000 1.0
C      1  0.5063620000000  0.4128310000000  0.5403070000000 1.0
C      1  0.4961760000000  0.5963390000000  0.5009500000000 1.0
C      1  0.5058300000000  0.5211160000000  0.5635140000000 1.0
C      1  0.4755480000000  0.6189440000000  0.4937880000000 1.0
C      1  0.5210490000000  0.5870930000000  0.4376510000000 1.0
C      1  0.5460440000000  0.5400870000000  0.4538480000000 1.0
C      1  0.3937950000000  0.4977560000000  0.4642970000000 1.0
C      1  0.5793310000000  0.4713410000000  0.5753650000000 1.0
C      1  0.4811510000000  0.5808640000000  0.5860220000000 1.0
C      1  0.4305120000000  0.5316440000000  0.4159110000000 1.0
C      1  0.4344500000000  0.5825470000000  0.4431020000000 1.0
C      1  0.4017350000000  0.4548750000000  0.4908940000000 1.0
C      1  0.4607620000000  0.4318380000000  0.4374340000000 1.0
C      1  0.4462380000000  0.4628920000000  0.5037110000000 1.0
C      1  0.5351620000000  0.5340800000000  0.6061980000000 1.0
C      1  0.4901980000000  0.4944230000000  0.4352940000000 1.0
C      1  0.4389230000000  0.5626090000000  0.5584960000000 1.0
C      1  0.4321690000000  0.4612910000000  0.5711570000000 1.0
C      1  0.5288640000000  0.5665180000000  0.5643040000000 1.0
C      1  0.4533020000000  0.4447240000000  0.5796970000000 1.0
C      1  0.4772970000000  0.5847150000000  0.5562410000000 1.0
C      1  0.3989560000000  0.5232430000000  0.4770570000000 1.0
C      1  0.4253920000000  0.5045370000000  0.5169490000000 1.0
C      1  0.5375160000000  0.4019230000000  0.4251060000000 1.0
C      1  0.5256720000000  0.4552080000000  0.5678930000000 1.0
C      1  0.4423480000000  0.5860420000000  0.4992770000000 1.0
C      1  0.5076610000000  0.5461400000000  0.5175930000000 1.0
C      1  0.4759410000000  0.6200470000000  0.5249620000000 1.0
C      1  0.4345320000000  0.3881650000000  0.5022170000000 1.0
C      1  0.5526780000000  0.4021960000000  0.4474140000000 1.0
C      1  0.3944210000000  0.5031020000000  0.4360820000000 1.0
C      1  0.5230680000000  0.5402920000000  0.5490290000000 1.0
C      1  0.4612690000000  0.4222130000000  0.5616440000000 1.0
C      1  0.5392650000000  0.5832680000000  0.5185740000000 1.0
C      1  0.5538940000000  0.4682180000000  0.4776640000000 1.0
C      1  0.5266110000000  0.5875160000000  0.5448710000000 1.0
C      1  0.5296910000000  0.4439530000000  0.5934830000000 1.0
C      1  0.5251100000000  0.6036580000000  0.5024380000000 1.0
C      1  0.4900560000000  0.4192820000000  0.5635980000000 1.0
C      1  0.4585150000000  0.5283200000000  0.4150480000000 1.0
C      1  0.4237540000000  0.4290970000000  0.5282450000000 1.0
C      1  0.6076350000000  0.4880300000000  0.4618840000000 1.0
C      1  0.5289330000000  0.4237440000000  0.4098660000000 1.0
C      1  0.5323670000000  0.4903010000000  0.5990410000000 1.0
C      1  0.4596940000000  0.5416670000000  0.4749420000000 1.0
C      1  0.5582940000000  0.5549760000000  0.4306160000000 1.0
C      1  0.4952130000000  0.4659740000000  0.4326660000000 1.0
C      1  0.5182500000000  0.5361600000000  0.4128570000000 1.0
C      1  0.5796990000000  0.4207290000000  0.5256340000000 1.0
C      1  0.4542800000000  0.5452260000000  0.5273540000000 1.0
C      1  0.5320250000000  0.4769710000000  0.4601590000000 1.0
C      1  0.5007150000000  0.5989270000000  0.5444410000000 1.0
C      1  0.5510010000000  0.5823190000000  0.4385390000000 1.0
C      1  0.4370740000000  0.4910520000000  0.4915560000000 1.0
C      1  0.5390420000000  0.4724140000000  0.4052020000000 1.0
C      1  0.4555810000000  0.3902210000000  0.4585500000000 1.0
C      1  0.5744060000000  0.5181920000000  0.5840380000000 1.0
C      1  0.4608710000000  0.5594290000000  0.5006390000000 1.0
C      1  0.5577460000000  0.4924980000000  0.5780740000000 1.0
C      1  0.5672020000000  0.5115520000000  0.4596520000000 1.0
C      1  0.5976920000000  0.4890950000000  0.4911850000000 1.0
C      1  0.5104850000000  0.5726790000000  0.5892610000000 1.0
C      1  0.5670120000000  0.4443020000000  0.4328510000000 1.0
C      1  0.5802510000000  0.5251800000000  0.5558600000000 1.0
C      1  0.4887020000000  0.5061080000000  0.6052960000000 1.0
C      1  0.5515820000000  0.4134620000000  0.5218650000000 1.0
C      1  0.5714750000000  0.4451000000000  0.5657070000000 1.0
C      1  0.5883930000000  0.4279390000000  0.5516110000000 1.0
C      1  0.4627750000000  0.5593050000000  0.5995850000000 1.0
C      1  0.6058840000000  0.5336150000000  0.4793290000000 1.0
C      1  0.5398540000000  0.4484180000000  0.4228680000000 1.0
C      1  0.4565450000000  0.6039750000000  0.5429100000000 1.0
C      1  0.4845460000000  0.4499070000000  0.4746230000000 1.0
C      1  0.4910870000000  0.4621780000000  0.6106640000000 1.0
C      1  0.4839960000000  0.4521680000000  0.5830420000000 1.0
C      1  0.4232740000000  0.5630780000000  0.4623000000000 1.0
C      1  0.5090670000000  0.5170640000000  0.3937000000000 1.0
C      1  0.5210780000000  0.4639340000000  0.6109850000000 1.0
C      1  0.5016860000000  0.5271730000000  0.4617800000000 1.0
C      1  0.5343110000000  0.4120600000000  0.5442590000000 1.0
C      1  0.4139710000000  0.5541720000000  0.5118790000000 1.0
C      1  0.5670640000000  0.4945510000000  0.4847910000000 1.0
C      1  0.4386200000000  0.4380460000000  0.4159500000000 1.0
C      1  0.4065290000000  0.5263410000000  0.5059120000000 1.0
C      1  0.4885400000000  0.5674380000000  0.5063070000000 1.0
C      1  0.4179550000000  0.4561910000000  0.5158740000000 1.0
C      1  0.4129370000000  0.5065100000000  0.5726620000000 1.0
C      1  0.5344200000000  0.5543540000000  0.5058950000000 1.0
C      1  0.5131460000000  0.4119170000000  0.4873370000000 1.0
C      1  0.4051720000000  0.4264840000000  0.4827830000000 1.0
C      1  0.4760570000000  0.5551990000000  0.5468570000000 1.0
C      1  0.4689550000000  0.4189710000000  0.5108160000000 1.0
C      1  0.4184860000000  0.4457270000000  0.4366870000000 1.0
C      1  0.4999410000000  0.4713570000000  0.5644520000000 1.0
C      1  0.4643290000000  0.4985370000000  0.4209460000000 1.0
C      1  0.4176880000000  0.4221910000000  0.4559040000000 1.0
C      1  0.6126400000000  0.5136690000000  0.5009690000000 1.0
C      1  0.5423050000000  0.4113770000000  0.4944150000000 1.0
C      1  0.5593170000000  0.5419630000000  0.5913930000000 1.0
C      1  0.4177110000000  0.4107550000000  0.5057020000000 1.0
C      1  0.4302920000000  0.4689380000000  0.4513380000000 1.0
C      1  0.5109650000000  0.5504040000000  0.6076110000000 1.0
C      1  0.4135280000000  0.4775740000000  0.4742140000000 1.0
C      1  0.4812100000000  0.3755320000000  0.4945260000000 1.0
C      1  0.5359880000000  0.6079560000000  0.4762730000000 1.0
C      1  0.5448090000000  0.4962800000000  0.5501070000000 1.0
C      1  0.4988630000000  0.3870890000000  0.4758720000000 1.0
C      1  0.5940860000000  0.5498440000000  0.5223110000000 1.0
C      1  0.4653000000000  0.4754710000000  0.3989730000000 1.0
C      1  0.5543350000000  0.5320450000000  0.5137240000000 1.0
C      1  0.5807620000000  0.4411690000000  0.5035630000000 1.0
C      1  0.4988180000000  0.5575310000000  0.4134280000000 1.0
C      1  0.5987260000000  0.4646640000000  0.5094410000000 1.0
C      1  0.5204420000000  0.4548440000000  0.4459000000000 1.0
C      1  0.4336420000000  0.5936700000000  0.5271810000000 1.0
C      1  0.5508820000000  0.5254000000000  0.5427630000000 1.0
C      1  0.5832120000000  0.4285840000000  0.4762510000000 1.0
END
