TITL C-950530-3293-91 9.89313274831244e-09 125000 -1089.46402951131 0 0 174 (C1) n - 1
REM
REM in /home/bkarasulu/work/CARBON/AIRSS/Generating-Clusters/EDIP-Nigel-Params/with-SteepDescent/Only-C1/SD-CG/HFTN-CG
REM
REM
REM
REM
REM
REM ./C.cell (11c1c37f851c82e70ff6c80c92926a4b)
REM
REM compiler GCC version 9.2.1 20190827 (Red Hat 9.2.1-1)
REM options -cpp -mtune=generic -march=x86-64 -g -O0 -fpre-include=/usr/include/finclude/math-vector-fortran.h
REM seed -1417782315 -3138199 1854122065 1519470759 126515446 433518893 921670780 -2066634802 -736391448 -1979343012 -391550259 -1181448652 -1079018884 -1853903086 -252735902 1812474882 1779818999 82624087 260521784 -1657859450 342648650 -1053093375 467107727 926759467 -866395423 1263922775 982916116 -2085885735 915785568 422430857 -181325404 -944228379 1309415024
REM
CELL 1.54180   50.00000   50.00000   50.00000   90.00000   90.00000   90.00000
LATT -1
SFAC C  
C      1  0.4597460000000  0.5861680000000  0.5111150000000 1.0
C      1  0.4110670000000  0.4488900000000  0.5013270000000 1.0
C      1  0.4881350000000  0.4175320000000  0.4208260000000 1.0
C      1  0.6040970000000  0.4757650000000  0.4581550000000 1.0
C      1  0.4882190000000  0.5714160000000  0.5803090000000 1.0
C      1  0.5491300000000  0.4535920000000  0.4896390000000 1.0
C      1  0.5493820000000  0.6068080000000  0.5480700000000 1.0
C      1  0.4901660000000  0.4146200000000  0.4708990000000 1.0
C      1  0.4557070000000  0.4589880000000  0.5283360000000 1.0
C      1  0.5589490000000  0.5950570000000  0.5249390000000 1.0
C      1  0.5527910000000  0.4928350000000  0.4593710000000 1.0
C      1  0.5270770000000  0.4457580000000  0.5951650000000 1.0
C      1  0.5506720000000  0.5397310000000  0.4502580000000 1.0
C      1  0.4397980000000  0.5271960000000  0.5104100000000 1.0
C      1  0.4755820000000  0.3899070000000  0.5107760000000 1.0
C      1  0.4463100000000  0.4694320000000  0.4188260000000 1.0
C      1  0.5103030000000  0.5172100000000  0.4624240000000 1.0
C      1  0.5091690000000  0.5781470000000  0.4296870000000 1.0
C      1  0.5804830000000  0.5692090000000  0.4762480000000 1.0
C      1  0.4773640000000  0.5139990000000  0.4293790000000 1.0
C      1  0.4700310000000  0.4976530000000  0.4976840000000 1.0
C      1  0.5603350000000  0.4782810000000  0.4108740000000 1.0
C      1  0.3906120000000  0.5139670000000  0.4776020000000 1.0
C      1  0.4399750000000  0.5596550000000  0.5472170000000 1.0
C      1  0.5488960000000  0.4628750000000  0.5847130000000 1.0
C      1  0.4027370000000  0.5245200000000  0.5614950000000 1.0
C      1  0.4957900000000  0.4621450000000  0.4307650000000 1.0
C      1  0.5510920000000  0.5206730000000  0.6028870000000 1.0
C      1  0.5387910000000  0.4850900000000  0.3952700000000 1.0
C      1  0.4471600000000  0.5306580000000  0.4790100000000 1.0
C      1  0.4341050000000  0.5354850000000  0.4186560000000 1.0
C      1  0.5168550000000  0.4116700000000  0.5097020000000 1.0
C      1  0.5740250000000  0.5028480000000  0.4217960000000 1.0
C      1  0.4608300000000  0.4435700000000  0.4877100000000 1.0
C      1  0.5369510000000  0.3972790000000  0.5276450000000 1.0
C      1  0.4783220000000  0.4495930000000  0.5647890000000 1.0
C      1  0.5404660000000  0.4659590000000  0.4622350000000 1.0
C      1  0.5859900000000  0.5530890000000  0.4237190000000 1.0
C      1  0.4310130000000  0.4950210000000  0.4563210000000 1.0
C      1  0.4688900000000  0.4314660000000  0.5239990000000 1.0
C      1  0.5392380000000  0.5861050000000  0.5043230000000 1.0
C      1  0.5297410000000  0.4674370000000  0.5119360000000 1.0
C      1  0.5309750000000  0.4122620000000  0.4392550000000 1.0
C      1  0.4801550000000  0.5726270000000  0.4235500000000 1.0
C      1  0.5787780000000  0.4654840000000  0.4977630000000 1.0
C      1  0.5846780000000  0.5385410000000  0.5515520000000 1.0
C      1  0.5367300000000  0.5400630000000  0.4928730000000 1.0
C      1  0.4986340000000  0.4927360000000  0.5415250000000 1.0
C      1  0.5805180000000  0.5471820000000  0.4519470000000 1.0
C      1  0.6168020000000  0.5235180000000  0.4799300000000 1.0
C      1  0.4583180000000  0.5691630000000  0.4470200000000 1.0
C      1  0.4015610000000  0.4574320000000  0.4758600000000 1.0
C      1  0.5047340000000  0.4538700000000  0.5043670000000 1.0
C      1  0.4627810000000  0.5050030000000  0.4544470000000 1.0
C      1  0.5300250000000  0.5695090000000  0.4121470000000 1.0
C      1  0.4544740000000  0.4914290000000  0.3988430000000 1.0
C      1  0.5781990000000  0.4959580000000  0.5402320000000 1.0
C      1  0.5415660000000  0.5946550000000  0.5706100000000 1.0
C      1  0.5014210000000  0.4069610000000  0.4435580000000 1.0
C      1  0.5039530000000  0.3889910000000  0.5557250000000 1.0
C      1  0.5765240000000  0.5129090000000  0.5625840000000 1.0
C      1  0.5423170000000  0.5450800000000  0.4035070000000 1.0
C      1  0.4645560000000  0.4518190000000  0.4363710000000 1.0
C      1  0.5516830000000  0.5118900000000  0.5761330000000 1.0
C      1  0.4690030000000  0.5509930000000  0.4710120000000 1.0
C      1  0.4970200000000  0.6158490000000  0.5166970000000 1.0
C      1  0.5214720000000  0.5270120000000  0.3960240000000 1.0
C      1  0.4529700000000  0.5048450000000  0.5374010000000 1.0
C      1  0.5060860000000  0.4471500000000  0.5520560000000 1.0
C      1  0.4952220000000  0.4907130000000  0.4162640000000 1.0
C      1  0.4177910000000  0.4495980000000  0.4521480000000 1.0
C      1  0.4261200000000  0.5195290000000  0.5767080000000 1.0
C      1  0.5326290000000  0.5393890000000  0.5378250000000 1.0
C      1  0.5390880000000  0.4067250000000  0.5570850000000 1.0
C      1  0.5078610000000  0.5203090000000  0.5377290000000 1.0
C      1  0.5139370000000  0.5582620000000  0.5871460000000 1.0
C      1  0.4501120000000  0.5949580000000  0.4604130000000 1.0
C      1  0.4562880000000  0.4169750000000  0.4742780000000 1.0
C      1  0.4692970000000  0.6143800000000  0.5035900000000 1.0
C      1  0.4302410000000  0.4105040000000  0.5195950000000 1.0
C      1  0.5810260000000  0.4677570000000  0.5459260000000 1.0
C      1  0.4361170000000  0.4905000000000  0.5812320000000 1.0
C      1  0.5081680000000  0.5389790000000  0.6091190000000 1.0
C      1  0.4215130000000  0.4650300000000  0.5799600000000 1.0
C      1  0.4727660000000  0.4849070000000  0.5263080000000 1.0
C      1  0.5117560000000  0.4939660000000  0.5926420000000 1.0
C      1  0.4484780000000  0.5399070000000  0.5689900000000 1.0
C      1  0.4279730000000  0.5903040000000  0.4774290000000 1.0
C      1  0.5101910000000  0.4640620000000  0.4587210000000 1.0
C      1  0.5544680000000  0.5504910000000  0.5551850000000 1.0
C      1  0.5334110000000  0.4319390000000  0.4170570000000 1.0
C      1  0.4836510000000  0.5848330000000  0.5547190000000 1.0
C      1  0.4625430000000  0.4874330000000  0.5934330000000 1.0
C      1  0.4186310000000  0.4421670000000  0.5601920000000 1.0
C      1  0.5551530000000  0.4513760000000  0.4233560000000 1.0
C      1  0.5696380000000  0.5325440000000  0.4112380000000 1.0
C      1  0.5604650000000  0.4969310000000  0.4891460000000 1.0
C      1  0.5459700000000  0.4228630000000  0.4883800000000 1.0
C      1  0.4775080000000  0.4612680000000  0.5925660000000 1.0
C      1  0.5640280000000  0.4512190000000  0.5628010000000 1.0
C      1  0.5151680000000  0.6028970000000  0.4970680000000 1.0
C      1  0.5205520000000  0.4741740000000  0.5463740000000 1.0
C      1  0.4500870000000  0.4001650000000  0.4997140000000 1.0
C      1  0.4814330000000  0.4855010000000  0.3907050000000 1.0
C      1  0.4089840000000  0.4633690000000  0.5430690000000 1.0
C      1  0.4332500000000  0.5785930000000  0.5021770000000 1.0
C      1  0.5096460000000  0.5669510000000  0.4570200000000 1.0
C      1  0.5851660000000  0.4514060000000  0.5232940000000 1.0
C      1  0.5169990000000  0.5176230000000  0.4913560000000 1.0
C      1  0.5347430000000  0.4867540000000  0.5731830000000 1.0
C      1  0.4394410000000  0.4882120000000  0.4891700000000 1.0
C      1  0.5540970000000  0.4166010000000  0.4588990000000 1.0
C      1  0.4391750000000  0.4598430000000  0.5024390000000 1.0
C      1  0.4945870000000  0.5251360000000  0.5112800000000 1.0
C      1  0.4418540000000  0.4293040000000  0.4491820000000 1.0
C      1  0.4557730000000  0.5202920000000  0.4092160000000 1.0
C      1  0.4687150000000  0.5207530000000  0.5584100000000 1.0
C      1  0.4012180000000  0.4915190000000  0.4938600000000 1.0
C      1  0.5350940000000  0.5132690000000  0.4452970000000 1.0
C      1  0.3969650000000  0.5478140000000  0.5178880000000 1.0
C      1  0.4807900000000  0.4869530000000  0.4712050000000 1.0
C      1  0.4964170000000  0.5889270000000  0.4780060000000 1.0
C      1  0.5704540000000  0.4385550000000  0.4446740000000 1.0
C      1  0.4125890000000  0.5063370000000  0.5190940000000 1.0
C      1  0.3934320000000  0.5236550000000  0.5347500000000 1.0
C      1  0.5054720000000  0.4660780000000  0.6033160000000 1.0
C      1  0.4225540000000  0.5413470000000  0.4644450000000 1.0
C      1  0.5532320000000  0.5809590000000  0.4769700000000 1.0
C      1  0.5049360000000  0.4392740000000  0.4133650000000 1.0
C      1  0.4814710000000  0.5085040000000  0.5850430000000 1.0
C      1  0.5037820000000  0.4421690000000  0.4778310000000 1.0
C      1  0.5236180000000  0.5029180000000  0.4126270000000 1.0
C      1  0.5604420000000  0.4072820000000  0.5111450000000 1.0
C      1  0.4663890000000  0.4622260000000  0.4652030000000 1.0
C      1  0.4797810000000  0.5691570000000  0.4941080000000 1.0
C      1  0.5268220000000  0.5576000000000  0.5144150000000 1.0
C      1  0.5905790000000  0.5160730000000  0.5206420000000 1.0
C      1  0.5411560000000  0.5678320000000  0.5781160000000 1.0
C      1  0.5652130000000  0.4225230000000  0.5573920000000 1.0
C      1  0.5735060000000  0.5694680000000  0.5294870000000 1.0
C      1  0.4078380000000  0.4217450000000  0.5072510000000 1.0
C      1  0.5818070000000  0.5554690000000  0.5031160000000 1.0
C      1  0.4797070000000  0.5314600000000  0.6051240000000 1.0
C      1  0.5369070000000  0.5576550000000  0.4679880000000 1.0
C      1  0.4801780000000  0.3932530000000  0.5391980000000 1.0
C      1  0.5336350000000  0.4947820000000  0.5009170000000 1.0
C      1  0.4329720000000  0.5543390000000  0.4392660000000 1.0
C      1  0.5948800000000  0.4503300000000  0.4511990000000 1.0
C      1  0.4988170000000  0.6052140000000  0.5430010000000 1.0
C      1  0.5690970000000  0.5271550000000  0.4996480000000 1.0
C      1  0.6108980000000  0.5047680000000  0.4999660000000 1.0
C      1  0.4595190000000  0.5799870000000  0.5404220000000 1.0
C      1  0.4995320000000  0.4341670000000  0.5246630000000 1.0
C      1  0.5936030000000  0.5001200000000  0.4442740000000 1.0
C      1  0.5768370000000  0.4234020000000  0.5300700000000 1.0
C      1  0.5989310000000  0.5244760000000  0.4584480000000 1.0
C      1  0.4967880000000  0.5389720000000  0.3909800000000 1.0
C      1  0.3928550000000  0.5410770000000  0.4894660000000 1.0
C      1  0.5247380000000  0.5145700000000  0.6110530000000 1.0
C      1  0.4716320000000  0.4201570000000  0.5659020000000 1.0
C      1  0.4234060000000  0.4738740000000  0.4362450000000 1.0
C      1  0.4983590000000  0.3957090000000  0.4930600000000 1.0
C      1  0.4789560000000  0.5570750000000  0.4003240000000 1.0
C      1  0.6047240000000  0.4780790000000  0.4877190000000 1.0
C      1  0.4267670000000  0.5539850000000  0.5199500000000 1.0
C      1  0.4731930000000  0.6091590000000  0.4731240000000 1.0
C      1  0.4926600000000  0.5399880000000  0.4538020000000 1.0
C      1  0.4239570000000  0.4878260000000  0.5389180000000 1.0
C      1  0.4657180000000  0.5537870000000  0.5907360000000 1.0
C      1  0.4970300000000  0.5544730000000  0.5116540000000 1.0
C      1  0.4381730000000  0.4226970000000  0.5465030000000 1.0
C      1  0.5190110000000  0.4279200000000  0.5714440000000 1.0
C      1  0.4975000000000  0.4080040000000  0.5767370000000 1.0
C      1  0.4098330000000  0.5162620000000  0.4557250000000 1.0
END
