TITL C-951342-2639-265 9.87606220510947e-07 125000 -222.032381772787 0 0 37 (C1) n - 1
REM
REM in /home/bkarasulu/work/CARBON/AIRSS/Generating-Clusters/EDIP-Nigel-Params/with-SteepDescent/Only-C1/SD-CG/HFTN-CG
REM
REM
REM
REM
REM
REM ./C.cell (11c1c37f851c82e70ff6c80c92926a4b)
REM
REM compiler GCC version 9.2.1 20190827 (Red Hat 9.2.1-1)
REM options -cpp -mtune=generic -march=x86-64 -g -O0 -fpre-include=/usr/include/finclude/math-vector-fortran.h
REM seed -1018920341 1178203355 1338412539 891952521 1685608844 -921989687 -1462266769 138471603 84395200 439810663 -1626037042 849981154 -1583671392 -2090226922 -1404201608 499704763 -978129862 1529514734 -87127738 1248663371 -1050997490 -149380126 260685681 -1295756107 706501281 1313497600 1429364446 778056132 -693877776 -998132826 -917987873 177451494 -152472145
REM
CELL 1.54180   50.00000   50.00000   50.00000   90.00000   90.00000   90.00000
LATT -1
SFAC C  
C      1  0.4899990000000  0.5221780000000  0.5627070000000 1.0
C      1  0.5682420000000  0.5420990000000  0.5451060000000 1.0
C      1  0.4237160000000  0.5008790000000  0.4942830000000 1.0
C      1  0.5241330000000  0.5068360000000  0.4665140000000 1.0
C      1  0.5336950000000  0.4627940000000  0.5229640000000 1.0
C      1  0.4862390000000  0.4454100000000  0.4634390000000 1.0
C      1  0.4639170000000  0.5028140000000  0.4934390000000 1.0
C      1  0.5227920000000  0.4930160000000  0.4425590000000 1.0
C      1  0.4767720000000  0.5079620000000  0.5431710000000 1.0
C      1  0.4377620000000  0.4559790000000  0.4899420000000 1.0
C      1  0.4503460000000  0.5142200000000  0.5365200000000 1.0
C      1  0.5070530000000  0.5565400000000  0.5169020000000 1.0
C      1  0.5143330000000  0.4751930000000  0.5367310000000 1.0
C      1  0.4634710000000  0.4519480000000  0.5010900000000 1.0
C      1  0.4784900000000  0.5286180000000  0.4690330000000 1.0
C      1  0.5480570000000  0.5070080000000  0.4827460000000 1.0
C      1  0.5189900000000  0.5402100000000  0.4980950000000 1.0
C      1  0.4520530000000  0.4846160000000  0.4552180000000 1.0
C      1  0.5562260000000  0.5668860000000  0.5423660000000 1.0
C      1  0.5144610000000  0.4482860000000  0.4583280000000 1.0
C      1  0.5324460000000  0.4445460000000  0.4793200000000 1.0
C      1  0.5073310000000  0.5432680000000  0.5640560000000 1.0
C      1  0.4783280000000  0.4325050000000  0.4871600000000 1.0
C      1  0.5213110000000  0.4665510000000  0.4385320000000 1.0
C      1  0.4681620000000  0.4620020000000  0.4495910000000 1.0
C      1  0.5649340000000  0.5389070000000  0.5177960000000 1.0
C      1  0.5314620000000  0.5727250000000  0.5546410000000 1.0
C      1  0.4426340000000  0.5161400000000  0.5098650000000 1.0
C      1  0.5068320000000  0.5633690000000  0.5439370000000 1.0
C      1  0.5434200000000  0.5262020000000  0.5040160000000 1.0
C      1  0.4883410000000  0.4838110000000  0.5320020000000 1.0
C      1  0.5462540000000  0.4593090000000  0.4984880000000 1.0
C      1  0.4309500000000  0.4794810000000  0.4760450000000 1.0
C      1  0.5061410000000  0.5271120000000  0.4758250000000 1.0
C      1  0.4778050000000  0.4778930000000  0.5055100000000 1.0
C      1  0.4638330000000  0.5105590000000  0.4532600000000 1.0
C      1  0.5590700000000  0.4821280000000  0.4888000000000 1.0
END
