TITL C-951345-2650-215 -1.71168832112104e-06 125000 -244.827389436715 0 0 41 (C1) n - 1
REM
REM in /home/bkarasulu/work/CARBON/AIRSS/Generating-Clusters/EDIP-Nigel-Params/with-SteepDescent/Only-C1/SD-CG/HFTN-CG
REM
REM
REM
REM
REM
REM ./C.cell (11c1c37f851c82e70ff6c80c92926a4b)
REM
REM compiler GCC version 9.2.1 20190827 (Red Hat 9.2.1-1)
REM options -cpp -mtune=generic -march=x86-64 -g -O0 -fpre-include=/usr/include/finclude/math-vector-fortran.h
REM seed 1006528248 -664415321 -480366118 -1717758266 -1407277096 1737927862 1977770337 1419268508 -1375239632 788436432 1069869562 -2054761140 982599079 -359143538 -1791717112 -1391827886 -1825085195 420751168 -1591813372 1653406478 -2099308919 -932499591 549333187 963115489 -717940960 1320100128 1919462457 1175419114 -1897313265 -1527319365 -334288945 -291251781 278247740
REM
CELL 1.54180   50.00000   50.00000   50.00000   90.00000   90.00000   90.00000
LATT -1
SFAC C  
C      1  0.5117630000000  0.5308110000000  0.5402330000000 1.0
C      1  0.4781770000000  0.4428410000000  0.4693120000000 1.0
C      1  0.4439210000000  0.5105600000000  0.5020100000000 1.0
C      1  0.5102420000000  0.5338740000000  0.4307790000000 1.0
C      1  0.4693320000000  0.5415710000000  0.5352150000000 1.0
C      1  0.4726480000000  0.4465490000000  0.5182380000000 1.0
C      1  0.5138150000000  0.4581290000000  0.5254420000000 1.0
C      1  0.4993240000000  0.5741590000000  0.4842720000000 1.0
C      1  0.4820590000000  0.4941730000000  0.5506390000000 1.0
C      1  0.5183000000000  0.4433000000000  0.4997910000000 1.0
C      1  0.4956820000000  0.5342870000000  0.4546270000000 1.0
C      1  0.5244150000000  0.4448530000000  0.5489760000000 1.0
C      1  0.4785270000000  0.5117040000000  0.4620480000000 1.0
C      1  0.5077930000000  0.5312710000000  0.5096660000000 1.0
C      1  0.5062280000000  0.5014420000000  0.5006060000000 1.0
C      1  0.4620000000000  0.5122790000000  0.5365200000000 1.0
C      1  0.5308340000000  0.5455800000000  0.4972020000000 1.0
C      1  0.4897500000000  0.4348500000000  0.4964750000000 1.0
C      1  0.5558850000000  0.5347820000000  0.4995530000000 1.0
C      1  0.5517110000000  0.4902500000000  0.5210250000000 1.0
C      1  0.4967990000000  0.4486150000000  0.4484960000000 1.0
C      1  0.4908530000000  0.5451600000000  0.5533850000000 1.0
C      1  0.5801150000000  0.4883410000000  0.5203750000000 1.0
C      1  0.5295710000000  0.4584220000000  0.4787610000000 1.0
C      1  0.5230600000000  0.5104310000000  0.4288740000000 1.0
C      1  0.4662320000000  0.4682200000000  0.4787290000000 1.0
C      1  0.5105700000000  0.5021420000000  0.5470840000000 1.0
C      1  0.4818270000000  0.5502280000000  0.5081250000000 1.0
C      1  0.5266650000000  0.5701500000000  0.4849210000000 1.0
C      1  0.4418280000000  0.4863650000000  0.5160200000000 1.0
C      1  0.5002500000000  0.4493130000000  0.5615030000000 1.0
C      1  0.4552570000000  0.5223360000000  0.4778740000000 1.0
C      1  0.4618990000000  0.5501700000000  0.4834210000000 1.0
C      1  0.4789410000000  0.4648250000000  0.5505930000000 1.0
C      1  0.5114600000000  0.4709480000000  0.4603130000000 1.0
C      1  0.4833690000000  0.5590620000000  0.4648880000000 1.0
C      1  0.5247600000000  0.4864800000000  0.4404360000000 1.0
C      1  0.4535320000000  0.4631500000000  0.5044810000000 1.0
C      1  0.5686930000000  0.5122970000000  0.5093790000000 1.0
C      1  0.5212520000000  0.4875600000000  0.5229620000000 1.0
C      1  0.4906630000000  0.4885180000000  0.4767520000000 1.0
END
