TITL C-951345-2650-164 -1.90628173877894e-06 125000 -1139.23370012921 0 0 185 (C1) n - 1
REM
REM in /home/bkarasulu/work/CARBON/AIRSS/Generating-Clusters/EDIP-Nigel-Params/with-SteepDescent/Only-C1/SD-CG/HFTN-CG
REM
REM
REM
REM
REM
REM ./C.cell (11c1c37f851c82e70ff6c80c92926a4b)
REM
REM compiler GCC version 9.2.1 20190827 (Red Hat 9.2.1-1)
REM options -cpp -mtune=generic -march=x86-64 -g -O0 -fpre-include=/usr/include/finclude/math-vector-fortran.h
REM seed -1320695158 767940514 -1012238615 2098636631 324689146 -1633442746 2046649065 1751762100 1270528636 2121502122 -263303574 411116602 -1614803686 -247812467 -923168107 -861457955 2098713277 -1095689620 61218169 -1593420406 -1553535388 2019244508 80446711 1462365199 -789890976 -1798807992 -1360352326 1397607127 -876281218 123318360 1907517810 1749726019 -932097385
REM
CELL 1.54180   50.00000   50.00000   50.00000   90.00000   90.00000   90.00000
LATT -1
SFAC C  
C      1  0.5477270000000  0.4594080000000  0.3882000000000 1.0
C      1  0.4250390000000  0.5730140000000  0.5545230000000 1.0
C      1  0.5991210000000  0.4542000000000  0.5465540000000 1.0
C      1  0.5865650000000  0.5740590000000  0.5444450000000 1.0
C      1  0.4636280000000  0.6005090000000  0.5272380000000 1.0
C      1  0.4594780000000  0.5153340000000  0.4470830000000 1.0
C      1  0.4151820000000  0.4221880000000  0.4602670000000 1.0
C      1  0.4599230000000  0.4463260000000  0.5890570000000 1.0
C      1  0.4591570000000  0.3982280000000  0.4593650000000 1.0
C      1  0.5326450000000  0.4973940000000  0.4393880000000 1.0
C      1  0.5635290000000  0.5749010000000  0.5148590000000 1.0
C      1  0.3896330000000  0.4685610000000  0.4993050000000 1.0
C      1  0.4310670000000  0.4700100000000  0.5907180000000 1.0
C      1  0.4182200000000  0.4662940000000  0.5378760000000 1.0
C      1  0.5282660000000  0.4329180000000  0.5290380000000 1.0
C      1  0.3909400000000  0.5499300000000  0.4937950000000 1.0
C      1  0.5143030000000  0.5486060000000  0.5471870000000 1.0
C      1  0.5449620000000  0.4056480000000  0.5361260000000 1.0
C      1  0.4879380000000  0.5894660000000  0.5160520000000 1.0
C      1  0.5653510000000  0.4516580000000  0.4084680000000 1.0
C      1  0.5698300000000  0.5871600000000  0.4885950000000 1.0
C      1  0.4873180000000  0.5119670000000  0.6176880000000 1.0
C      1  0.4776150000000  0.4068430000000  0.4381890000000 1.0
C      1  0.5318650000000  0.5749920000000  0.5531720000000 1.0
C      1  0.4938670000000  0.4028990000000  0.5412950000000 1.0
C      1  0.5594030000000  0.5036860000000  0.4255600000000 1.0
C      1  0.5140690000000  0.5578790000000  0.4029420000000 1.0
C      1  0.4389070000000  0.5624790000000  0.5067140000000 1.0
C      1  0.4229990000000  0.5665770000000  0.4593900000000 1.0
C      1  0.5720960000000  0.5249790000000  0.4443310000000 1.0
C      1  0.5649300000000  0.4180250000000  0.4514530000000 1.0
C      1  0.5749670000000  0.3969040000000  0.5130230000000 1.0
C      1  0.4218950000000  0.4509690000000  0.5113030000000 1.0
C      1  0.4772940000000  0.5088620000000  0.5488790000000 1.0
C      1  0.5147650000000  0.4312480000000  0.4612740000000 1.0
C      1  0.4813850000000  0.4494510000000  0.5028460000000 1.0
C      1  0.5435280000000  0.4840040000000  0.5201840000000 1.0
C      1  0.5816730000000  0.5714100000000  0.4682100000000 1.0
C      1  0.4997830000000  0.5601920000000  0.6187950000000 1.0
C      1  0.5641650000000  0.4838360000000  0.4745870000000 1.0
C      1  0.4782650000000  0.5257000000000  0.5943730000000 1.0
C      1  0.5310270000000  0.5971810000000  0.5319430000000 1.0
C      1  0.5412240000000  0.5466830000000  0.4063710000000 1.0
C      1  0.5566080000000  0.5364540000000  0.4689030000000 1.0
C      1  0.5228490000000  0.5646900000000  0.6024470000000 1.0
C      1  0.5269250000000  0.4925240000000  0.6199460000000 1.0
C      1  0.5841870000000  0.4387920000000  0.4612390000000 1.0
C      1  0.4415090000000  0.4192640000000  0.4690130000000 1.0
C      1  0.4802880000000  0.5850240000000  0.4279160000000 1.0
C      1  0.4948620000000  0.4624430000000  0.5509070000000 1.0
C      1  0.5953380000000  0.4689430000000  0.4993730000000 1.0
C      1  0.4295270000000  0.4080690000000  0.5377350000000 1.0
C      1  0.5238950000000  0.4462990000000  0.5562070000000 1.0
C      1  0.5093730000000  0.5174080000000  0.4360780000000 1.0
C      1  0.5058740000000  0.4157360000000  0.5172880000000 1.0
C      1  0.5134810000000  0.5212310000000  0.5076020000000 1.0
C      1  0.5805700000000  0.4452940000000  0.4900750000000 1.0
C      1  0.4955230000000  0.5224230000000  0.5695960000000 1.0
C      1  0.4465770000000  0.4239290000000  0.4978240000000 1.0
C      1  0.5360710000000  0.4499800000000  0.4416700000000 1.0
C      1  0.5238650000000  0.5185880000000  0.4800270000000 1.0
C      1  0.4158220000000  0.4893660000000  0.4311180000000 1.0
C      1  0.5617360000000  0.5275040000000  0.5000620000000 1.0
C      1  0.4611000000000  0.5460170000000  0.4514720000000 1.0
C      1  0.4411910000000  0.4832960000000  0.5455540000000 1.0
C      1  0.4856240000000  0.5709040000000  0.4918690000000 1.0
C      1  0.4433500000000  0.5746570000000  0.4792900000000 1.0
C      1  0.4297130000000  0.5572830000000  0.4333280000000 1.0
C      1  0.4347280000000  0.5043100000000  0.4717410000000 1.0
C      1  0.4618970000000  0.5960830000000  0.4740460000000 1.0
C      1  0.6073750000000  0.4993060000000  0.5297160000000 1.0
C      1  0.5613930000000  0.4725790000000  0.5795490000000 1.0
C      1  0.6094660000000  0.5137310000000  0.5039400000000 1.0
C      1  0.4145470000000  0.5373520000000  0.4210020000000 1.0
C      1  0.4464500000000  0.4455380000000  0.4180230000000 1.0
C      1  0.5252680000000  0.5955580000000  0.4349620000000 1.0
C      1  0.5245050000000  0.6045770000000  0.4850210000000 1.0
C      1  0.4738610000000  0.5570570000000  0.4280160000000 1.0
C      1  0.5009610000000  0.5137410000000  0.4040640000000 1.0
C      1  0.5262420000000  0.5672360000000  0.5085500000000 1.0
C      1  0.5343270000000  0.5233370000000  0.5496400000000 1.0
C      1  0.5211470000000  0.5075330000000  0.5735190000000 1.0
C      1  0.5626940000000  0.5438610000000  0.5767600000000 1.0
C      1  0.4063270000000  0.5275040000000  0.5446690000000 1.0
C      1  0.4088530000000  0.4959960000000  0.4602770000000 1.0
C      1  0.5442910000000  0.5644470000000  0.4601490000000 1.0
C      1  0.6023170000000  0.5594290000000  0.5264350000000 1.0
C      1  0.5680980000000  0.4983500000000  0.5096200000000 1.0
C      1  0.4738110000000  0.5229190000000  0.4885540000000 1.0
C      1  0.4736590000000  0.4734570000000  0.3876270000000 1.0
C      1  0.4247290000000  0.5594550000000  0.5794170000000 1.0
C      1  0.5064110000000  0.5038980000000  0.6347340000000 1.0
C      1  0.5977840000000  0.5238860000000  0.4587830000000 1.0
C      1  0.5840260000000  0.5086660000000  0.5438680000000 1.0
C      1  0.4330250000000  0.4637490000000  0.4388890000000 1.0
C      1  0.4121120000000  0.4494550000000  0.4553030000000 1.0
C      1  0.4771940000000  0.4456770000000  0.5323410000000 1.0
C      1  0.4509950000000  0.3892290000000  0.5306510000000 1.0
C      1  0.4928360000000  0.4391590000000  0.4082550000000 1.0
C      1  0.5243520000000  0.5019530000000  0.3902370000000 1.0
C      1  0.5630060000000  0.4986660000000  0.5880750000000 1.0
C      1  0.4830450000000  0.4643570000000  0.5806870000000 1.0
C      1  0.5512320000000  0.4448330000000  0.4904950000000 1.0
C      1  0.4646970000000  0.4016650000000  0.5085650000000 1.0
C      1  0.5746010000000  0.4412560000000  0.5464860000000 1.0
C      1  0.4494140000000  0.5759790000000  0.5336630000000 1.0
C      1  0.5521760000000  0.6078000000000  0.4831690000000 1.0
C      1  0.5470750000000  0.3863790000000  0.5109660000000 1.0
C      1  0.4509890000000  0.4576310000000  0.3932280000000 1.0
C      1  0.5110000000000  0.6042720000000  0.4593420000000 1.0
C      1  0.5991000000000  0.5009590000000  0.4783180000000 1.0
C      1  0.5662070000000  0.4624870000000  0.4516420000000 1.0
C      1  0.4508470000000  0.4857660000000  0.5742150000000 1.0
C      1  0.5535430000000  0.4517580000000  0.5634680000000 1.0
C      1  0.5411240000000  0.4217060000000  0.4754350000000 1.0
C      1  0.5237780000000  0.4726550000000  0.3973710000000 1.0
C      1  0.4130950000000  0.4932790000000  0.5958710000000 1.0
C      1  0.4766230000000  0.3903710000000  0.4824270000000 1.0
C      1  0.4849260000000  0.5459000000000  0.4725150000000 1.0
C      1  0.5323530000000  0.4585130000000  0.5083150000000 1.0
C      1  0.5741490000000  0.4752880000000  0.4254710000000 1.0
C      1  0.4525860000000  0.5331350000000  0.5079130000000 1.0
C      1  0.4005820000000  0.5534700000000  0.4690030000000 1.0
C      1  0.5376040000000  0.5103990000000  0.5980340000000 1.0
C      1  0.5738870000000  0.4135500000000  0.5382040000000 1.0
C      1  0.5031450000000  0.4500000000000  0.5983810000000 1.0
C      1  0.5114020000000  0.6074470000000  0.5122700000000 1.0
C      1  0.5736940000000  0.5177580000000  0.5692280000000 1.0
C      1  0.4055190000000  0.5565930000000  0.5395130000000 1.0
C      1  0.5055500000000  0.4041320000000  0.4494760000000 1.0
C      1  0.5226900000000  0.5030630000000  0.5289480000000 1.0
C      1  0.5258620000000  0.4000190000000  0.4944660000000 1.0
C      1  0.4522120000000  0.5142110000000  0.5852170000000 1.0
C      1  0.4721640000000  0.4907070000000  0.4901580000000 1.0
C      1  0.4915470000000  0.4107570000000  0.5691930000000 1.0
C      1  0.5150590000000  0.5801690000000  0.5778940000000 1.0
C      1  0.4570750000000  0.4247170000000  0.5454010000000 1.0
C      1  0.5368290000000  0.4944860000000  0.4682390000000 1.0
C      1  0.4930980000000  0.5399140000000  0.3919580000000 1.0
C      1  0.4868120000000  0.5695250000000  0.5745560000000 1.0
C      1  0.5063220000000  0.3868790000000  0.4745110000000 1.0
C      1  0.4797370000000  0.5549160000000  0.5993560000000 1.0
C      1  0.4665760000000  0.5322650000000  0.5340620000000 1.0
C      1  0.5030730000000  0.4684880000000  0.4930510000000 1.0
C      1  0.4631380000000  0.4208450000000  0.5746450000000 1.0
C      1  0.4256510000000  0.5122860000000  0.4143020000000 1.0
C      1  0.4552440000000  0.4736760000000  0.4602270000000 1.0
C      1  0.4194070000000  0.4208340000000  0.5134510000000 1.0
C      1  0.4988300000000  0.4578850000000  0.3885250000000 1.0
C      1  0.4659110000000  0.5428960000000  0.4043920000000 1.0
C      1  0.4907080000000  0.4267020000000  0.4846430000000 1.0
C      1  0.4733430000000  0.4360290000000  0.4291250000000 1.0
C      1  0.4986960000000  0.4738050000000  0.4601100000000 1.0
C      1  0.5580780000000  0.5617820000000  0.4242260000000 1.0
C      1  0.5986770000000  0.5490810000000  0.4756110000000 1.0
C      1  0.4971480000000  0.4895240000000  0.5377320000000 1.0
C      1  0.4107450000000  0.5374390000000  0.5911400000000 1.0
C      1  0.4763800000000  0.4966290000000  0.4044720000000 1.0
C      1  0.4332470000000  0.5090400000000  0.5040840000000 1.0
C      1  0.4568930000000  0.4907880000000  0.5207470000000 1.0
C      1  0.4055130000000  0.5104610000000  0.5200930000000 1.0
C      1  0.4719110000000  0.5592200000000  0.5442040000000 1.0
C      1  0.5487380000000  0.5450590000000  0.5205650000000 1.0
C      1  0.4059870000000  0.4704460000000  0.4752940000000 1.0
C      1  0.5477400000000  0.5176030000000  0.4005880000000 1.0
C      1  0.3984290000000  0.5181710000000  0.5713450000000 1.0
C      1  0.6032100000000  0.5423000000000  0.5039460000000 1.0
C      1  0.5425300000000  0.5418400000000  0.5985540000000 1.0
C      1  0.5611840000000  0.5655150000000  0.5578740000000 1.0
C      1  0.5218230000000  0.4664650000000  0.6112450000000 1.0
C      1  0.5130320000000  0.4294080000000  0.5789750000000 1.0
C      1  0.5135650000000  0.5393110000000  0.4597350000000 1.0
C      1  0.4555540000000  0.5154430000000  0.4156430000000 1.0
C      1  0.4876500000000  0.5028370000000  0.4517120000000 1.0
C      1  0.4290900000000  0.5171890000000  0.6026420000000 1.0
C      1  0.5586970000000  0.4260140000000  0.4229540000000 1.0
C      1  0.5066790000000  0.5844660000000  0.4149780000000 1.0
C      1  0.4837680000000  0.5953660000000  0.4552540000000 1.0
C      1  0.3951860000000  0.4826010000000  0.5251380000000 1.0
C      1  0.5218140000000  0.4719760000000  0.4284700000000 1.0
C      1  0.5043060000000  0.5482060000000  0.5176490000000 1.0
C      1  0.4775390000000  0.4543250000000  0.4533270000000 1.0
C      1  0.5529230000000  0.5887620000000  0.4310740000000 1.0
C      1  0.4094190000000  0.5617510000000  0.5114870000000 1.0
C      1  0.6085310000000  0.4701780000000  0.5255020000000 1.0
END
