TITL C-951342-2639-663 -4.37083094074539e-06 125000 -1211.45895903863 0 0 193 (C1) n - 1
REM
REM in /home/bkarasulu/work/CARBON/AIRSS/Generating-Clusters/EDIP-Nigel-Params/with-SteepDescent/Only-C1/SD-CG/HFTN-CG
REM
REM
REM
REM
REM
REM ./C.cell (11c1c37f851c82e70ff6c80c92926a4b)
REM
REM compiler GCC version 9.2.1 20190827 (Red Hat 9.2.1-1)
REM options -cpp -mtune=generic -march=x86-64 -g -O0 -fpre-include=/usr/include/finclude/math-vector-fortran.h
REM seed -283767094 1668694248 -1897290258 -321236128 -582021295 847481595 1524621691 26179639 1308357173 -755522596 1664799882 217405887 458557683 -117701926 1458392956 1712566034 -924349225 2135118472 1410221087 1954270518 -1440455130 -1024264246 1972387714 -2144522522 649224349 1694926771 1259649549 1664818092 177450699 827488829 -909358364 1613361245 117900334
REM
CELL 1.54180   50.00000   50.00000   50.00000   90.00000   90.00000   90.00000
LATT -1
SFAC C  
C      1  0.5475660000000  0.4100730000000  0.5454100000000 1.0
C      1  0.4844130000000  0.4575880000000  0.5125580000000 1.0
C      1  0.4380780000000  0.4289850000000  0.4526230000000 1.0
C      1  0.4965150000000  0.4186270000000  0.4266610000000 1.0
C      1  0.4796700000000  0.4954340000000  0.5561960000000 1.0
C      1  0.4949590000000  0.5101940000000  0.6085450000000 1.0
C      1  0.6014010000000  0.4985360000000  0.4882570000000 1.0
C      1  0.5652550000000  0.5511760000000  0.4225280000000 1.0
C      1  0.4423210000000  0.4920130000000  0.4126080000000 1.0
C      1  0.6003980000000  0.5396500000000  0.5201570000000 1.0
C      1  0.4414850000000  0.4678690000000  0.5173410000000 1.0
C      1  0.4859280000000  0.5224170000000  0.5795660000000 1.0
C      1  0.5888110000000  0.4372650000000  0.5304190000000 1.0
C      1  0.6050500000000  0.5437480000000  0.4704640000000 1.0
C      1  0.5528670000000  0.5106030000000  0.5327660000000 1.0
C      1  0.3878300000000  0.4979640000000  0.4875530000000 1.0
C      1  0.5307770000000  0.4439860000000  0.6052860000000 1.0
C      1  0.4355230000000  0.5410930000000  0.5048900000000 1.0
C      1  0.4732800000000  0.4168450000000  0.4503210000000 1.0
C      1  0.5511370000000  0.5538610000000  0.6008940000000 1.0
C      1  0.5129630000000  0.4480120000000  0.4658310000000 1.0
C      1  0.3876150000000  0.5292280000000  0.5186120000000 1.0
C      1  0.5245280000000  0.5511380000000  0.6165230000000 1.0
C      1  0.4981000000000  0.4786390000000  0.4320280000000 1.0
C      1  0.5856820000000  0.4808120000000  0.5547450000000 1.0
C      1  0.4820240000000  0.4441280000000  0.4622230000000 1.0
C      1  0.4606350000000  0.4861180000000  0.5952810000000 1.0
C      1  0.5038800000000  0.4985530000000  0.5390480000000 1.0
C      1  0.4901570000000  0.4371030000000  0.4049080000000 1.0
C      1  0.4553200000000  0.5027150000000  0.4853680000000 1.0
C      1  0.4022890000000  0.5022060000000  0.4385460000000 1.0
C      1  0.5427100000000  0.4485940000000  0.4557610000000 1.0
C      1  0.4530100000000  0.4101810000000  0.4975820000000 1.0
C      1  0.5871290000000  0.4278980000000  0.5023750000000 1.0
C      1  0.4053090000000  0.4880920000000  0.4637620000000 1.0
C      1  0.4170580000000  0.5825390000000  0.5225460000000 1.0
C      1  0.5582850000000  0.5754550000000  0.5286710000000 1.0
C      1  0.4716670000000  0.6117530000000  0.5068500000000 1.0
C      1  0.5721230000000  0.5946480000000  0.4846940000000 1.0
C      1  0.5554620000000  0.4551500000000  0.5988890000000 1.0
C      1  0.5402130000000  0.6093490000000  0.4506540000000 1.0
C      1  0.4962440000000  0.5089080000000  0.3923890000000 1.0
C      1  0.4823470000000  0.4128950000000  0.5372140000000 1.0
C      1  0.4981540000000  0.5680540000000  0.4543960000000 1.0
C      1  0.5849790000000  0.5756510000000  0.4639550000000 1.0
C      1  0.5239390000000  0.4159270000000  0.5609660000000 1.0
C      1  0.4205560000000  0.4507250000000  0.4387840000000 1.0
C      1  0.5173600000000  0.3894640000000  0.5062790000000 1.0
C      1  0.4862430000000  0.5766940000000  0.4812340000000 1.0
C      1  0.5324420000000  0.4711700000000  0.3959580000000 1.0
C      1  0.4392840000000  0.4960600000000  0.5753600000000 1.0
C      1  0.5469320000000  0.5100340000000  0.6102200000000 1.0
C      1  0.5778990000000  0.5255490000000  0.4315760000000 1.0
C      1  0.5537480000000  0.4830790000000  0.6046190000000 1.0
C      1  0.5656190000000  0.3844040000000  0.5076440000000 1.0
C      1  0.5380010000000  0.5939760000000  0.5400050000000 1.0
C      1  0.5061160000000  0.4567570000000  0.6096950000000 1.0
C      1  0.6029640000000  0.4966040000000  0.4589760000000 1.0
C      1  0.4575270000000  0.4725240000000  0.3948120000000 1.0
C      1  0.5027900000000  0.5675930000000  0.5630340000000 1.0
C      1  0.5708680000000  0.5509040000000  0.4900610000000 1.0
C      1  0.5340500000000  0.5504570000000  0.4216490000000 1.0
C      1  0.4207540000000  0.4516980000000  0.5594250000000 1.0
C      1  0.4118370000000  0.4261010000000  0.5173650000000 1.0
C      1  0.4559310000000  0.5774510000000  0.4773810000000 1.0
C      1  0.4981880000000  0.5073970000000  0.5116190000000 1.0
C      1  0.3548470000000  0.4785490000000  0.4919490000000 1.0
C      1  0.5913670000000  0.5111470000000  0.5609180000000 1.0
C      1  0.5925820000000  0.4502320000000  0.4862710000000 1.0
C      1  0.5263710000000  0.4899640000000  0.5773760000000 1.0
C      1  0.4923090000000  0.5021120000000  0.4525220000000 1.0
C      1  0.4853710000000  0.4816450000000  0.3863970000000 1.0
C      1  0.4006280000000  0.4428070000000  0.5388680000000 1.0
C      1  0.4361130000000  0.4110510000000  0.5205010000000 1.0
C      1  0.4884450000000  0.5760220000000  0.5877380000000 1.0
C      1  0.5673120000000  0.5222220000000  0.4816930000000 1.0
C      1  0.5200040000000  0.5474700000000  0.5058380000000 1.0
C      1  0.5364220000000  0.4667150000000  0.5610190000000 1.0
C      1  0.4184130000000  0.5518630000000  0.4578710000000 1.0
C      1  0.5336920000000  0.5000340000000  0.3922940000000 1.0
C      1  0.3994800000000  0.5589510000000  0.4810600000000 1.0
C      1  0.4149120000000  0.4817430000000  0.4200830000000 1.0
C      1  0.5606590000000  0.4092530000000  0.4651110000000 1.0
C      1  0.4732810000000  0.5342800000000  0.5110810000000 1.0
C      1  0.5205200000000  0.5203650000000  0.4947720000000 1.0
C      1  0.4093970000000  0.5826490000000  0.4950800000000 1.0
C      1  0.4902100000000  0.3880110000000  0.5190750000000 1.0
C      1  0.5159550000000  0.5195660000000  0.4620400000000 1.0
C      1  0.4994200000000  0.4830650000000  0.5935970000000 1.0
C      1  0.4290690000000  0.5642980000000  0.5420480000000 1.0
C      1  0.4504980000000  0.4952070000000  0.5156130000000 1.0
C      1  0.4886940000000  0.6037230000000  0.5304360000000 1.0
C      1  0.5867520000000  0.5216880000000  0.5862470000000 1.0
C      1  0.5137770000000  0.3937870000000  0.4770800000000 1.0
C      1  0.5673920000000  0.5293900000000  0.6051380000000 1.0
C      1  0.5328680000000  0.4525730000000  0.5086220000000 1.0
C      1  0.5594850000000  0.5198010000000  0.4531130000000 1.0
C      1  0.4119420000000  0.5280930000000  0.4423820000000 1.0
C      1  0.5683410000000  0.5568250000000  0.5509180000000 1.0
C      1  0.5466000000000  0.5596370000000  0.5064540000000 1.0
C      1  0.5840690000000  0.4753820000000  0.4470820000000 1.0
C      1  0.4961480000000  0.4804720000000  0.4972400000000 1.0
C      1  0.4064870000000  0.5360710000000  0.4989680000000 1.0
C      1  0.4761540000000  0.5295800000000  0.3992560000000 1.0
C      1  0.4626800000000  0.5362620000000  0.5390400000000 1.0
C      1  0.5520650000000  0.4610700000000  0.4146260000000 1.0
C      1  0.4479070000000  0.5218850000000  0.4047440000000 1.0
C      1  0.5264520000000  0.5155640000000  0.4163370000000 1.0
C      1  0.5013530000000  0.5662340000000  0.6104580000000 1.0
C      1  0.5335310000000  0.4024640000000  0.4575020000000 1.0
C      1  0.5603460000000  0.4822980000000  0.4909660000000 1.0
C      1  0.5582280000000  0.4796990000000  0.5406710000000 1.0
C      1  0.4362160000000  0.4837420000000  0.4692400000000 1.0
C      1  0.4264960000000  0.5734150000000  0.4391760000000 1.0
C      1  0.4634220000000  0.4482780000000  0.4119220000000 1.0
C      1  0.3879980000000  0.4678450000000  0.5299660000000 1.0
C      1  0.5560650000000  0.4763470000000  0.4603350000000 1.0
C      1  0.4603740000000  0.4581550000000  0.6004680000000 1.0
C      1  0.4463850000000  0.4516700000000  0.5437330000000 1.0
C      1  0.5710910000000  0.5756000000000  0.4370400000000 1.0
C      1  0.4221140000000  0.4355870000000  0.4813040000000 1.0
C      1  0.5294240000000  0.5811620000000  0.5646500000000 1.0
C      1  0.4342250000000  0.5255070000000  0.5764680000000 1.0
C      1  0.5788080000000  0.5296070000000  0.5407210000000 1.0
C      1  0.5179900000000  0.5471940000000  0.4486300000000 1.0
C      1  0.5036790000000  0.4657440000000  0.4041120000000 1.0
C      1  0.4558520000000  0.5078520000000  0.5420140000000 1.0
C      1  0.4881290000000  0.4446910000000  0.5678950000000 1.0
C      1  0.3993920000000  0.4903490000000  0.5459400000000 1.0
C      1  0.6006540000000  0.4659960000000  0.5321400000000 1.0
C      1  0.5211010000000  0.5216500000000  0.6188690000000 1.0
C      1  0.4684600000000  0.4649830000000  0.5608800000000 1.0
C      1  0.4597730000000  0.5282010000000  0.4699190000000 1.0
C      1  0.5806460000000  0.5876780000000  0.5129950000000 1.0
C      1  0.4541280000000  0.5772210000000  0.5535150000000 1.0
C      1  0.5081120000000  0.5369040000000  0.5656870000000 1.0
C      1  0.4927140000000  0.6069240000000  0.4853280000000 1.0
C      1  0.4175540000000  0.5379610000000  0.5553890000000 1.0
C      1  0.4838480000000  0.4422730000000  0.5970520000000 1.0
C      1  0.4411100000000  0.4579980000000  0.4889390000000 1.0
C      1  0.5167620000000  0.6030960000000  0.5224760000000 1.0
C      1  0.4831730000000  0.5757470000000  0.5389230000000 1.0
C      1  0.5259180000000  0.4155360000000  0.4322340000000 1.0
C      1  0.3600680000000  0.5029760000000  0.4793620000000 1.0
C      1  0.6008890000000  0.5675000000000  0.5138520000000 1.0
C      1  0.4151600000000  0.4796330000000  0.5679120000000 1.0
C      1  0.4707760000000  0.5821530000000  0.4317400000000 1.0
C      1  0.5012150000000  0.3991550000000  0.5547960000000 1.0
C      1  0.5611770000000  0.4611050000000  0.5155030000000 1.0
C      1  0.4679530000000  0.4440300000000  0.4900890000000 1.0
C      1  0.4918350000000  0.5590640000000  0.5085030000000 1.0
C      1  0.5096020000000  0.4453380000000  0.5245200000000 1.0
C      1  0.4696370000000  0.5207600000000  0.4433950000000 1.0
C      1  0.4539090000000  0.4220090000000  0.5404160000000 1.0
C      1  0.5763420000000  0.5042320000000  0.4116800000000 1.0
C      1  0.6033980000000  0.5244480000000  0.4474670000000 1.0
C      1  0.4581600000000  0.5689480000000  0.4089450000000 1.0
C      1  0.3936510000000  0.4468040000000  0.4797660000000 1.0
C      1  0.4810270000000  0.5435530000000  0.4255970000000 1.0
C      1  0.5714550000000  0.4064280000000  0.4917940000000 1.0
C      1  0.4458940000000  0.5952460000000  0.5000230000000 1.0
C      1  0.4430640000000  0.5497360000000  0.4774810000000 1.0
C      1  0.4524690000000  0.4856340000000  0.4414820000000 1.0
C      1  0.5209180000000  0.6108210000000  0.4949960000000 1.0
C      1  0.4853860000000  0.3948400000000  0.4697200000000 1.0
C      1  0.5286830000000  0.5786690000000  0.4136890000000 1.0
C      1  0.3975140000000  0.4609240000000  0.4547990000000 1.0
C      1  0.5243720000000  0.5127460000000  0.5543820000000 1.0
C      1  0.4716590000000  0.3895110000000  0.4948610000000 1.0
C      1  0.3982530000000  0.5195790000000  0.5423390000000 1.0
C      1  0.6014740000000  0.4728280000000  0.5025550000000 1.0
C      1  0.4604090000000  0.5391320000000  0.5748540000000 1.0
C      1  0.6079810000000  0.5266380000000  0.4952640000000 1.0
C      1  0.4492030000000  0.5880110000000  0.4502470000000 1.0
C      1  0.5711720000000  0.4271580000000  0.5528360000000 1.0
C      1  0.5442230000000  0.6043300000000  0.4777120000000 1.0
C      1  0.4383440000000  0.5484430000000  0.4139290000000 1.0
C      1  0.5696310000000  0.4506080000000  0.5723830000000 1.0
C      1  0.5216750000000  0.4680120000000  0.4864910000000 1.0
C      1  0.5477580000000  0.5918390000000  0.4305760000000 1.0
C      1  0.5519700000000  0.4315190000000  0.4219160000000 1.0
C      1  0.5364150000000  0.5040030000000  0.4452270000000 1.0
C      1  0.5479780000000  0.5091840000000  0.5016680000000 1.0
C      1  0.4728080000000  0.4630810000000  0.4380920000000 1.0
C      1  0.5428560000000  0.3913430000000  0.5220750000000 1.0
C      1  0.3819800000000  0.4676650000000  0.5000320000000 1.0
C      1  0.5149350000000  0.4438000000000  0.5542050000000 1.0
C      1  0.5766110000000  0.4769330000000  0.4182790000000 1.0
C      1  0.4799100000000  0.4888820000000  0.4759510000000 1.0
C      1  0.5485490000000  0.5602590000000  0.5720550000000 1.0
C      1  0.5909930000000  0.4485790000000  0.4570390000000 1.0
C      1  0.4606810000000  0.5684060000000  0.5816700000000 1.0
C      1  0.5736240000000  0.4265630000000  0.4452270000000 1.0
END
