TITL C-951335-1172-200 7.75887879496969e-07 125000 -993.20352317178 0 0 161 (C1) n - 1
REM
REM in /home/bkarasulu/work/CARBON/AIRSS/Generating-Clusters/EDIP-Nigel-Params/with-SteepDescent/Only-C1/SD-CG/HFTN-CG
REM
REM
REM
REM
REM
REM ./C.cell (11c1c37f851c82e70ff6c80c92926a4b)
REM
REM compiler GCC version 9.2.1 20190827 (Red Hat 9.2.1-1)
REM options -cpp -mtune=generic -march=x86-64 -g -O0 -fpre-include=/usr/include/finclude/math-vector-fortran.h
REM seed -2112283072 788206174 -1176424234 -1632905433 -1987456432 628900467 -617088833 -1012746802 -727890541 1076950434 1504975102 481957639 1416859796 1980535111 802466895 1117653472 1849698693 -1672149609 -1205591183 -1111849603 767260991 704176032 721994341 1974969720 1451768998 695487895 359868460 703876805 -150840977 -539057225 1895569264 -198040668 -629389204
REM
CELL 1.54180   50.00000   50.00000   50.00000   90.00000   90.00000   90.00000
LATT -1
SFAC C  
C      1  0.5174880000000  0.4445510000000  0.4452460000000 1.0
C      1  0.4573620000000  0.4061640000000  0.4898260000000 1.0
C      1  0.5774630000000  0.5487620000000  0.5067310000000 1.0
C      1  0.5188950000000  0.3981730000000  0.4999840000000 1.0
C      1  0.5470430000000  0.4822380000000  0.4171130000000 1.0
C      1  0.5384270000000  0.4141540000000  0.5470880000000 1.0
C      1  0.5620740000000  0.5158130000000  0.4271210000000 1.0
C      1  0.5648370000000  0.4216950000000  0.5564080000000 1.0
C      1  0.5948330000000  0.4564020000000  0.5179930000000 1.0
C      1  0.5261660000000  0.5455290000000  0.5068990000000 1.0
C      1  0.4696040000000  0.5841960000000  0.4783110000000 1.0
C      1  0.3831520000000  0.5224050000000  0.4949610000000 1.0
C      1  0.5552330000000  0.4546630000000  0.4245880000000 1.0
C      1  0.5273880000000  0.4745580000000  0.4525850000000 1.0
C      1  0.5783160000000  0.4645720000000  0.4716420000000 1.0
C      1  0.4153270000000  0.4904950000000  0.5813810000000 1.0
C      1  0.5123240000000  0.5249360000000  0.5529650000000 1.0
C      1  0.5394430000000  0.6007420000000  0.4954320000000 1.0
C      1  0.5732620000000  0.5582090000000  0.5498570000000 1.0
C      1  0.4664590000000  0.4589900000000  0.4393630000000 1.0
C      1  0.5869560000000  0.5062550000000  0.5686040000000 1.0
C      1  0.5099420000000  0.6129790000000  0.5493560000000 1.0
C      1  0.5762690000000  0.4217290000000  0.4843210000000 1.0
C      1  0.5871210000000  0.4879140000000  0.4562880000000 1.0
C      1  0.5110080000000  0.5132450000000  0.4127240000000 1.0
C      1  0.5436430000000  0.4311760000000  0.4135370000000 1.0
C      1  0.4872000000000  0.5621660000000  0.5531790000000 1.0
C      1  0.5149500000000  0.4548930000000  0.4983660000000 1.0
C      1  0.4161750000000  0.4702880000000  0.4394380000000 1.0
C      1  0.4851530000000  0.4517410000000  0.4863620000000 1.0
C      1  0.4795240000000  0.5135820000000  0.5166970000000 1.0
C      1  0.4805700000000  0.5325010000000  0.4918220000000 1.0
C      1  0.4542260000000  0.4208930000000  0.5177210000000 1.0
C      1  0.4469000000000  0.4703310000000  0.5182890000000 1.0
C      1  0.5919190000000  0.5373160000000  0.5319190000000 1.0
C      1  0.4512040000000  0.5794440000000  0.5539230000000 1.0
C      1  0.4523260000000  0.4893810000000  0.4106080000000 1.0
C      1  0.5588380000000  0.4739370000000  0.4933000000000 1.0
C      1  0.4377700000000  0.5065690000000  0.4624690000000 1.0
C      1  0.5803850000000  0.5370600000000  0.4340890000000 1.0
C      1  0.5059720000000  0.4953200000000  0.5597120000000 1.0
C      1  0.3919120000000  0.4719880000000  0.4917210000000 1.0
C      1  0.5632110000000  0.4535530000000  0.5174870000000 1.0
C      1  0.4935370000000  0.6077000000000  0.5264180000000 1.0
C      1  0.5601280000000  0.5044860000000  0.5764000000000 1.0
C      1  0.4701640000000  0.5131000000000  0.5878430000000 1.0
C      1  0.5690280000000  0.5725300000000  0.4620920000000 1.0
C      1  0.5319030000000  0.5751260000000  0.5734750000000 1.0
C      1  0.4539170000000  0.5386610000000  0.5841250000000 1.0
C      1  0.4400200000000  0.4323190000000  0.5478250000000 1.0
C      1  0.4393720000000  0.4633400000000  0.5465380000000 1.0
C      1  0.3905630000000  0.4465270000000  0.5103480000000 1.0
C      1  0.4565580000000  0.4928190000000  0.4777000000000 1.0
C      1  0.4979130000000  0.5147430000000  0.5991550000000 1.0
C      1  0.5129750000000  0.5582010000000  0.3963500000000 1.0
C      1  0.5369060000000  0.4871840000000  0.5434350000000 1.0
C      1  0.6008210000000  0.4875030000000  0.5217120000000 1.0
C      1  0.5568130000000  0.4231210000000  0.4602860000000 1.0
C      1  0.6083830000000  0.4990430000000  0.4972550000000 1.0
C      1  0.5671890000000  0.4108620000000  0.5102550000000 1.0
C      1  0.3778790000000  0.4714160000000  0.5163980000000 1.0
C      1  0.4501630000000  0.5406840000000  0.4858960000000 1.0
C      1  0.4926470000000  0.4467940000000  0.4260560000000 1.0
C      1  0.5585660000000  0.5976260000000  0.5181960000000 1.0
C      1  0.4295600000000  0.5157560000000  0.5071790000000 1.0
C      1  0.4669400000000  0.4490750000000  0.5127700000000 1.0
C      1  0.4629480000000  0.5690070000000  0.4206460000000 1.0
C      1  0.4639320000000  0.4700150000000  0.5632140000000 1.0
C      1  0.5523670000000  0.4772210000000  0.5838860000000 1.0
C      1  0.4897840000000  0.5013400000000  0.4290480000000 1.0
C      1  0.4624120000000  0.4229350000000  0.5666930000000 1.0
C      1  0.5483360000000  0.6111420000000  0.5415180000000 1.0
C      1  0.4018090000000  0.5396190000000  0.4523980000000 1.0
C      1  0.5431010000000  0.5818910000000  0.4726270000000 1.0
C      1  0.4986340000000  0.4668730000000  0.4026490000000 1.0
C      1  0.4674410000000  0.5653410000000  0.5787040000000 1.0
C      1  0.4284470000000  0.5585880000000  0.5484400000000 1.0
C      1  0.4014150000000  0.5092350000000  0.5141260000000 1.0
C      1  0.5036540000000  0.4962090000000  0.5158540000000 1.0
C      1  0.4539040000000  0.5861590000000  0.5037530000000 1.0
C      1  0.4678810000000  0.5916710000000  0.5291510000000 1.0
C      1  0.5234780000000  0.5771690000000  0.4124350000000 1.0
C      1  0.5095750000000  0.4678650000000  0.5258190000000 1.0
C      1  0.4356220000000  0.4674300000000  0.4184190000000 1.0
C      1  0.5168430000000  0.4397270000000  0.5875950000000 1.0
C      1  0.6053610000000  0.5059750000000  0.4701060000000 1.0
C      1  0.4763510000000  0.4737800000000  0.4654210000000 1.0
C      1  0.5085030000000  0.4883650000000  0.6006820000000 1.0
C      1  0.5694050000000  0.5629660000000  0.4352570000000 1.0
C      1  0.4747240000000  0.4806430000000  0.3959710000000 1.0
C      1  0.5821420000000  0.4228100000000  0.5326550000000 1.0
C      1  0.5920820000000  0.5323030000000  0.4615220000000 1.0
C      1  0.5298160000000  0.5276400000000  0.4833470000000 1.0
C      1  0.4426260000000  0.5652350000000  0.4412270000000 1.0
C      1  0.4488170000000  0.4380550000000  0.4517200000000 1.0
C      1  0.4526590000000  0.4972660000000  0.5066610000000 1.0
C      1  0.5639510000000  0.4491200000000  0.4516070000000 1.0
C      1  0.3925450000000  0.5141440000000  0.4436610000000 1.0
C      1  0.5546250000000  0.5091100000000  0.5294630000000 1.0
C      1  0.5528780000000  0.5543220000000  0.5712450000000 1.0
C      1  0.4859030000000  0.4190550000000  0.4202470000000 1.0
C      1  0.5858320000000  0.5551790000000  0.4795850000000 1.0
C      1  0.5601960000000  0.5669920000000  0.5238660000000 1.0
C      1  0.4894740000000  0.5287750000000  0.4559660000000 1.0
C      1  0.5390270000000  0.4085460000000  0.5181200000000 1.0
C      1  0.4845500000000  0.4532320000000  0.5377720000000 1.0
C      1  0.4992330000000  0.4898010000000  0.4542750000000 1.0
C      1  0.4861800000000  0.5339630000000  0.5410600000000 1.0
C      1  0.5406510000000  0.4148420000000  0.4365270000000 1.0
C      1  0.4977450000000  0.5790480000000  0.4856510000000 1.0
C      1  0.5461810000000  0.5288580000000  0.5853930000000 1.0
C      1  0.5249080000000  0.3948460000000  0.4725220000000 1.0
C      1  0.4819220000000  0.4047910000000  0.4445810000000 1.0
C      1  0.4599680000000  0.5600580000000  0.4639640000000 1.0
C      1  0.5166330000000  0.5719130000000  0.4612730000000 1.0
C      1  0.4069340000000  0.4466580000000  0.4839880000000 1.0
C      1  0.5591960000000  0.5204900000000  0.4780230000000 1.0
C      1  0.5500950000000  0.4611960000000  0.5426600000000 1.0
C      1  0.5383980000000  0.5361740000000  0.5340250000000 1.0
C      1  0.5850570000000  0.5090380000000  0.5396990000000 1.0
C      1  0.4522850000000  0.5176430000000  0.4233500000000 1.0
C      1  0.4749950000000  0.4971500000000  0.5629130000000 1.0
C      1  0.5645320000000  0.5018180000000  0.5009520000000 1.0
C      1  0.4021200000000  0.5403100000000  0.4824170000000 1.0
C      1  0.4252030000000  0.4526590000000  0.4617550000000 1.0
C      1  0.4926120000000  0.4357720000000  0.6009690000000 1.0
C      1  0.4035030000000  0.5569700000000  0.5307660000000 1.0
C      1  0.4565420000000  0.4628800000000  0.5906760000000 1.0
C      1  0.4781060000000  0.4057130000000  0.5288220000000 1.0
C      1  0.5150000000000  0.4230000000000  0.5626710000000 1.0
C      1  0.5306800000000  0.4754940000000  0.4834570000000 1.0
C      1  0.5038340000000  0.3903330000000  0.4546480000000 1.0
C      1  0.4979860000000  0.5546870000000  0.5036080000000 1.0
C      1  0.4821620000000  0.5878130000000  0.4287300000000 1.0
C      1  0.4125900000000  0.5138640000000  0.5667880000000 1.0
C      1  0.5184020000000  0.5010230000000  0.4919840000000 1.0
C      1  0.5215800000000  0.4873070000000  0.4020050000000 1.0
C      1  0.4908600000000  0.3971630000000  0.5048770000000 1.0
C      1  0.5658190000000  0.4579710000000  0.5669210000000 1.0
C      1  0.5154840000000  0.5325900000000  0.5822480000000 1.0
C      1  0.4656250000000  0.4184260000000  0.4648030000000 1.0
C      1  0.5594750000000  0.5006680000000  0.4522960000000 1.0
C      1  0.4876570000000  0.4250210000000  0.5496590000000 1.0
C      1  0.4740050000000  0.5408580000000  0.4209780000000 1.0
C      1  0.4264810000000  0.5421640000000  0.4364510000000 1.0
C      1  0.5294150000000  0.5929680000000  0.5514440000000 1.0
C      1  0.3905440000000  0.5304500000000  0.5321940000000 1.0
C      1  0.5960750000000  0.4460230000000  0.4882260000000 1.0
C      1  0.5096300000000  0.6012280000000  0.5016400000000 1.0
C      1  0.4305230000000  0.5362930000000  0.5668450000000 1.0
C      1  0.4105650000000  0.5624320000000  0.5014840000000 1.0
C      1  0.5092630000000  0.5853650000000  0.4349760000000 1.0
C      1  0.5077020000000  0.4289360000000  0.4703050000000 1.0
C      1  0.4396810000000  0.5608420000000  0.5057160000000 1.0
C      1  0.4969590000000  0.5360800000000  0.4014790000000 1.0
C      1  0.5165180000000  0.5412190000000  0.4594880000000 1.0
C      1  0.4151710000000  0.4768310000000  0.5572160000000 1.0
C      1  0.5241100000000  0.4694630000000  0.5859840000000 1.0
C      1  0.4174550000000  0.4993040000000  0.4435960000000 1.0
C      1  0.5063840000000  0.5616120000000  0.5803420000000 1.0
C      1  0.4660970000000  0.4369010000000  0.5924770000000 1.0
END
