TITL C-950536-5891-557 -6.96699988662911e-06 125000 -191.262676156931 0 0 33 (C1) n - 1
REM
REM in /home/bkarasulu/work/CARBON/AIRSS/Generating-Clusters/EDIP-Nigel-Params/with-SteepDescent/Only-C1/SD-CG/HFTN-CG
REM
REM
REM
REM
REM
REM ./C.cell (11c1c37f851c82e70ff6c80c92926a4b)
REM
REM compiler GCC version 9.2.1 20190827 (Red Hat 9.2.1-1)
REM options -cpp -mtune=generic -march=x86-64 -g -O0 -fpre-include=/usr/include/finclude/math-vector-fortran.h
REM seed 441405358 -1635475827 428915024 -476001722 -455808914 249188193 -1254947356 -47986857 -1528205960 1461451708 741313704 1352264829 -2019668548 1276848035 1902222905 -1193398348 -945636788 -513040470 158021954 610763897 -1975443345 -1290856594 628051745 336331248 46973987 634749422 1787298573 -461495494 1605536273 630808070 539853588 -396783097 -363202368
REM
CELL 1.54180   50.00000   50.00000   50.00000   90.00000   90.00000   90.00000
LATT -1
SFAC C  
C      1  0.5444370000000  0.4919310000000  0.5307830000000 1.0
C      1  0.5187980000000  0.5368810000000  0.4985420000000 1.0
C      1  0.5194240000000  0.5073550000000  0.4508880000000 1.0
C      1  0.4507030000000  0.5482810000000  0.4779050000000 1.0
C      1  0.4334140000000  0.5308310000000  0.4675000000000 1.0
C      1  0.5585270000000  0.5107710000000  0.5148950000000 1.0
C      1  0.4955720000000  0.5236710000000  0.4553270000000 1.0
C      1  0.5072780000000  0.4544000000000  0.4857910000000 1.0
C      1  0.4693540000000  0.4852370000000  0.4774500000000 1.0
C      1  0.5546490000000  0.4672290000000  0.5405760000000 1.0
C      1  0.5354690000000  0.4486710000000  0.5521110000000 1.0
C      1  0.5164810000000  0.4798840000000  0.4438950000000 1.0
C      1  0.5201090000000  0.4966110000000  0.4805130000000 1.0
C      1  0.4433040000000  0.4809070000000  0.4882260000000 1.0
C      1  0.4916020000000  0.4790190000000  0.5492240000000 1.0
C      1  0.5002670000000  0.5456120000000  0.4761690000000 1.0
C      1  0.5194920000000  0.4400660000000  0.5059960000000 1.0
C      1  0.4748000000000  0.5515560000000  0.4909900000000 1.0
C      1  0.4877540000000  0.4792730000000  0.5217630000000 1.0
C      1  0.4296580000000  0.5044180000000  0.4608910000000 1.0
C      1  0.5098290000000  0.5681650000000  0.4641970000000 1.0
C      1  0.5104180000000  0.4602820000000  0.5574380000000 1.0
C      1  0.4762050000000  0.5445850000000  0.5181230000000 1.0
C      1  0.4935420000000  0.4794050000000  0.4935970000000 1.0
C      1  0.5373790000000  0.4354160000000  0.5263270000000 1.0
C      1  0.5378110000000  0.5142160000000  0.5475120000000 1.0
C      1  0.5105020000000  0.5233690000000  0.5474390000000 1.0
C      1  0.4183390000000  0.4852410000000  0.4772070000000 1.0
C      1  0.5219900000000  0.4601670000000  0.4626010000000 1.0
C      1  0.5438320000000  0.5231260000000  0.4943860000000 1.0
C      1  0.5012850000000  0.5324590000000  0.5211140000000 1.0
C      1  0.4739340000000  0.5063450000000  0.4600850000000 1.0
C      1  0.4938440000000  0.5046180000000  0.5605360000000 1.0
END
