TITL C-950531-5884-370 -2.8709033416458e-06 125000 -1024.84084081874 0 0 164 (C1) n - 1
REM
REM in /home/bkarasulu/work/CARBON/AIRSS/Generating-Clusters/EDIP-Nigel-Params/with-SteepDescent/Only-C1/SD-CG/HFTN-CG
REM
REM
REM
REM
REM
REM ./C.cell (11c1c37f851c82e70ff6c80c92926a4b)
REM
REM compiler GCC version 9.2.1 20190827 (Red Hat 9.2.1-1)
REM options -cpp -mtune=generic -march=x86-64 -g -O0 -fpre-include=/usr/include/finclude/math-vector-fortran.h
REM seed 1168159623 -1171027919 1072655417 1062470694 -1154495533 -635430119 1280685879 -2050922014 1485461216 2002706773 -1656743591 -1332806665 -1521580368 1155473391 554380923 1551038000 237451873 1577136171 -99448849 -369706318 1179887732 215337178 1588759105 1869256155 -1669635347 -46618924 -354719416 1886669455 559710522 508735995 -660753627 -385218959 -991835542
REM
CELL 1.54180   50.00000   50.00000   50.00000   90.00000   90.00000   90.00000
LATT -1
SFAC C  
C      1  0.4471200000000  0.5107200000000  0.5219160000000 1.0
C      1  0.4473020000000  0.4036770000000  0.4747140000000 1.0
C      1  0.4403130000000  0.4928140000000  0.5964450000000 1.0
C      1  0.4956890000000  0.5028400000000  0.5061150000000 1.0
C      1  0.5145990000000  0.6200550000000  0.4951700000000 1.0
C      1  0.4126770000000  0.4133720000000  0.5224360000000 1.0
C      1  0.4991900000000  0.4261270000000  0.5702330000000 1.0
C      1  0.5196790000000  0.6117720000000  0.4688300000000 1.0
C      1  0.4863560000000  0.5432130000000  0.4491030000000 1.0
C      1  0.6044590000000  0.5095900000000  0.4300580000000 1.0
C      1  0.4593220000000  0.5342230000000  0.5876430000000 1.0
C      1  0.5268860000000  0.4142510000000  0.4276190000000 1.0
C      1  0.5677800000000  0.5353580000000  0.5593840000000 1.0
C      1  0.4675060000000  0.4305480000000  0.4412510000000 1.0
C      1  0.5347750000000  0.5410730000000  0.5972230000000 1.0
C      1  0.4549970000000  0.4621120000000  0.5056170000000 1.0
C      1  0.5295790000000  0.5256370000000  0.4546950000000 1.0
C      1  0.5492190000000  0.4061230000000  0.5265530000000 1.0
C      1  0.4448220000000  0.4790590000000  0.4830920000000 1.0
C      1  0.5144990000000  0.5407620000000  0.5268650000000 1.0
C      1  0.6061990000000  0.4996370000000  0.4827310000000 1.0
C      1  0.5027350000000  0.4963060000000  0.4321200000000 1.0
C      1  0.5017340000000  0.4308710000000  0.4987610000000 1.0
C      1  0.5408650000000  0.5351600000000  0.4293200000000 1.0
C      1  0.4704980000000  0.4360750000000  0.4933160000000 1.0
C      1  0.5053150000000  0.4130720000000  0.5228130000000 1.0
C      1  0.5242570000000  0.3935860000000  0.5169830000000 1.0
C      1  0.5752200000000  0.4578820000000  0.5427520000000 1.0
C      1  0.4435940000000  0.5077310000000  0.4930810000000 1.0
C      1  0.4053670000000  0.5297230000000  0.4913690000000 1.0
C      1  0.4291380000000  0.5426890000000  0.5359120000000 1.0
C      1  0.4643330000000  0.5233010000000  0.4819760000000 1.0
C      1  0.4857100000000  0.5516380000000  0.5243460000000 1.0
C      1  0.4667970000000  0.4029460000000  0.4528210000000 1.0
C      1  0.5554490000000  0.4767150000000  0.4495440000000 1.0
C      1  0.4651630000000  0.4785670000000  0.5539250000000 1.0
C      1  0.5986430000000  0.5538340000000  0.4988270000000 1.0
C      1  0.4308890000000  0.5513900000000  0.4234310000000 1.0
C      1  0.5224940000000  0.5210210000000  0.5051590000000 1.0
C      1  0.4763540000000  0.5040300000000  0.3971560000000 1.0
C      1  0.3854780000000  0.5097760000000  0.5323380000000 1.0
C      1  0.5516330000000  0.4558070000000  0.5214450000000 1.0
C      1  0.5388090000000  0.5371870000000  0.4796010000000 1.0
C      1  0.4958980000000  0.4740060000000  0.5167520000000 1.0
C      1  0.4440700000000  0.4672420000000  0.5837450000000 1.0
C      1  0.4693510000000  0.5508750000000  0.4936370000000 1.0
C      1  0.5867110000000  0.5462900000000  0.4723360000000 1.0
C      1  0.5053500000000  0.5554220000000  0.4034220000000 1.0
C      1  0.5775940000000  0.5669180000000  0.5172360000000 1.0
C      1  0.4591700000000  0.5857040000000  0.5324000000000 1.0
C      1  0.4150980000000  0.4706670000000  0.4749980000000 1.0
C      1  0.5089430000000  0.4168560000000  0.4489720000000 1.0
C      1  0.4873860000000  0.5945010000000  0.5334580000000 1.0
C      1  0.5141990000000  0.5216270000000  0.5505510000000 1.0
C      1  0.5440210000000  0.5956920000000  0.5173710000000 1.0
C      1  0.4819030000000  0.4491300000000  0.4627010000000 1.0
C      1  0.5676250000000  0.4903210000000  0.3983040000000 1.0
C      1  0.4472480000000  0.4336960000000  0.5514260000000 1.0
C      1  0.4578210000000  0.5096900000000  0.4204040000000 1.0
C      1  0.4402130000000  0.5663140000000  0.4930590000000 1.0
C      1  0.6036490000000  0.5014860000000  0.5304170000000 1.0
C      1  0.4993070000000  0.4911930000000  0.5791180000000 1.0
C      1  0.4853000000000  0.5035130000000  0.4755790000000 1.0
C      1  0.5574720000000  0.4782320000000  0.5013560000000 1.0
C      1  0.5090880000000  0.4665670000000  0.4355640000000 1.0
C      1  0.6027550000000  0.4486910000000  0.4906510000000 1.0
C      1  0.4687860000000  0.6051210000000  0.4902730000000 1.0
C      1  0.5123160000000  0.4573020000000  0.5013090000000 1.0
C      1  0.5275770000000  0.4689060000000  0.5464550000000 1.0
C      1  0.5198530000000  0.4794500000000  0.3913430000000 1.0
C      1  0.4290590000000  0.4543040000000  0.5624640000000 1.0
C      1  0.5062870000000  0.5049660000000  0.4042340000000 1.0
C      1  0.4873260000000  0.5730450000000  0.5758270000000 1.0
C      1  0.4743120000000  0.5232340000000  0.6096700000000 1.0
C      1  0.3911130000000  0.5078370000000  0.5050270000000 1.0
C      1  0.5697440000000  0.5205230000000  0.5132660000000 1.0
C      1  0.4733050000000  0.4724910000000  0.4023190000000 1.0
C      1  0.5436380000000  0.4197140000000  0.5528980000000 1.0
C      1  0.4750890000000  0.5912630000000  0.4641470000000 1.0
C      1  0.5593180000000  0.4434000000000  0.5643250000000 1.0
C      1  0.5034540000000  0.5752520000000  0.5508490000000 1.0
C      1  0.5368120000000  0.6222340000000  0.5122370000000 1.0
C      1  0.4872810000000  0.5632530000000  0.4717260000000 1.0
C      1  0.4224620000000  0.5206520000000  0.5566510000000 1.0
C      1  0.4497470000000  0.5618300000000  0.5465780000000 1.0
C      1  0.4929500000000  0.6043980000000  0.5063670000000 1.0
C      1  0.4910880000000  0.4660170000000  0.5868010000000 1.0
C      1  0.5894450000000  0.5028860000000  0.4077800000000 1.0
C      1  0.5017020000000  0.5171750000000  0.4531460000000 1.0
C      1  0.5086460000000  0.5808590000000  0.4317760000000 1.0
C      1  0.4717830000000  0.4303210000000  0.5649100000000 1.0
C      1  0.5611710000000  0.5547670000000  0.4307000000000 1.0
C      1  0.3994980000000  0.4614850000000  0.5196440000000 1.0
C      1  0.5664830000000  0.5275150000000  0.4838370000000 1.0
C      1  0.4123530000000  0.4413050000000  0.4794610000000 1.0
C      1  0.4295410000000  0.4245980000000  0.4640140000000 1.0
C      1  0.4405250000000  0.5153020000000  0.5784350000000 1.0
C      1  0.5502520000000  0.4922160000000  0.5842270000000 1.0
C      1  0.5908450000000  0.4777380000000  0.4967930000000 1.0
C      1  0.4186420000000  0.5506280000000  0.5080340000000 1.0
C      1  0.5985000000000  0.4412630000000  0.5336260000000 1.0
C      1  0.4588730000000  0.5004470000000  0.6167430000000 1.0
C      1  0.5453560000000  0.5032990000000  0.5165050000000 1.0
C      1  0.4317150000000  0.4659950000000  0.4303940000000 1.0
C      1  0.4061130000000  0.5310530000000  0.4614090000000 1.0
C      1  0.4172600000000  0.4735370000000  0.5413710000000 1.0
C      1  0.6084390000000  0.5177430000000  0.5060960000000 1.0
C      1  0.4083600000000  0.4366690000000  0.5077190000000 1.0
C      1  0.4684120000000  0.4775550000000  0.4612850000000 1.0
C      1  0.5362100000000  0.5104010000000  0.6033310000000 1.0
C      1  0.4150260000000  0.5098310000000  0.4428270000000 1.0
C      1  0.4602390000000  0.4078000000000  0.5095180000000 1.0
C      1  0.5940430000000  0.5054590000000  0.4569720000000 1.0
C      1  0.4310340000000  0.5743060000000  0.4652510000000 1.0
C      1  0.5186200000000  0.4154550000000  0.4780030000000 1.0
C      1  0.5558490000000  0.5876390000000  0.5416620000000 1.0
C      1  0.4929060000000  0.4629370000000  0.5464680000000 1.0
C      1  0.5463870000000  0.4724640000000  0.4020360000000 1.0
C      1  0.5449570000000  0.5678090000000  0.4736560000000 1.0
C      1  0.5065300000000  0.5342010000000  0.5816020000000 1.0
C      1  0.5160590000000  0.4668870000000  0.4746090000000 1.0
C      1  0.5121480000000  0.4472800000000  0.5868130000000 1.0
C      1  0.5613880000000  0.4257000000000  0.4561590000000 1.0
C      1  0.5156290000000  0.4262430000000  0.5475520000000 1.0
C      1  0.5889100000000  0.4265260000000  0.5077870000000 1.0
C      1  0.5335500000000  0.4984470000000  0.5438170000000 1.0
C      1  0.5665290000000  0.5429320000000  0.5308840000000 1.0
C      1  0.5403160000000  0.4614580000000  0.4296050000000 1.0
C      1  0.4506440000000  0.5878990000000  0.4476160000000 1.0
C      1  0.4863480000000  0.5610750000000  0.4257330000000 1.0
C      1  0.5378060000000  0.4619550000000  0.5744770000000 1.0
C      1  0.4842130000000  0.3949200000000  0.5223180000000 1.0
C      1  0.4458190000000  0.4806750000000  0.5299360000000 1.0
C      1  0.5830050000000  0.4814980000000  0.4458440000000 1.0
C      1  0.4560290000000  0.5713730000000  0.4227460000000 1.0
C      1  0.4161460000000  0.5557050000000  0.4490030000000 1.0
C      1  0.5374160000000  0.5749980000000  0.5596630000000 1.0
C      1  0.5187150000000  0.5839620000000  0.4607170000000 1.0
C      1  0.5068460000000  0.5033150000000  0.6047670000000 1.0
C      1  0.4313050000000  0.5212540000000  0.4203190000000 1.0
C      1  0.4474600000000  0.5914760000000  0.5063580000000 1.0
C      1  0.5691010000000  0.5652810000000  0.4554770000000 1.0
C      1  0.4649010000000  0.5560810000000  0.5702260000000 1.0
C      1  0.4764150000000  0.5183590000000  0.5276320000000 1.0
C      1  0.5478030000000  0.4215570000000  0.4802180000000 1.0
C      1  0.4579310000000  0.4805040000000  0.4300840000000 1.0
C      1  0.5577250000000  0.5806250000000  0.4978960000000 1.0
C      1  0.5474030000000  0.4322360000000  0.4327610000000 1.0
C      1  0.5435050000000  0.4750310000000  0.4751970000000 1.0
C      1  0.5001890000000  0.4606210000000  0.4057210000000 1.0
C      1  0.4933600000000  0.3942630000000  0.4571280000000 1.0
C      1  0.3959760000000  0.4802070000000  0.4967340000000 1.0
C      1  0.5589430000000  0.4273370000000  0.5078420000000 1.0
C      1  0.4792010000000  0.5069520000000  0.5596660000000 1.0
C      1  0.4039950000000  0.4994790000000  0.5504830000000 1.0
C      1  0.4386240000000  0.4376080000000  0.4391940000000 1.0
C      1  0.6166940000000  0.4586470000000  0.5172600000000 1.0
C      1  0.4395170000000  0.4146760000000  0.5303570000000 1.0
C      1  0.5022270000000  0.5609950000000  0.5973690000000 1.0
C      1  0.5506990000000  0.5529850000000  0.5752410000000 1.0
C      1  0.5838810000000  0.4881600000000  0.5465350000000 1.0
C      1  0.5705470000000  0.5055550000000  0.5664210000000 1.0
C      1  0.4115840000000  0.4804190000000  0.4466340000000 1.0
C      1  0.5226480000000  0.5320910000000  0.4050640000000 1.0
END
