TITL C-951333-8791-163 -2.13278017653383e-06 125000 -544.918348519153 0 0 89 (C1) n - 1
REM
REM in /home/bkarasulu/work/CARBON/AIRSS/Generating-Clusters/EDIP-Nigel-Params/with-SteepDescent/Only-C1/SD-CG/HFTN-CG
REM
REM
REM
REM
REM
REM ./C.cell (11c1c37f851c82e70ff6c80c92926a4b)
REM
REM compiler GCC version 9.2.1 20190827 (Red Hat 9.2.1-1)
REM options -cpp -mtune=generic -march=x86-64 -g -O0 -fpre-include=/usr/include/finclude/math-vector-fortran.h
REM seed -1361379127 345384149 -564448274 -270182832 471892356 -1205868919 -261273918 800580560 -623056956 1951176732 1495002791 -1081192455 -640096476 2046210396 999765581 -2033394052 -599701460 -225743182 606709870 616305572 -1193424890 1142223495 -815268749 1505818697 1310226049 2112796473 121045459 105096273 442991518 -1726193310 1631241829 -396591105 -2142046714
REM
CELL 1.54180   50.00000   50.00000   50.00000   90.00000   90.00000   90.00000
LATT -1
SFAC C  
C      1  0.4370580000000  0.4814230000000  0.5002820000000 1.0
C      1  0.4839830000000  0.4448230000000  0.4518390000000 1.0
C      1  0.4845510000000  0.5675340000000  0.5261460000000 1.0
C      1  0.5572020000000  0.5416170000000  0.5345050000000 1.0
C      1  0.4730850000000  0.4636170000000  0.5405200000000 1.0
C      1  0.4636330000000  0.5435120000000  0.5670560000000 1.0
C      1  0.4671950000000  0.5865990000000  0.5125090000000 1.0
C      1  0.5168620000000  0.5216410000000  0.5720720000000 1.0
C      1  0.4590490000000  0.4437590000000  0.4931080000000 1.0
C      1  0.4808600000000  0.4217400000000  0.4346840000000 1.0
C      1  0.5063260000000  0.4239720000000  0.4249290000000 1.0
C      1  0.4902190000000  0.4789670000000  0.5184670000000 1.0
C      1  0.4576680000000  0.4531300000000  0.4646310000000 1.0
C      1  0.5430220000000  0.5523930000000  0.4523650000000 1.0
C      1  0.4561920000000  0.5126360000000  0.4880060000000 1.0
C      1  0.5263300000000  0.5332950000000  0.4369640000000 1.0
C      1  0.5641790000000  0.4387860000000  0.4947580000000 1.0
C      1  0.4977910000000  0.4879090000000  0.4740780000000 1.0
C      1  0.4439880000000  0.5374530000000  0.5213810000000 1.0
C      1  0.5344400000000  0.4585780000000  0.4428050000000 1.0
C      1  0.4771160000000  0.5293660000000  0.4328920000000 1.0
C      1  0.5121600000000  0.5469520000000  0.5582750000000 1.0
C      1  0.5243710000000  0.4186290000000  0.4691480000000 1.0
C      1  0.4881040000000  0.4532490000000  0.5737520000000 1.0
C      1  0.5378000000000  0.4641380000000  0.5289730000000 1.0
C      1  0.5456120000000  0.4194390000000  0.4873940000000 1.0
C      1  0.5673470000000  0.5437990000000  0.4632810000000 1.0
C      1  0.4659750000000  0.4866080000000  0.4281440000000 1.0
C      1  0.4388420000000  0.4393660000000  0.5122600000000 1.0
C      1  0.4802430000000  0.5323000000000  0.4886940000000 1.0
C      1  0.4446910000000  0.5023570000000  0.5765510000000 1.0
C      1  0.5013200000000  0.5421940000000  0.4258650000000 1.0
C      1  0.4316460000000  0.5555560000000  0.5001810000000 1.0
C      1  0.4920280000000  0.4277650000000  0.5260000000000 1.0
C      1  0.5043710000000  0.5155460000000  0.4769100000000 1.0
C      1  0.5033430000000  0.4396000000000  0.4758340000000 1.0
C      1  0.4936080000000  0.4331910000000  0.5535690000000 1.0
C      1  0.5144660000000  0.4628490000000  0.5118580000000 1.0
C      1  0.4614550000000  0.5121940000000  0.4170640000000 1.0
C      1  0.4515690000000  0.4796580000000  0.4529040000000 1.0
C      1  0.5646170000000  0.4523960000000  0.5228330000000 1.0
C      1  0.4347980000000  0.4823210000000  0.5296630000000 1.0
C      1  0.4531550000000  0.5013910000000  0.5453410000000 1.0
C      1  0.4849320000000  0.4320530000000  0.4989010000000 1.0
C      1  0.5300460000000  0.5546820000000  0.5369680000000 1.0
C      1  0.5591430000000  0.4689640000000  0.4528430000000 1.0
C      1  0.5045940000000  0.4762450000000  0.5807200000000 1.0
C      1  0.4110360000000  0.5223790000000  0.4959730000000 1.0
C      1  0.5021770000000  0.5046060000000  0.5279530000000 1.0
C      1  0.5820120000000  0.5391230000000  0.4868480000000 1.0
C      1  0.4694790000000  0.5539230000000  0.4450890000000 1.0
C      1  0.5888430000000  0.5128090000000  0.4911790000000 1.0
C      1  0.5568650000000  0.4977360000000  0.4519500000000 1.0
C      1  0.4860470000000  0.5608080000000  0.5564960000000 1.0
C      1  0.4739980000000  0.5575940000000  0.4734120000000 1.0
C      1  0.5381460000000  0.5045090000000  0.5623170000000 1.0
C      1  0.4279640000000  0.4967680000000  0.4584900000000 1.0
C      1  0.5133930000000  0.5696940000000  0.5181100000000 1.0
C      1  0.4738420000000  0.5396870000000  0.5185960000000 1.0
C      1  0.5722540000000  0.4537580000000  0.4723890000000 1.0
C      1  0.4377410000000  0.5423680000000  0.5502170000000 1.0
C      1  0.5312720000000  0.5144270000000  0.5198460000000 1.0
C      1  0.5191190000000  0.4685630000000  0.4829200000000 1.0
C      1  0.5727170000000  0.5519150000000  0.5109400000000 1.0
C      1  0.5425730000000  0.4546530000000  0.5549510000000 1.0
C      1  0.5226070000000  0.5795550000000  0.4932520000000 1.0
C      1  0.4358930000000  0.5249070000000  0.4593750000000 1.0
C      1  0.5293080000000  0.4293420000000  0.4411850000000 1.0
C      1  0.4947150000000  0.5046440000000  0.5797080000000 1.0
C      1  0.4186080000000  0.5413020000000  0.4760070000000 1.0
C      1  0.4809640000000  0.5205510000000  0.5410160000000 1.0
C      1  0.4440000000000  0.4553370000000  0.5350940000000 1.0
C      1  0.4921270000000  0.4767470000000  0.4243910000000 1.0
C      1  0.5826780000000  0.4766360000000  0.5209530000000 1.0
C      1  0.4156870000000  0.4953660000000  0.4856780000000 1.0
C      1  0.5301930000000  0.5720290000000  0.4678910000000 1.0
C      1  0.5344680000000  0.5169520000000  0.4773800000000 1.0
C      1  0.5348420000000  0.5049060000000  0.4349060000000 1.0
C      1  0.5389960000000  0.5425530000000  0.4954040000000 1.0
C      1  0.4687310000000  0.5179310000000  0.5837580000000 1.0
C      1  0.5200640000000  0.4795110000000  0.4282400000000 1.0
C      1  0.4549960000000  0.5735820000000  0.4902540000000 1.0
C      1  0.5424130000000  0.4936530000000  0.4964840000000 1.0
C      1  0.5331150000000  0.4766240000000  0.5714410000000 1.0
C      1  0.4740090000000  0.4845820000000  0.4908780000000 1.0
C      1  0.5734950000000  0.4902030000000  0.4966740000000 1.0
C      1  0.4249460000000  0.5203240000000  0.5640930000000 1.0
C      1  0.5618260000000  0.5150970000000  0.5492980000000 1.0
C      1  0.5808540000000  0.4961530000000  0.5410430000000 1.0
END
