TITL C-950534-5965-560 1.2226175555475e-06 125000 -540.998461511449 0 0 89 (C1) n - 1
REM
REM in /home/bkarasulu/work/CARBON/AIRSS/Generating-Clusters/EDIP-Nigel-Params/with-SteepDescent/Only-C1/SD-CG/HFTN-CG
REM
REM
REM
REM
REM
REM ./C.cell (11c1c37f851c82e70ff6c80c92926a4b)
REM
REM compiler GCC version 9.2.1 20190827 (Red Hat 9.2.1-1)
REM options -cpp -mtune=generic -march=x86-64 -g -O0 -fpre-include=/usr/include/finclude/math-vector-fortran.h
REM seed -2080452652 438488256 128993002 -1247169552 2607004 391642664 1071340271 1436853184 -234898519 -1721905094 -1283994229 -1611349122 -1289704967 -1270815329 -221345502 626917511 1415228939 -952332233 -749013246 -1926817731 -1125174860 412573905 524880746 917608160 -1277590226 1738525432 -1367936736 -1630985985 -1799759876 2099133789 -1288813195 -437851174 403503371
REM
CELL 1.54180   50.00000   50.00000   50.00000   90.00000   90.00000   90.00000
LATT -1
SFAC C  
C      1  0.4529710000000  0.5539990000000  0.5337720000000 1.0
C      1  0.5217200000000  0.5900230000000  0.4993660000000 1.0
C      1  0.4654200000000  0.4914950000000  0.5744790000000 1.0
C      1  0.4222000000000  0.4700560000000  0.4568910000000 1.0
C      1  0.4856070000000  0.4812330000000  0.5236170000000 1.0
C      1  0.5027860000000  0.5054430000000  0.5202380000000 1.0
C      1  0.5537620000000  0.5667770000000  0.5422680000000 1.0
C      1  0.5226800000000  0.5405400000000  0.4918320000000 1.0
C      1  0.4949860000000  0.4902180000000  0.5761880000000 1.0
C      1  0.4712900000000  0.4334140000000  0.5148930000000 1.0
C      1  0.5305980000000  0.5534030000000  0.5504100000000 1.0
C      1  0.4558600000000  0.5569060000000  0.5031480000000 1.0
C      1  0.4381230000000  0.4656940000000  0.5422760000000 1.0
C      1  0.4417920000000  0.5268750000000  0.5441600000000 1.0
C      1  0.5067290000000  0.4680510000000  0.5600470000000 1.0
C      1  0.5605410000000  0.4408870000000  0.4643990000000 1.0
C      1  0.4375090000000  0.5442700000000  0.4718260000000 1.0
C      1  0.5546100000000  0.5158650000000  0.4754980000000 1.0
C      1  0.5244510000000  0.4287140000000  0.5182560000000 1.0
C      1  0.4751330000000  0.4496280000000  0.4900410000000 1.0
C      1  0.4351380000000  0.4936410000000  0.4728470000000 1.0
C      1  0.4207930000000  0.5201550000000  0.4787720000000 1.0
C      1  0.5363540000000  0.4700610000000  0.5105890000000 1.0
C      1  0.4594570000000  0.5107300000000  0.5256150000000 1.0
C      1  0.5774600000000  0.5207600000000  0.5184250000000 1.0
C      1  0.4397270000000  0.4817600000000  0.5006320000000 1.0
C      1  0.4521720000000  0.5420930000000  0.4451050000000 1.0
C      1  0.4876790000000  0.4620860000000  0.4312250000000 1.0
C      1  0.4550990000000  0.5199270000000  0.5721290000000 1.0
C      1  0.5055060000000  0.5536820000000  0.4533650000000 1.0
C      1  0.5057970000000  0.5612340000000  0.5369290000000 1.0
C      1  0.5001490000000  0.5820430000000  0.4538920000000 1.0
C      1  0.4628260000000  0.4814360000000  0.5463370000000 1.0
C      1  0.5705370000000  0.4660170000000  0.4771550000000 1.0
C      1  0.5498050000000  0.5834420000000  0.5014930000000 1.0
C      1  0.5708640000000  0.4922040000000  0.5644990000000 1.0
C      1  0.4591050000000  0.5253680000000  0.4980030000000 1.0
C      1  0.5076730000000  0.5650260000000  0.5073710000000 1.0
C      1  0.4420620000000  0.4401640000000  0.5246790000000 1.0
C      1  0.5678330000000  0.4509300000000  0.5351130000000 1.0
C      1  0.5482350000000  0.4309570000000  0.5329450000000 1.0
C      1  0.4801320000000  0.5161550000000  0.4797980000000 1.0
C      1  0.4802440000000  0.5357750000000  0.5709800000000 1.0
C      1  0.4110310000000  0.5215440000000  0.5051920000000 1.0
C      1  0.4177090000000  0.4844910000000  0.5325000000000 1.0
C      1  0.4957280000000  0.4423030000000  0.5571960000000 1.0
C      1  0.5522890000000  0.5118370000000  0.5672150000000 1.0
C      1  0.5512530000000  0.5101730000000  0.5071070000000 1.0
C      1  0.5885090000000  0.5393400000000  0.4995680000000 1.0
C      1  0.5684000000000  0.4691350000000  0.5084690000000 1.0
C      1  0.5128730000000  0.4474330000000  0.4266210000000 1.0
C      1  0.5707940000000  0.5418840000000  0.4768160000000 1.0
C      1  0.4378540000000  0.4679580000000  0.4318360000000 1.0
C      1  0.4257020000000  0.4538440000000  0.5014410000000 1.0
C      1  0.5251180000000  0.4744190000000  0.4514270000000 1.0
C      1  0.5298990000000  0.5033700000000  0.5311610000000 1.0
C      1  0.4446860000000  0.4939120000000  0.4225990000000 1.0
C      1  0.4572140000000  0.4393090000000  0.4664440000000 1.0
C      1  0.5314700000000  0.4176140000000  0.4915360000000 1.0
C      1  0.5071060000000  0.5075840000000  0.4302740000000 1.0
C      1  0.5068060000000  0.5108890000000  0.4918470000000 1.0
C      1  0.5301440000000  0.5289220000000  0.5664950000000 1.0
C      1  0.5585850000000  0.4195880000000  0.4830460000000 1.0
C      1  0.5852160000000  0.4928660000000  0.5163870000000 1.0
C      1  0.5328050000000  0.5155820000000  0.4365710000000 1.0
C      1  0.4896870000000  0.5928130000000  0.4776790000000 1.0
C      1  0.5033630000000  0.5178960000000  0.5706320000000 1.0
C      1  0.5328450000000  0.5398460000000  0.4540130000000 1.0
C      1  0.5041520000000  0.4521460000000  0.4865340000000 1.0
C      1  0.5190570000000  0.4796060000000  0.4825790000000 1.0
C      1  0.5521150000000  0.5535520000000  0.5000650000000 1.0
C      1  0.5609040000000  0.5879640000000  0.5268180000000 1.0
C      1  0.4284520000000  0.4448480000000  0.4728720000000 1.0
C      1  0.5314240000000  0.4748890000000  0.5440630000000 1.0
C      1  0.4864100000000  0.4906220000000  0.4380640000000 1.0
C      1  0.5576370000000  0.4687360000000  0.5570200000000 1.0
C      1  0.4969480000000  0.4307180000000  0.5315190000000 1.0
C      1  0.4160370000000  0.5135550000000  0.5317720000000 1.0
C      1  0.4448130000000  0.5203570000000  0.4288690000000 1.0
C      1  0.5322980000000  0.4431010000000  0.4504230000000 1.0
C      1  0.4694860000000  0.4772470000000  0.4983420000000 1.0
C      1  0.4612670000000  0.4487770000000  0.4376240000000 1.0
C      1  0.4791690000000  0.5528270000000  0.4397060000000 1.0
C      1  0.5679580000000  0.4919630000000  0.4617360000000 1.0
C      1  0.4794900000000  0.5538740000000  0.5480470000000 1.0
C      1  0.4811580000000  0.5722040000000  0.4967120000000 1.0
C      1  0.5480350000000  0.4902980000000  0.4403950000000 1.0
C      1  0.4676300000000  0.4988350000000  0.4600370000000 1.0
C      1  0.5150610000000  0.4301980000000  0.4712310000000 1.0
END
