TITL C-950531-5884-741 -2.42260731404041e-05 125000 -198.735909688579 0 0 34 (C1) n - 1
REM
REM in /home/bkarasulu/work/CARBON/AIRSS/Generating-Clusters/EDIP-Nigel-Params/with-SteepDescent/Only-C1/SD-CG/HFTN-CG
REM
REM
REM
REM
REM
REM ./C.cell (11c1c37f851c82e70ff6c80c92926a4b)
REM
REM compiler GCC version 9.2.1 20190827 (Red Hat 9.2.1-1)
REM options -cpp -mtune=generic -march=x86-64 -g -O0 -fpre-include=/usr/include/finclude/math-vector-fortran.h
REM seed -353445576 -1404542353 1191710776 1491634761 1983456754 -387347129 1744304557 -1577456023 53564702 1062539630 641831075 1097782069 1406999894 804586439 1761359191 -1689565129 -1436464083 -1888523743 1431989216 1588893336 291092917 1122877818 885943474 1099406522 -1334759573 1857962914 1533261629 -1977175093 -2089534961 1614947894 299756656 -1624647435 579297501
REM
CELL 1.54180   50.00000   50.00000   50.00000   90.00000   90.00000   90.00000
LATT -1
SFAC C  
C      1  0.4547950000000  0.5277470000000  0.5080550000000 1.0
C      1  0.4609050000000  0.5477770000000  0.4352730000000 1.0
C      1  0.4629790000000  0.4440490000000  0.4775640000000 1.0
C      1  0.5171560000000  0.4644010000000  0.5212880000000 1.0
C      1  0.4576720000000  0.5013960000000  0.5217440000000 1.0
C      1  0.5268300000000  0.5069370000000  0.5509470000000 1.0
C      1  0.5490680000000  0.4989590000000  0.5331570000000 1.0
C      1  0.4713060000000  0.5363170000000  0.5514030000000 1.0
C      1  0.4625310000000  0.5239500000000  0.4797760000000 1.0
C      1  0.5525470000000  0.5476260000000  0.5080650000000 1.0
C      1  0.5096860000000  0.4562760000000  0.4783730000000 1.0
C      1  0.5669160000000  0.4982950000000  0.4825640000000 1.0
C      1  0.4666700000000  0.4955450000000  0.4755980000000 1.0
C      1  0.5035320000000  0.4899610000000  0.5093600000000 1.0
C      1  0.4660670000000  0.4545750000000  0.5038100000000 1.0
C      1  0.4661570000000  0.5479170000000  0.5255330000000 1.0
C      1  0.4867100000000  0.4398740000000  0.5174360000000 1.0
C      1  0.5116590000000  0.4404130000000  0.5029330000000 1.0
C      1  0.4740600000000  0.5071090000000  0.5460610000000 1.0
C      1  0.5462480000000  0.4725300000000  0.5195010000000 1.0
C      1  0.4968440000000  0.5494690000000  0.5496930000000 1.0
C      1  0.4540820000000  0.5663110000000  0.4536330000000 1.0
C      1  0.5346010000000  0.4881660000000  0.4511890000000 1.0
C      1  0.4768210000000  0.4820810000000  0.4529760000000 1.0
C      1  0.4841020000000  0.4566680000000  0.4634130000000 1.0
C      1  0.5356390000000  0.4653760000000  0.4687340000000 1.0
C      1  0.4489080000000  0.5390320000000  0.4594440000000 1.0
C      1  0.5216280000000  0.5356410000000  0.5536590000000 1.0
C      1  0.5563730000000  0.4723030000000  0.4905280000000 1.0
C      1  0.5432890000000  0.5087240000000  0.4693280000000 1.0
C      1  0.5362300000000  0.5271480000000  0.5128700000000 1.0
C      1  0.4732750000000  0.4842560000000  0.5022820000000 1.0
C      1  0.5232270000000  0.5145150000000  0.4901450000000 1.0
C      1  0.5014840000000  0.5086570000000  0.5336640000000 1.0
END
