TITL C-951339-9237-255 -1.66669984871889e-06 125000 -989.004191820928 0 0 160 (C1) n - 1
REM
REM in /home/bkarasulu/work/CARBON/AIRSS/Generating-Clusters/EDIP-Nigel-Params/with-SteepDescent/Only-C1/SD-CG/HFTN-CG
REM
REM
REM
REM
REM
REM ./C.cell (11c1c37f851c82e70ff6c80c92926a4b)
REM
REM compiler GCC version 9.2.1 20190827 (Red Hat 9.2.1-1)
REM options -cpp -mtune=generic -march=x86-64 -g -O0 -fpre-include=/usr/include/finclude/math-vector-fortran.h
REM seed -320761139 1318617576 1088973502 -881716376 1467957996 2775384 -1170794963 -313724840 -1183259923 -1138204584 -301244702 -1616663359 -1441052796 -2119275952 31668708 -2124382098 1653031145 2004064741 -1392933003 1823854984 -938783793 173817289 -1780358906 -1158021430 -963891391 1867267277 1231473823 1417760359 -1777032516 568351158 -962069324 -1157019993 -1881870372
REM
CELL 1.54180   50.00000   50.00000   50.00000   90.00000   90.00000   90.00000
LATT -1
SFAC C  
C      1  0.3935320000000  0.5035850000000  0.4909610000000 1.0
C      1  0.4914250000000  0.5252890000000  0.6032030000000 1.0
C      1  0.4330970000000  0.5199380000000  0.5018890000000 1.0
C      1  0.4138870000000  0.4565510000000  0.5166160000000 1.0
C      1  0.4798360000000  0.5738610000000  0.4295420000000 1.0
C      1  0.5128400000000  0.5138410000000  0.5867330000000 1.0
C      1  0.4878300000000  0.4574370000000  0.5427930000000 1.0
C      1  0.4986290000000  0.4803280000000  0.5582500000000 1.0
C      1  0.5969740000000  0.4421000000000  0.4815130000000 1.0
C      1  0.5185690000000  0.4736120000000  0.6034320000000 1.0
C      1  0.5746280000000  0.4080820000000  0.5467240000000 1.0
C      1  0.5493160000000  0.4637970000000  0.4082960000000 1.0
C      1  0.5594780000000  0.5157090000000  0.4192710000000 1.0
C      1  0.4590710000000  0.5594920000000  0.4129320000000 1.0
C      1  0.4665330000000  0.5123340000000  0.4392120000000 1.0
C      1  0.4887970000000  0.5173750000000  0.4786990000000 1.0
C      1  0.5052920000000  0.5950570000000  0.5238120000000 1.0
C      1  0.4623980000000  0.5115840000000  0.4678070000000 1.0
C      1  0.5658790000000  0.4191480000000  0.5227230000000 1.0
C      1  0.6076850000000  0.5113420000000  0.4943200000000 1.0
C      1  0.4899350000000  0.4959460000000  0.3968260000000 1.0
C      1  0.5711910000000  0.4816350000000  0.5051690000000 1.0
C      1  0.4746880000000  0.4236060000000  0.5060290000000 1.0
C      1  0.4597880000000  0.5790210000000  0.5636790000000 1.0
C      1  0.4579300000000  0.5966180000000  0.5144710000000 1.0
C      1  0.4443240000000  0.5566000000000  0.4594320000000 1.0
C      1  0.5032180000000  0.5406680000000  0.4016720000000 1.0
C      1  0.5553520000000  0.5686410000000  0.4716890000000 1.0
C      1  0.4721260000000  0.5362340000000  0.5818500000000 1.0
C      1  0.4333140000000  0.5809820000000  0.4723520000000 1.0
C      1  0.4512350000000  0.5151730000000  0.5298060000000 1.0
C      1  0.4955350000000  0.4553090000000  0.6022940000000 1.0
C      1  0.4738850000000  0.5638730000000  0.4595070000000 1.0
C      1  0.4749010000000  0.4535310000000  0.4965050000000 1.0
C      1  0.4871790000000  0.4188250000000  0.4588790000000 1.0
C      1  0.5617900000000  0.5165170000000  0.5791840000000 1.0
C      1  0.5310380000000  0.5517760000000  0.4764560000000 1.0
C      1  0.6091760000000  0.4673480000000  0.5240510000000 1.0
C      1  0.5515720000000  0.5074410000000  0.4701910000000 1.0
C      1  0.6062940000000  0.5407140000000  0.4988230000000 1.0
C      1  0.4235680000000  0.5251710000000  0.4230510000000 1.0
C      1  0.4523360000000  0.4207910000000  0.5257460000000 1.0
C      1  0.4128300000000  0.4632080000000  0.4645730000000 1.0
C      1  0.5383710000000  0.5892140000000  0.4541740000000 1.0
C      1  0.4302440000000  0.4250200000000  0.4345950000000 1.0
C      1  0.4396900000000  0.5659790000000  0.5462860000000 1.0
C      1  0.5721920000000  0.5507900000000  0.4532080000000 1.0
C      1  0.4996040000000  0.4486340000000  0.4581360000000 1.0
C      1  0.5851380000000  0.4175830000000  0.4735270000000 1.0
C      1  0.4366730000000  0.4900320000000  0.4961090000000 1.0
C      1  0.4103710000000  0.4764810000000  0.4921550000000 1.0
C      1  0.4267440000000  0.5410960000000  0.5552240000000 1.0
C      1  0.4680930000000  0.5940610000000  0.4609490000000 1.0
C      1  0.5688020000000  0.5747860000000  0.4994950000000 1.0
C      1  0.4554100000000  0.4299910000000  0.4227830000000 1.0
C      1  0.4502960000000  0.4472110000000  0.5853220000000 1.0
C      1  0.5250730000000  0.4618470000000  0.4249650000000 1.0
C      1  0.4727030000000  0.4689330000000  0.5205110000000 1.0
C      1  0.4901250000000  0.4960080000000  0.4348320000000 1.0
C      1  0.4646020000000  0.5110810000000  0.3940960000000 1.0
C      1  0.4475260000000  0.4839450000000  0.5234200000000 1.0
C      1  0.4297720000000  0.4536640000000  0.5671750000000 1.0
C      1  0.5917050000000  0.4545100000000  0.5434490000000 1.0
C      1  0.5390390000000  0.4998920000000  0.4068320000000 1.0
C      1  0.5325310000000  0.5545600000000  0.5688870000000 1.0
C      1  0.3876780000000  0.5481920000000  0.4709070000000 1.0
C      1  0.5974840000000  0.5398570000000  0.4615850000000 1.0
C      1  0.5675750000000  0.4481790000000  0.4273090000000 1.0
C      1  0.4284770000000  0.4302680000000  0.5104800000000 1.0
C      1  0.5591180000000  0.4128640000000  0.4623940000000 1.0
C      1  0.4320170000000  0.4392190000000  0.4595720000000 1.0
C      1  0.5048620000000  0.4970550000000  0.5323680000000 1.0
C      1  0.5537890000000  0.5275880000000  0.4464960000000 1.0
C      1  0.4892280000000  0.5450980000000  0.4899820000000 1.0
C      1  0.5217770000000  0.4320780000000  0.4311650000000 1.0
C      1  0.5800540000000  0.4698010000000  0.5653860000000 1.0
C      1  0.5962490000000  0.4936720000000  0.5161840000000 1.0
C      1  0.4809930000000  0.5156040000000  0.5359610000000 1.0
C      1  0.5842450000000  0.5030610000000  0.4201390000000 1.0
C      1  0.4699120000000  0.5086240000000  0.6140580000000 1.0
C      1  0.4955350000000  0.5866480000000  0.5505980000000 1.0
C      1  0.4620960000000  0.4586130000000  0.4214010000000 1.0
C      1  0.5866240000000  0.5109840000000  0.5386890000000 1.0
C      1  0.5844630000000  0.5534720000000  0.5136670000000 1.0
C      1  0.5528630000000  0.5892320000000  0.5169950000000 1.0
C      1  0.5189570000000  0.4231690000000  0.5710670000000 1.0
C      1  0.5390380000000  0.5061040000000  0.5966140000000 1.0
C      1  0.4464740000000  0.5063840000000  0.4181940000000 1.0
C      1  0.5693540000000  0.5356470000000  0.5337090000000 1.0
C      1  0.3959280000000  0.5270320000000  0.5111030000000 1.0
C      1  0.4797120000000  0.4139320000000  0.4302070000000 1.0
C      1  0.5582470000000  0.4468150000000  0.5156890000000 1.0
C      1  0.5310700000000  0.4550470000000  0.5224060000000 1.0
C      1  0.5013170000000  0.4599200000000  0.4865600000000 1.0
C      1  0.4354500000000  0.5515480000000  0.4298420000000 1.0
C      1  0.5751790000000  0.4978560000000  0.5611360000000 1.0
C      1  0.5954840000000  0.5114080000000  0.4673260000000 1.0
C      1  0.5249110000000  0.5377070000000  0.4501280000000 1.0
C      1  0.5312350000000  0.5714970000000  0.4318320000000 1.0
C      1  0.4054130000000  0.5152640000000  0.4423460000000 1.0
C      1  0.4086880000000  0.5233720000000  0.5383330000000 1.0
C      1  0.4947040000000  0.4354470000000  0.5805830000000 1.0
C      1  0.3986070000000  0.5530640000000  0.4962180000000 1.0
C      1  0.4565250000000  0.4143470000000  0.5527880000000 1.0
C      1  0.4173970000000  0.4980360000000  0.5527200000000 1.0
C      1  0.5606410000000  0.5445300000000  0.5649840000000 1.0
C      1  0.5187840000000  0.5818650000000  0.5702320000000 1.0
C      1  0.5159070000000  0.5306910000000  0.5626440000000 1.0
C      1  0.5732130000000  0.4590560000000  0.4817320000000 1.0
C      1  0.5062440000000  0.5631330000000  0.4207340000000 1.0
C      1  0.5370860000000  0.4704620000000  0.4506960000000 1.0
C      1  0.3919730000000  0.5207510000000  0.4662600000000 1.0
C      1  0.4739890000000  0.5396890000000  0.3952960000000 1.0
C      1  0.4792060000000  0.4676420000000  0.4445700000000 1.0
C      1  0.5187470000000  0.4770270000000  0.5060420000000 1.0
C      1  0.5857320000000  0.4923960000000  0.4461540000000 1.0
C      1  0.4577880000000  0.4678880000000  0.4673100000000 1.0
C      1  0.4445410000000  0.5092810000000  0.5989980000000 1.0
C      1  0.4654560000000  0.5648250000000  0.5885140000000 1.0
C      1  0.5676110000000  0.4678900000000  0.4518340000000 1.0
C      1  0.4372410000000  0.5788980000000  0.5204360000000 1.0
C      1  0.5105560000000  0.4378840000000  0.5366950000000 1.0
C      1  0.4822580000000  0.5600480000000  0.5382800000000 1.0
C      1  0.4689740000000  0.4681030000000  0.5970290000000 1.0
C      1  0.4189230000000  0.4686610000000  0.5455420000000 1.0
C      1  0.5207260000000  0.5499140000000  0.5036560000000 1.0
C      1  0.5088400000000  0.5883700000000  0.5956940000000 1.0
C      1  0.4369170000000  0.4217580000000  0.4822540000000 1.0
C      1  0.5598150000000  0.4562990000000  0.5803270000000 1.0
C      1  0.5338740000000  0.4117020000000  0.4775750000000 1.0
C      1  0.5216280000000  0.4019490000000  0.5020790000000 1.0
C      1  0.4877490000000  0.5364450000000  0.5552150000000 1.0
C      1  0.5274440000000  0.5778070000000  0.5156680000000 1.0
C      1  0.5029400000000  0.4177380000000  0.4141460000000 1.0
C      1  0.6137710000000  0.4493730000000  0.5028180000000 1.0
C      1  0.5130540000000  0.5124100000000  0.4012900000000 1.0
C      1  0.5262520000000  0.4910930000000  0.4681380000000 1.0
C      1  0.4236350000000  0.5688140000000  0.4970050000000 1.0
C      1  0.4368580000000  0.5142560000000  0.5709010000000 1.0
C      1  0.4839840000000  0.5952700000000  0.5045420000000 1.0
C      1  0.5522550000000  0.4231120000000  0.4351260000000 1.0
C      1  0.5423200000000  0.5266680000000  0.5191850000000 1.0
C      1  0.4326520000000  0.4823420000000  0.4530040000000 1.0
C      1  0.4849940000000  0.5782020000000  0.6032130000000 1.0
C      1  0.4477210000000  0.5336260000000  0.4797360000000 1.0
C      1  0.4656990000000  0.5465410000000  0.5117280000000 1.0
C      1  0.5075590000000  0.5110030000000  0.4566670000000 1.0
C      1  0.4382280000000  0.4772600000000  0.4232530000000 1.0
C      1  0.4656760000000  0.4118560000000  0.4805500000000 1.0
C      1  0.5420210000000  0.4391250000000  0.5661160000000 1.0
C      1  0.4744530000000  0.4937710000000  0.5786970000000 1.0
C      1  0.5014270000000  0.4155180000000  0.5182650000000 1.0
C      1  0.5254000000000  0.4728010000000  0.5746920000000 1.0
C      1  0.5266230000000  0.5143930000000  0.5405540000000 1.0
C      1  0.5498980000000  0.5025430000000  0.5004050000000 1.0
C      1  0.5953660000000  0.4263170000000  0.5466830000000 1.0
C      1  0.5101170000000  0.4016750000000  0.4651450000000 1.0
C      1  0.4899030000000  0.6037690000000  0.4776070000000 1.0
C      1  0.4671820000000  0.4253560000000  0.5762130000000 1.0
C      1  0.5158170000000  0.6010890000000  0.4666440000000 1.0
END
