TITL C-951334-9093-14 -1.06618299226894e-06 125000 -278.893300759047 0 0 47 (C1) n - 1
REM
REM in /home/bkarasulu/work/CARBON/AIRSS/Generating-Clusters/EDIP-Nigel-Params/with-SteepDescent/Only-C1/SD-CG/HFTN-CG
REM
REM
REM
REM
REM
REM ./C.cell (11c1c37f851c82e70ff6c80c92926a4b)
REM
REM compiler GCC version 9.2.1 20190827 (Red Hat 9.2.1-1)
REM options -cpp -mtune=generic -march=x86-64 -g -O0 -fpre-include=/usr/include/finclude/math-vector-fortran.h
REM seed 1352465335 -1884958598 388498619 -1178182440 1645473553 -1945910619 -986539093 -1552528817 789215045 1797153611 -972188429 -989578376 1447835638 1008651756 -1308514604 1533823478 -773774365 -1590787750 2042689428 -1515055632 -138358920 -1021492035 1131591841 -787988900 2074977209 1932975742 985434417 649115656 777708880 -1988400629 2060063776 -539396225 1637275156
REM
CELL 1.54180   50.00000   50.00000   50.00000   90.00000   90.00000   90.00000
LATT -1
SFAC C  
C      1  0.5330480000000  0.4694890000000  0.4355390000000 1.0
C      1  0.4354020000000  0.5066910000000  0.4862160000000 1.0
C      1  0.5572450000000  0.5290290000000  0.5410910000000 1.0
C      1  0.4338090000000  0.4774910000000  0.4792860000000 1.0
C      1  0.4757880000000  0.5166480000000  0.4516850000000 1.0
C      1  0.4922270000000  0.4546760000000  0.5430990000000 1.0
C      1  0.4746780000000  0.4425960000000  0.4623780000000 1.0
C      1  0.4749720000000  0.5323740000000  0.4294440000000 1.0
C      1  0.5542930000000  0.5102420000000  0.4479660000000 1.0
C      1  0.5128430000000  0.4744180000000  0.5522800000000 1.0
C      1  0.5439900000000  0.5165510000000  0.5651740000000 1.0
C      1  0.4824490000000  0.4876680000000  0.4433070000000 1.0
C      1  0.4977530000000  0.4434520000000  0.4831820000000 1.0
C      1  0.5191220000000  0.5103520000000  0.4819880000000 1.0
C      1  0.5612230000000  0.5009920000000  0.4916540000000 1.0
C      1  0.5013020000000  0.5469890000000  0.5482090000000 1.0
C      1  0.5474070000000  0.5203930000000  0.4736920000000 1.0
C      1  0.4730040000000  0.5459320000000  0.5403130000000 1.0
C      1  0.5195610000000  0.5597360000000  0.5289250000000 1.0
C      1  0.4715650000000  0.4943730000000  0.5190590000000 1.0
C      1  0.5188080000000  0.5049110000000  0.5135050000000 1.0
C      1  0.4554380000000  0.5410380000000  0.5181650000000 1.0
C      1  0.5258170000000  0.4761720000000  0.5241790000000 1.0
C      1  0.4502660000000  0.5185150000000  0.4651370000000 1.0
C      1  0.4981930000000  0.5000820000000  0.5577500000000 1.0
C      1  0.4968600000000  0.5276740000000  0.4708680000000 1.0
C      1  0.4670610000000  0.4679040000000  0.5348380000000 1.0
C      1  0.5097600000000  0.5617690000000  0.5030650000000 1.0
C      1  0.4904330000000  0.5520210000000  0.4855340000000 1.0
C      1  0.5140610000000  0.5237660000000  0.5671770000000 1.0
C      1  0.4363680000000  0.4731270000000  0.4512280000000 1.0
C      1  0.4634040000000  0.4652440000000  0.4451150000000 1.0
C      1  0.5514570000000  0.4820320000000  0.4523040000000 1.0
C      1  0.5472990000000  0.4870150000000  0.5637690000000 1.0
C      1  0.4811350000000  0.4853750000000  0.4918440000000 1.0
C      1  0.5571780000000  0.5057930000000  0.5214190000000 1.0
C      1  0.4869560000000  0.4362270000000  0.5109960000000 1.0
C      1  0.4592860000000  0.4642590000000  0.4887240000000 1.0
C      1  0.5469850000000  0.4770540000000  0.4806140000000 1.0
C      1  0.5086450000000  0.4790080000000  0.4417500000000 1.0
C      1  0.4594580000000  0.4482150000000  0.5142430000000 1.0
C      1  0.5461170000000  0.5532660000000  0.5330120000000 1.0
C      1  0.5534320000000  0.4796730000000  0.5362270000000 1.0
C      1  0.5092710000000  0.4726620000000  0.4853610000000 1.0
C      1  0.4936430000000  0.5111310000000  0.5302610000000 1.0
C      1  0.4638130000000  0.5537610000000  0.4943050000000 1.0
C      1  0.4471780000000  0.5122140000000  0.5141240000000 1.0
END
