TITL C-950535-5962-294 -7.01028495466709e-06 125000 -791.378146927291 0 0 127 (C1) n - 1
REM
REM in /home/bkarasulu/work/CARBON/AIRSS/Generating-Clusters/EDIP-Nigel-Params/with-SteepDescent/Only-C1/SD-CG/HFTN-CG
REM
REM
REM
REM
REM
REM ./C.cell (11c1c37f851c82e70ff6c80c92926a4b)
REM
REM compiler GCC version 9.2.1 20190827 (Red Hat 9.2.1-1)
REM options -cpp -mtune=generic -march=x86-64 -g -O0 -fpre-include=/usr/include/finclude/math-vector-fortran.h
REM seed -1846091062 557392660 1851282686 -194800234 -540820534 1691389597 -254235687 1978058254 899756628 1464023769 1310637013 -300442729 674422896 -1366917111 -309898947 155335133 -2141766166 1692354181 -625316336 273397850 -311609915 -1766042415 -274543711 -41384561 579080972 1835242806 1685481866 1901012156 1551614188 -1077196174 -950217096 1162144156 37102027
REM
CELL 1.54180   50.00000   50.00000   50.00000   90.00000   90.00000   90.00000
LATT -1
SFAC C  
C      1  0.4329510000000  0.4457790000000  0.5351570000000 1.0
C      1  0.5883220000000  0.5269580000000  0.5145890000000 1.0
C      1  0.4603650000000  0.4100190000000  0.4769400000000 1.0
C      1  0.4759870000000  0.5525820000000  0.4166100000000 1.0
C      1  0.4710440000000  0.5024660000000  0.5003560000000 1.0
C      1  0.4451030000000  0.4645800000000  0.4683290000000 1.0
C      1  0.5064890000000  0.5305400000000  0.4367320000000 1.0
C      1  0.4128230000000  0.5190940000000  0.5637010000000 1.0
C      1  0.5103290000000  0.5401190000000  0.5729080000000 1.0
C      1  0.4975040000000  0.5500950000000  0.4870740000000 1.0
C      1  0.4889870000000  0.4685910000000  0.5269770000000 1.0
C      1  0.4835920000000  0.5336770000000  0.5771190000000 1.0
C      1  0.4170460000000  0.5048650000000  0.4715710000000 1.0
C      1  0.5421150000000  0.4659710000000  0.4442590000000 1.0
C      1  0.4628570000000  0.5498260000000  0.5599300000000 1.0
C      1  0.5134310000000  0.4019170000000  0.5298600000000 1.0
C      1  0.6117090000000  0.4723030000000  0.4687080000000 1.0
C      1  0.5220420000000  0.5473990000000  0.5283330000000 1.0
C      1  0.5859760000000  0.5223820000000  0.4635610000000 1.0
C      1  0.4264720000000  0.5658040000000  0.5103060000000 1.0
C      1  0.5702400000000  0.5468630000000  0.4617590000000 1.0
C      1  0.5089830000000  0.4044590000000  0.4654000000000 1.0
C      1  0.4311200000000  0.5665250000000  0.5437100000000 1.0
C      1  0.4345610000000  0.4912960000000  0.4232590000000 1.0
C      1  0.4955260000000  0.5848030000000  0.5036130000000 1.0
C      1  0.5199680000000  0.5057950000000  0.4775470000000 1.0
C      1  0.4259180000000  0.5509230000000  0.4647280000000 1.0
C      1  0.4806540000000  0.4775020000000  0.4169130000000 1.0
C      1  0.5324850000000  0.4493440000000  0.5896540000000 1.0
C      1  0.4710400000000  0.4607740000000  0.4823560000000 1.0
C      1  0.5892520000000  0.5135090000000  0.5410540000000 1.0
C      1  0.5784540000000  0.4387890000000  0.4855140000000 1.0
C      1  0.5460820000000  0.4681070000000  0.5371600000000 1.0
C      1  0.5000480000000  0.4937150000000  0.5386190000000 1.0
C      1  0.5350210000000  0.5726440000000  0.5201530000000 1.0
C      1  0.4964000000000  0.5880640000000  0.5487580000000 1.0
C      1  0.4372180000000  0.4689890000000  0.5168970000000 1.0
C      1  0.4674580000000  0.5434850000000  0.4780940000000 1.0
C      1  0.5299420000000  0.5345020000000  0.5530290000000 1.0
C      1  0.5777070000000  0.4372780000000  0.5353110000000 1.0
C      1  0.4450040000000  0.4814440000000  0.5664450000000 1.0
C      1  0.5206360000000  0.4834650000000  0.4328320000000 1.0
C      1  0.4850400000000  0.5052190000000  0.4064040000000 1.0
C      1  0.4876790000000  0.4013090000000  0.4866430000000 1.0
C      1  0.4549810000000  0.5527960000000  0.5078020000000 1.0
C      1  0.4931360000000  0.4399290000000  0.4805450000000 1.0
C      1  0.5508160000000  0.4989490000000  0.5671050000000 1.0
C      1  0.5043440000000  0.4879750000000  0.5824990000000 1.0
C      1  0.4220630000000  0.4305420000000  0.5012240000000 1.0
C      1  0.4208680000000  0.4931770000000  0.5567330000000 1.0
C      1  0.4196290000000  0.5336410000000  0.5392930000000 1.0
C      1  0.5028970000000  0.4584890000000  0.5881210000000 1.0
C      1  0.5278800000000  0.4399000000000  0.5570080000000 1.0
C      1  0.4402330000000  0.5763230000000  0.4699000000000 1.0
C      1  0.5217650000000  0.5810990000000  0.4670820000000 1.0
C      1  0.4811420000000  0.5057240000000  0.5867260000000 1.0
C      1  0.5019640000000  0.5363620000000  0.5124130000000 1.0
C      1  0.5713850000000  0.5218900000000  0.5634050000000 1.0
C      1  0.4031490000000  0.4844180000000  0.4876250000000 1.0
C      1  0.4586760000000  0.5339790000000  0.5326950000000 1.0
C      1  0.4974690000000  0.4392690000000  0.5647440000000 1.0
C      1  0.4708180000000  0.5800570000000  0.5581330000000 1.0
C      1  0.3985560000000  0.4986170000000  0.5134290000000 1.0
C      1  0.4430170000000  0.4948630000000  0.4602050000000 1.0
C      1  0.4930460000000  0.4110750000000  0.5137130000000 1.0
C      1  0.4228510000000  0.4603580000000  0.4907080000000 1.0
C      1  0.4758030000000  0.5767370000000  0.4595160000000 1.0
C      1  0.4676700000000  0.5260310000000  0.4158470000000 1.0
C      1  0.5542680000000  0.4245900000000  0.5222990000000 1.0
C      1  0.4770260000000  0.4465090000000  0.5440910000000 1.0
C      1  0.4414920000000  0.5194380000000  0.4237170000000 1.0
C      1  0.5940620000000  0.4839110000000  0.5405180000000 1.0
C      1  0.4457340000000  0.4476310000000  0.4431780000000 1.0
C      1  0.5473260000000  0.4731520000000  0.5958850000000 1.0
C      1  0.4469090000000  0.5941620000000  0.5447760000000 1.0
C      1  0.5548520000000  0.4193560000000  0.4914220000000 1.0
C      1  0.5475820000000  0.5433490000000  0.4427340000000 1.0
C      1  0.5135760000000  0.5932900000000  0.5268820000000 1.0
C      1  0.5108430000000  0.4357980000000  0.4280910000000 1.0
C      1  0.4887470000000  0.5704950000000  0.4336860000000 1.0
C      1  0.5748980000000  0.5030180000000  0.4438080000000 1.0
C      1  0.5208860000000  0.5367920000000  0.4701230000000 1.0
C      1  0.5927490000000  0.4451180000000  0.5111620000000 1.0
C      1  0.5463060000000  0.4606220000000  0.4873190000000 1.0
C      1  0.4194400000000  0.5303130000000  0.4852350000000 1.0
C      1  0.4960850000000  0.5920600000000  0.4751420000000 1.0
C      1  0.4617270000000  0.4214040000000  0.4482940000000 1.0
C      1  0.5325560000000  0.4223750000000  0.4703370000000 1.0
C      1  0.4564930000000  0.4929360000000  0.5888720000000 1.0
C      1  0.4835310000000  0.5164650000000  0.5229860000000 1.0
C      1  0.4215630000000  0.4905240000000  0.5286180000000 1.0
C      1  0.4527690000000  0.4682580000000  0.4208510000000 1.0
C      1  0.5546920000000  0.5181280000000  0.4280630000000 1.0
C      1  0.4510340000000  0.4255270000000  0.5003160000000 1.0
C      1  0.4924830000000  0.4215490000000  0.4460750000000 1.0
C      1  0.5877230000000  0.4585740000000  0.4638230000000 1.0
C      1  0.5623790000000  0.5660460000000  0.5347040000000 1.0
C      1  0.5389530000000  0.5720830000000  0.4897760000000 1.0
C      1  0.5570870000000  0.4789690000000  0.5096280000000 1.0
C      1  0.4046370000000  0.5277610000000  0.5117400000000 1.0
C      1  0.5017010000000  0.4584040000000  0.4117660000000 1.0
C      1  0.4688410000000  0.5111610000000  0.4718530000000 1.0
C      1  0.5777170000000  0.5536170000000  0.5120890000000 1.0
C      1  0.5893450000000  0.4746120000000  0.5122020000000 1.0
C      1  0.4306170000000  0.5908010000000  0.4946360000000 1.0
C      1  0.4675080000000  0.4750040000000  0.5075400000000 1.0
C      1  0.5973160000000  0.5144470000000  0.4896970000000 1.0
C      1  0.5313150000000  0.4968770000000  0.5409460000000 1.0
C      1  0.5733150000000  0.4641510000000  0.5524210000000 1.0
C      1  0.5648740000000  0.5606310000000  0.4864600000000 1.0
C      1  0.5112010000000  0.5199650000000  0.4078620000000 1.0
C      1  0.5678310000000  0.4757750000000  0.4521150000000 1.0
C      1  0.5014420000000  0.5020140000000  0.4539790000000 1.0
C      1  0.4690040000000  0.5792770000000  0.5154820000000 1.0
C      1  0.5197820000000  0.4860210000000  0.5009380000000 1.0
C      1  0.4506610000000  0.4542110000000  0.5568170000000 1.0
C      1  0.5181200000000  0.5681210000000  0.4401140000000 1.0
C      1  0.5347540000000  0.4151900000000  0.5413710000000 1.0
C      1  0.4503310000000  0.6031540000000  0.5134450000000 1.0
C      1  0.5563580000000  0.5473040000000  0.5587430000000 1.0
C      1  0.4697890000000  0.4236250000000  0.5244700000000 1.0
C      1  0.5357330000000  0.4378610000000  0.4446060000000 1.0
C      1  0.6066660000000  0.4873810000000  0.4919020000000 1.0
C      1  0.5159790000000  0.4555890000000  0.4942880000000 1.0
C      1  0.4288230000000  0.5388700000000  0.4394880000000 1.0
C      1  0.5335950000000  0.5026460000000  0.4142580000000 1.0
C      1  0.5312360000000  0.4971130000000  0.5910170000000 1.0
END
