TITL C-951341-1326-282 1.23639177575468e-05 125000 -218.109787942776 0 0 37 (C1) n - 1
REM
REM in /home/bkarasulu/work/CARBON/AIRSS/Generating-Clusters/EDIP-Nigel-Params/with-SteepDescent/Only-C1/SD-CG/HFTN-CG
REM
REM
REM
REM
REM
REM ./C.cell (11c1c37f851c82e70ff6c80c92926a4b)
REM
REM compiler GCC version 9.2.1 20190827 (Red Hat 9.2.1-1)
REM options -cpp -mtune=generic -march=x86-64 -g -O0 -fpre-include=/usr/include/finclude/math-vector-fortran.h
REM seed -498201573 -809563867 265353175 1150031874 1957562031 -394486841 -694307936 730324983 -1452585906 516781045 -340517355 1281724310 -1664999514 -1852534441 -181388283 380584384 291805365 -1391334778 1202989424 -1106543621 -36038508 366692013 -1188819402 1497382952 960703057 432205551 -2088043262 -1626362875 1949101973 978379932 1344119140 -216264585 -1372773960
REM
CELL 1.54180   50.00000   50.00000   50.00000   90.00000   90.00000   90.00000
LATT -1
SFAC C  
C      1  0.5467270000000  0.5527230000000  0.4809400000000 1.0
C      1  0.5061180000000  0.4497510000000  0.5456280000000 1.0
C      1  0.5361650000000  0.4852550000000  0.5219930000000 1.0
C      1  0.4928530000000  0.4505400000000  0.4736210000000 1.0
C      1  0.5455130000000  0.5554860000000  0.5078510000000 1.0
C      1  0.5223040000000  0.4730720000000  0.4359720000000 1.0
C      1  0.5020500000000  0.4385280000000  0.4972180000000 1.0
C      1  0.4828840000000  0.5060500000000  0.5118480000000 1.0
C      1  0.5188580000000  0.4921560000000  0.5444190000000 1.0
C      1  0.4965050000000  0.5127260000000  0.5393010000000 1.0
C      1  0.5598580000000  0.4751520000000  0.5050560000000 1.0
C      1  0.4645270000000  0.4552630000000  0.4730060000000 1.0
C      1  0.4811000000000  0.5343270000000  0.4588080000000 1.0
C      1  0.5368890000000  0.4955150000000  0.4349820000000 1.0
C      1  0.5054550000000  0.5421610000000  0.5377950000000 1.0
C      1  0.5315420000000  0.5065130000000  0.5018250000000 1.0
C      1  0.4480940000000  0.5017630000000  0.4624440000000 1.0
C      1  0.5047290000000  0.5087140000000  0.4914100000000 1.0
C      1  0.5465250000000  0.5109520000000  0.4564450000000 1.0
C      1  0.5044560000000  0.5340410000000  0.4755220000000 1.0
C      1  0.5138800000000  0.4704460000000  0.5613450000000 1.0
C      1  0.4608980000000  0.5252650000000  0.5031380000000 1.0
C      1  0.4614460000000  0.5497690000000  0.5171180000000 1.0
C      1  0.4912040000000  0.4428260000000  0.5229710000000 1.0
C      1  0.4640670000000  0.4535130000000  0.5222990000000 1.0
C      1  0.4536740000000  0.4759470000000  0.4582910000000 1.0
C      1  0.5017000000000  0.5565310000000  0.4936730000000 1.0
C      1  0.4618220000000  0.4810810000000  0.5317990000000 1.0
C      1  0.4522600000000  0.4493930000000  0.4972400000000 1.0
C      1  0.5318980000000  0.5481140000000  0.5301010000000 1.0
C      1  0.5518090000000  0.4953970000000  0.4820900000000 1.0
C      1  0.4885050000000  0.5567630000000  0.5185350000000 1.0
C      1  0.5087830000000  0.4564370000000  0.4518320000000 1.0
C      1  0.4758200000000  0.5081960000000  0.5591730000000 1.0
C      1  0.5322430000000  0.5371930000000  0.4621550000000 1.0
C      1  0.4588200000000  0.4868220000000  0.5592640000000 1.0
C      1  0.4580170000000  0.5256190000000  0.4728930000000 1.0
END
