TITL C-951339-9237-350 -7.47755950708793e-07 125000 -128.636490075326 0 0 23 (C1) n - 1
REM
REM in /home/bkarasulu/work/CARBON/AIRSS/Generating-Clusters/EDIP-Nigel-Params/with-SteepDescent/Only-C1/SD-CG/HFTN-CG
REM
REM
REM
REM
REM
REM ./C.cell (11c1c37f851c82e70ff6c80c92926a4b)
REM
REM compiler GCC version 9.2.1 20190827 (Red Hat 9.2.1-1)
REM options -cpp -mtune=generic -march=x86-64 -g -O0 -fpre-include=/usr/include/finclude/math-vector-fortran.h
REM seed 242232141 -703309549 -510955596 -1767330371 -292923820 -1603244004 -2085941313 -1669723650 262243014 -2048202425 -1082334050 497399647 919609689 -1156062386 -1136416320 253185224 1476774208 1846582947 680193582 995400421 -1209367221 719666970 -29163841 -242360874 -286754 -1128865819 -1565503959 -1298048753 -1156526572 1914552841 -208059536 2075177269 874173164
REM
CELL 1.54180   50.00000   50.00000   50.00000   90.00000   90.00000   90.00000
LATT -1
SFAC C  
C      1  0.5056500000000  0.4168320000000  0.5020380000000 1.0
C      1  0.4701350000000  0.4860170000000  0.4976120000000 1.0
C      1  0.5271370000000  0.5077230000000  0.4754720000000 1.0
C      1  0.5208250000000  0.4876490000000  0.4967060000000 1.0
C      1  0.5447460000000  0.5102620000000  0.5284650000000 1.0
C      1  0.4442970000000  0.4896790000000  0.5094910000000 1.0
C      1  0.5118180000000  0.4384560000000  0.4898380000000 1.0
C      1  0.5297170000000  0.5318780000000  0.5374230000000 1.0
C      1  0.4158380000000  0.5040760000000  0.4787960000000 1.0
C      1  0.5284740000000  0.4949740000000  0.4507130000000 1.0
C      1  0.5424650000000  0.4865470000000  0.5159030000000 1.0
C      1  0.5235740000000  0.4683230000000  0.4532450000000 1.0
C      1  0.4415960000000  0.5106380000000  0.4894520000000 1.0
C      1  0.5465740000000  0.5536660000000  0.4953620000000 1.0
C      1  0.4205440000000  0.4744090000000  0.5027200000000 1.0
C      1  0.5198620000000  0.4628790000000  0.4803200000000 1.0
C      1  0.5061080000000  0.5244860000000  0.5506060000000 1.0
C      1  0.4937150000000  0.5062750000000  0.5348050000000 1.0
C      1  0.5425780000000  0.5300560000000  0.4808980000000 1.0
C      1  0.3984370000000  0.4867720000000  0.4915230000000 1.0
C      1  0.5410950000000  0.5791720000000  0.5072160000000 1.0
C      1  0.4944700000000  0.4930500000000  0.5104040000000 1.0
C      1  0.5303440000000  0.5561790000000  0.5209910000000 1.0
END
