TITL C-950532-2784-31 1.32211800541575e-07 125000 -185.889865060473 0 0 32 (C1) n - 1
REM
REM in /home/bkarasulu/work/CARBON/AIRSS/Generating-Clusters/EDIP-Nigel-Params/with-SteepDescent/Only-C1/SD-CG/HFTN-CG
REM
REM
REM
REM
REM
REM ./C.cell (11c1c37f851c82e70ff6c80c92926a4b)
REM
REM compiler GCC version 9.2.1 20190827 (Red Hat 9.2.1-1)
REM options -cpp -mtune=generic -march=x86-64 -g -O0 -fpre-include=/usr/include/finclude/math-vector-fortran.h
REM seed 1397372332 -587446085 108099557 1211651549 1571004288 -1039464209 1170548278 485979415 -1047686535 -1442174318 1497545824 -347735778 708811193 2110522329 2122757959 632855207 -1089606413 1121083025 -2121347935 -2085795252 -1297676320 1321328635 1703823187 1904501184 1011571479 -16185437 -1649869496 254105096 -886425708 251213927 -532773458 108404060 620808962
REM
CELL 1.54180   50.00000   50.00000   50.00000   90.00000   90.00000   90.00000
LATT -1
SFAC C  
C      1  0.5544810000000  0.4717370000000  0.4959830000000 1.0
C      1  0.5505220000000  0.4814640000000  0.5353680000000 1.0
C      1  0.5274910000000  0.4606600000000  0.5037480000000 1.0
C      1  0.5003270000000  0.4731930000000  0.4964660000000 1.0
C      1  0.5244090000000  0.5307980000000  0.4618620000000 1.0
C      1  0.4916440000000  0.5027810000000  0.5044700000000 1.0
C      1  0.4977290000000  0.4734070000000  0.4660450000000 1.0
C      1  0.4982440000000  0.4519610000000  0.5361580000000 1.0
C      1  0.4293720000000  0.4706090000000  0.4429570000000 1.0
C      1  0.5284070000000  0.5050710000000  0.4713330000000 1.0
C      1  0.4934390000000  0.4685920000000  0.5581060000000 1.0
C      1  0.4965880000000  0.5117410000000  0.5479220000000 1.0
C      1  0.5160430000000  0.5476910000000  0.5184760000000 1.0
C      1  0.4747130000000  0.5034230000000  0.5300380000000 1.0
C      1  0.5221430000000  0.4827620000000  0.4551850000000 1.0
C      1  0.4755650000000  0.4912610000000  0.4588300000000 1.0
C      1  0.4828380000000  0.4555340000000  0.5121190000000 1.0
C      1  0.5096720000000  0.5528720000000  0.4694810000000 1.0
C      1  0.4474750000000  0.5247090000000  0.4833430000000 1.0
C      1  0.5487780000000  0.5011340000000  0.4919070000000 1.0
C      1  0.4516050000000  0.4791370000000  0.4523830000000 1.0
C      1  0.5712790000000  0.4686670000000  0.5198990000000 1.0
C      1  0.4380260000000  0.5276150000000  0.5091590000000 1.0
C      1  0.5029260000000  0.4924090000000  0.5670230000000 1.0
C      1  0.5264270000000  0.4516990000000  0.5308790000000 1.0
C      1  0.4830100000000  0.5520780000000  0.4619520000000 1.0
C      1  0.5142500000000  0.5611080000000  0.4954670000000 1.0
C      1  0.4514170000000  0.5182420000000  0.5301870000000 1.0
C      1  0.4758830000000  0.5137880000000  0.4787960000000 1.0
C      1  0.5426460000000  0.5065750000000  0.5209340000000 1.0
C      1  0.5156550000000  0.5197590000000  0.5242130000000 1.0
C      1  0.4569950000000  0.5475240000000  0.4693110000000 1.0
END
