TITL C-951334-9093-505 -2.65543103070405e-06 125000 -1067.51422371335 0 0 170 (C1) n - 1
REM
REM in /home/bkarasulu/work/CARBON/AIRSS/Generating-Clusters/EDIP-Nigel-Params/with-SteepDescent/Only-C1/SD-CG/HFTN-CG
REM
REM
REM
REM
REM
REM ./C.cell (11c1c37f851c82e70ff6c80c92926a4b)
REM
REM compiler GCC version 9.2.1 20190827 (Red Hat 9.2.1-1)
REM options -cpp -mtune=generic -march=x86-64 -g -O0 -fpre-include=/usr/include/finclude/math-vector-fortran.h
REM seed -1350209044 -1026053961 81241981 -1093622227 580772754 -1570774692 -769769567 642183042 -1017217250 -1319517957 1079358358 694384777 -1588827707 -1757552949 1720603015 1313637308 2112816533 347233362 1113255486 1772705233 -1361791378 1647879999 -2062011684 918519864 -172880006 1948593648 1207795829 -1188750808 -1735239906 -1657245115 -1382246282 -800871241 1596929666
REM
CELL 1.54180   50.00000   50.00000   50.00000   90.00000   90.00000   90.00000
LATT -1
SFAC C  
C      1  0.4504480000000  0.5503850000000  0.5832610000000 1.0
C      1  0.4809900000000  0.5510880000000  0.4805350000000 1.0
C      1  0.4904600000000  0.5124240000000  0.5082260000000 1.0
C      1  0.4691960000000  0.5301850000000  0.4967110000000 1.0
C      1  0.4586000000000  0.4317100000000  0.4601310000000 1.0
C      1  0.4554660000000  0.5796990000000  0.5502470000000 1.0
C      1  0.5585690000000  0.4323900000000  0.5246800000000 1.0
C      1  0.4248520000000  0.4219440000000  0.4969490000000 1.0
C      1  0.4365830000000  0.5750000000000  0.5078710000000 1.0
C      1  0.5325650000000  0.4807620000000  0.5894140000000 1.0
C      1  0.5204100000000  0.5838870000000  0.4866140000000 1.0
C      1  0.4789960000000  0.4446840000000  0.5607470000000 1.0
C      1  0.5421020000000  0.4545900000000  0.4148360000000 1.0
C      1  0.3921080000000  0.4607190000000  0.5357420000000 1.0
C      1  0.5590460000000  0.5767950000000  0.4396730000000 1.0
C      1  0.5253350000000  0.4169150000000  0.4940060000000 1.0
C      1  0.5105620000000  0.5734460000000  0.4382000000000 1.0
C      1  0.3942780000000  0.5091830000000  0.5474620000000 1.0
C      1  0.4752100000000  0.4872630000000  0.4388980000000 1.0
C      1  0.4308800000000  0.5388830000000  0.4755330000000 1.0
C      1  0.5398550000000  0.5270190000000  0.5950820000000 1.0
C      1  0.4180230000000  0.4803860000000  0.4185310000000 1.0
C      1  0.4027860000000  0.4937850000000  0.5000670000000 1.0
C      1  0.5018630000000  0.5545180000000  0.5290510000000 1.0
C      1  0.4673840000000  0.6101840000000  0.5131290000000 1.0
C      1  0.4013200000000  0.5381390000000  0.4823920000000 1.0
C      1  0.4110470000000  0.5553350000000  0.5535470000000 1.0
C      1  0.5293680000000  0.4649240000000  0.4418320000000 1.0
C      1  0.5924870000000  0.5495580000000  0.5294310000000 1.0
C      1  0.5873260000000  0.5542510000000  0.4735490000000 1.0
C      1  0.5727620000000  0.5264710000000  0.4172490000000 1.0
C      1  0.4236600000000  0.4276990000000  0.5511810000000 1.0
C      1  0.5179390000000  0.6026730000000  0.5099350000000 1.0
C      1  0.5280560000000  0.5147780000000  0.5487610000000 1.0
C      1  0.5038540000000  0.5245250000000  0.5325790000000 1.0
C      1  0.4891810000000  0.4180090000000  0.4245710000000 1.0
C      1  0.4188300000000  0.4493940000000  0.5121680000000 1.0
C      1  0.4435730000000  0.5848650000000  0.4806170000000 1.0
C      1  0.4159650000000  0.4457190000000  0.4529910000000 1.0
C      1  0.4579750000000  0.5596080000000  0.4379230000000 1.0
C      1  0.4747770000000  0.5912000000000  0.5701860000000 1.0
C      1  0.4276870000000  0.4541030000000  0.4272740000000 1.0
C      1  0.4969640000000  0.5003430000000  0.4559550000000 1.0
C      1  0.4755220000000  0.4437310000000  0.4147470000000 1.0
C      1  0.4515390000000  0.4949850000000  0.6035590000000 1.0
C      1  0.4454610000000  0.5958960000000  0.5269370000000 1.0
C      1  0.5975330000000  0.4888930000000  0.5013250000000 1.0
C      1  0.5485050000000  0.4347460000000  0.4965010000000 1.0
C      1  0.3940900000000  0.5428280000000  0.5095630000000 1.0
C      1  0.5658000000000  0.4622470000000  0.5327030000000 1.0
C      1  0.5452250000000  0.5063650000000  0.4453490000000 1.0
C      1  0.4847580000000  0.5511320000000  0.4005200000000 1.0
C      1  0.5595230000000  0.5781820000000  0.5126000000000 1.0
C      1  0.4704360000000  0.5541230000000  0.5395620000000 1.0
C      1  0.5806330000000  0.5298920000000  0.4914840000000 1.0
C      1  0.5714110000000  0.5465100000000  0.5501240000000 1.0
C      1  0.4944020000000  0.4666930000000  0.5251700000000 1.0
C      1  0.4853590000000  0.4740130000000  0.4112110000000 1.0
C      1  0.5377310000000  0.5339680000000  0.4571140000000 1.0
C      1  0.5845950000000  0.4723910000000  0.5796520000000 1.0
C      1  0.5210640000000  0.5774730000000  0.5485520000000 1.0
C      1  0.4323640000000  0.5678500000000  0.5667890000000 1.0
C      1  0.5470010000000  0.5431190000000  0.4105820000000 1.0
C      1  0.4653980000000  0.5323940000000  0.5625460000000 1.0
C      1  0.4855710000000  0.5616730000000  0.4274860000000 1.0
C      1  0.5395550000000  0.4895830000000  0.5383130000000 1.0
C      1  0.4287700000000  0.4748400000000  0.5654230000000 1.0
C      1  0.5458310000000  0.4635780000000  0.4881560000000 1.0
C      1  0.4533370000000  0.5598980000000  0.4674430000000 1.0
C      1  0.5186030000000  0.4928070000000  0.4363520000000 1.0
C      1  0.5083310000000  0.5025230000000  0.4854900000000 1.0
C      1  0.5598900000000  0.4757930000000  0.5894290000000 1.0
C      1  0.4844280000000  0.6063410000000  0.4647390000000 1.0
C      1  0.5164330000000  0.4195830000000  0.4387400000000 1.0
C      1  0.5598390000000  0.4986340000000  0.4169120000000 1.0
C      1  0.5082430000000  0.5926240000000  0.4607880000000 1.0
C      1  0.4313840000000  0.5015570000000  0.5065070000000 1.0
C      1  0.4754250000000  0.5670330000000  0.5899860000000 1.0
C      1  0.5356740000000  0.4177770000000  0.5402380000000 1.0
C      1  0.4717750000000  0.4195700000000  0.5462020000000 1.0
C      1  0.5888470000000  0.4195720000000  0.4919830000000 1.0
C      1  0.4443820000000  0.4129920000000  0.5398780000000 1.0
C      1  0.4934360000000  0.6038730000000  0.5254260000000 1.0
C      1  0.5515010000000  0.5276300000000  0.5061320000000 1.0
C      1  0.4498550000000  0.5040570000000  0.4339210000000 1.0
C      1  0.5266060000000  0.5533140000000  0.5921430000000 1.0
C      1  0.4988860000000  0.5264890000000  0.3961920000000 1.0
C      1  0.5506770000000  0.4992870000000  0.5138520000000 1.0
C      1  0.5375100000000  0.5574410000000  0.4362470000000 1.0
C      1  0.4083630000000  0.4667950000000  0.4911370000000 1.0
C      1  0.4372130000000  0.4914050000000  0.3996560000000 1.0
C      1  0.5389030000000  0.5920210000000  0.5285320000000 1.0
C      1  0.5379130000000  0.3966940000000  0.4769500000000 1.0
C      1  0.4991800000000  0.5984150000000  0.5544470000000 1.0
C      1  0.5704480000000  0.4691840000000  0.4182320000000 1.0
C      1  0.4862340000000  0.4133380000000  0.5209520000000 1.0
C      1  0.4712890000000  0.4487570000000  0.5131410000000 1.0
C      1  0.4061830000000  0.5342440000000  0.5345880000000 1.0
C      1  0.5164840000000  0.4571320000000  0.5896880000000 1.0
C      1  0.5668840000000  0.4270290000000  0.4439950000000 1.0
C      1  0.5017340000000  0.4510060000000  0.4787740000000 1.0
C      1  0.4426020000000  0.5123870000000  0.4809880000000 1.0
C      1  0.4707830000000  0.3976720000000  0.5006190000000 1.0
C      1  0.5825430000000  0.5114760000000  0.4662140000000 1.0
C      1  0.6030700000000  0.4576600000000  0.5377040000000 1.0
C      1  0.5819430000000  0.4157220000000  0.5194450000000 1.0
C      1  0.5163110000000  0.3948050000000  0.4568470000000 1.0
C      1  0.4272080000000  0.4671810000000  0.4696110000000 1.0
C      1  0.4777310000000  0.5118390000000  0.3816930000000 1.0
C      1  0.5662840000000  0.5695590000000  0.5671640000000 1.0
C      1  0.3928500000000  0.5105090000000  0.4747140000000 1.0
C      1  0.4447430000000  0.4664130000000  0.5168840000000 1.0
C      1  0.5181170000000  0.4756340000000  0.4003420000000 1.0
C      1  0.4520870000000  0.5466470000000  0.5166380000000 1.0
C      1  0.5815530000000  0.5247870000000  0.5664360000000 1.0
C      1  0.4883240000000  0.3933540000000  0.4679430000000 1.0
C      1  0.4461000000000  0.5134660000000  0.5490820000000 1.0
C      1  0.6027600000000  0.4457710000000  0.4878110000000 1.0
C      1  0.4451420000000  0.4708160000000  0.5905240000000 1.0
C      1  0.4685870000000  0.4519460000000  0.5882910000000 1.0
C      1  0.5462770000000  0.5373810000000  0.5359080000000 1.0
C      1  0.4489590000000  0.4840960000000  0.5435970000000 1.0
C      1  0.4432190000000  0.4037300000000  0.5116030000000 1.0
C      1  0.5985620000000  0.4789700000000  0.5566390000000 1.0
C      1  0.5272270000000  0.5315170000000  0.4859950000000 1.0
C      1  0.5498140000000  0.5818580000000  0.4865740000000 1.0
C      1  0.4921710000000  0.4594430000000  0.6046490000000 1.0
C      1  0.4979090000000  0.5480520000000  0.5883380000000 1.0
C      1  0.5221090000000  0.5084470000000  0.5802250000000 1.0
C      1  0.5105490000000  0.4458410000000  0.4520840000000 1.0
C      1  0.5376820000000  0.4985870000000  0.3967610000000 1.0
C      1  0.4725050000000  0.4078190000000  0.4480550000000 1.0
C      1  0.4463550000000  0.5364570000000  0.4230750000000 1.0
C      1  0.5386180000000  0.5715140000000  0.5725130000000 1.0
C      1  0.5077070000000  0.5562120000000  0.4952330000000 1.0
C      1  0.4779380000000  0.4804810000000  0.5468060000000 1.0
C      1  0.4565630000000  0.4521770000000  0.4367940000000 1.0
C      1  0.4119530000000  0.4523080000000  0.5554110000000 1.0
C      1  0.6111420000000  0.4637520000000  0.5105940000000 1.0
C      1  0.6020180000000  0.4905930000000  0.4718220000000 1.0
C      1  0.5860770000000  0.5303150000000  0.4436370000000 1.0
C      1  0.4571060000000  0.5403690000000  0.3959950000000 1.0
C      1  0.4634650000000  0.6064110000000  0.4834800000000 1.0
C      1  0.5672050000000  0.4780120000000  0.5056220000000 1.0
C      1  0.4042370000000  0.5015990000000  0.4477680000000 1.0
C      1  0.4312630000000  0.4952300000000  0.4580300000000 1.0
C      1  0.5435460000000  0.4250030000000  0.4246770000000 1.0
C      1  0.4913170000000  0.5183440000000  0.5855160000000 1.0
C      1  0.4910800000000  0.4832360000000  0.6198800000000 1.0
C      1  0.5996280000000  0.4621270000000  0.4629360000000 1.0
C      1  0.4744330000000  0.4454670000000  0.4835760000000 1.0
C      1  0.4298610000000  0.4229380000000  0.4669980000000 1.0
C      1  0.5132210000000  0.4555310000000  0.5459260000000 1.0
C      1  0.5211800000000  0.4325390000000  0.5606460000000 1.0
C      1  0.5872960000000  0.5734610000000  0.5157730000000 1.0
C      1  0.4096960000000  0.4968530000000  0.5679630000000 1.0
C      1  0.3876560000000  0.4891130000000  0.5268000000000 1.0
C      1  0.5673440000000  0.5230170000000  0.5904020000000 1.0
C      1  0.5751210000000  0.4563890000000  0.4461120000000 1.0
C      1  0.4333150000000  0.5245980000000  0.5263940000000 1.0
C      1  0.6025620000000  0.5208130000000  0.5222410000000 1.0
C      1  0.4772820000000  0.5047770000000  0.6087220000000 1.0
C      1  0.5155790000000  0.4727860000000  0.4948960000000 1.0
C      1  0.4657910000000  0.4878950000000  0.3923240000000 1.0
C      1  0.5522280000000  0.4704190000000  0.4598870000000 1.0
C      1  0.5667090000000  0.5726850000000  0.4660190000000 1.0
C      1  0.5277370000000  0.5254560000000  0.3954600000000 1.0
C      1  0.5946530000000  0.5063680000000  0.5479810000000 1.0
C      1  0.5160030000000  0.4079970000000  0.5199280000000 1.0
C      1  0.5660930000000  0.4120170000000  0.4703820000000 1.0
END
