TITL C-950522-5749-539 1.77017177854388e-06 125000 -1248.76096552703 0 0 200 (C1) n - 1
REM
REM in /home/bkarasulu/work/CARBON/AIRSS/Generating-Clusters/EDIP-Nigel-Params/with-SteepDescent/Only-C1/SD-CG/HFTN-CG
REM
REM
REM
REM
REM
REM ./C.cell (11c1c37f851c82e70ff6c80c92926a4b)
REM
REM compiler GCC version 9.2.1 20190827 (Red Hat 9.2.1-1)
REM options -cpp -mtune=generic -march=x86-64 -g -O0 -fpre-include=/usr/include/finclude/math-vector-fortran.h
REM seed -1094698318 1132979553 1022745183 -1111970740 -915264137 -608577819 -1664754819 1415240835 -964958544 754404301 1909329153 -1704169341 -1157224864 96590238 -645565659 -713182832 -278062818 -925409604 -730227608 454860206 -2073211517 123698130 212125678 836438334 218099573 991873419 -1851269578 1564149006 -167168903 1779839378 -1908273686 292121359 -446842104
REM
CELL 1.54180   50.00000   50.00000   50.00000   90.00000   90.00000   90.00000
LATT -1
SFAC C  
C      1  0.4014950000000  0.4449620000000  0.5463720000000 1.0
C      1  0.4858550000000  0.5731170000000  0.4522550000000 1.0
C      1  0.4677120000000  0.5361950000000  0.5263530000000 1.0
C      1  0.6055760000000  0.5555890000000  0.5035250000000 1.0
C      1  0.3913980000000  0.5009560000000  0.4973770000000 1.0
C      1  0.4883670000000  0.5762720000000  0.6010880000000 1.0
C      1  0.4231240000000  0.4232010000000  0.5085050000000 1.0
C      1  0.4256940000000  0.5846340000000  0.5221020000000 1.0
C      1  0.5647020000000  0.5229210000000  0.4396110000000 1.0
C      1  0.5480510000000  0.4542570000000  0.4151990000000 1.0
C      1  0.4213750000000  0.4672090000000  0.5487010000000 1.0
C      1  0.6116540000000  0.4777090000000  0.4534820000000 1.0
C      1  0.4956520000000  0.6044430000000  0.4480080000000 1.0
C      1  0.4215450000000  0.5576000000000  0.5330760000000 1.0
C      1  0.5154230000000  0.5531020000000  0.5518970000000 1.0
C      1  0.5429470000000  0.4067450000000  0.5049100000000 1.0
C      1  0.4728600000000  0.4976700000000  0.6186490000000 1.0
C      1  0.4510660000000  0.5354270000000  0.5024770000000 1.0
C      1  0.6097450000000  0.4330750000000  0.4983630000000 1.0
C      1  0.4885460000000  0.5456830000000  0.5645880000000 1.0
C      1  0.4876540000000  0.6125580000000  0.5522260000000 1.0
C      1  0.4649000000000  0.5919500000000  0.4794010000000 1.0
C      1  0.5357550000000  0.5437360000000  0.3986470000000 1.0
C      1  0.4167420000000  0.5816940000000  0.4906840000000 1.0
C      1  0.5251180000000  0.4723190000000  0.5104800000000 1.0
C      1  0.5705140000000  0.4695470000000  0.4262060000000 1.0
C      1  0.4050130000000  0.5148550000000  0.5184300000000 1.0
C      1  0.5749880000000  0.5165610000000  0.4666720000000 1.0
C      1  0.5654410000000  0.4365140000000  0.5332830000000 1.0
C      1  0.3821980000000  0.4780800000000  0.4821810000000 1.0
C      1  0.5679600000000  0.4287470000000  0.4618990000000 1.0
C      1  0.4807180000000  0.4852790000000  0.4510330000000 1.0
C      1  0.4140220000000  0.4281740000000  0.5653490000000 1.0
C      1  0.4656700000000  0.3828410000000  0.4767540000000 1.0
C      1  0.4724790000000  0.5005880000000  0.5572920000000 1.0
C      1  0.4966070000000  0.5521310000000  0.4891110000000 1.0
C      1  0.4361020000000  0.5139600000000  0.5771110000000 1.0
C      1  0.4402030000000  0.4669400000000  0.5260900000000 1.0
C      1  0.6037410000000  0.5149120000000  0.4191640000000 1.0
C      1  0.4968540000000  0.4632770000000  0.4370440000000 1.0
C      1  0.5309070000000  0.5818300000000  0.4744270000000 1.0
C      1  0.4481230000000  0.4923090000000  0.5128170000000 1.0
C      1  0.4979940000000  0.5548850000000  0.6171790000000 1.0
C      1  0.5747770000000  0.5080290000000  0.5771830000000 1.0
C      1  0.5563780000000  0.5377700000000  0.5263730000000 1.0
C      1  0.4703660000000  0.5171520000000  0.4598440000000 1.0
C      1  0.4752430000000  0.4801740000000  0.5003940000000 1.0
C      1  0.5076930000000  0.5720020000000  0.5271540000000 1.0
C      1  0.4160400000000  0.5144740000000  0.4335870000000 1.0
C      1  0.4727820000000  0.5834620000000  0.4258220000000 1.0
C      1  0.5235430000000  0.5181240000000  0.4019630000000 1.0
C      1  0.4325420000000  0.4174770000000  0.4356370000000 1.0
C      1  0.4382030000000  0.5148200000000  0.4652650000000 1.0
C      1  0.5294890000000  0.5294280000000  0.5390630000000 1.0
C      1  0.4685150000000  0.5886660000000  0.5541990000000 1.0
C      1  0.5582900000000  0.5040010000000  0.4881650000000 1.0
C      1  0.5453290000000  0.4140790000000  0.5329370000000 1.0
C      1  0.5156290000000  0.4675980000000  0.4813580000000 1.0
C      1  0.4654380000000  0.4312790000000  0.4684110000000 1.0
C      1  0.5157910000000  0.3862710000000  0.4678310000000 1.0
C      1  0.5750380000000  0.5683740000000  0.4645690000000 1.0
C      1  0.5551290000000  0.4965810000000  0.4275370000000 1.0
C      1  0.5128280000000  0.5070630000000  0.5815220000000 1.0
C      1  0.5238380000000  0.4169500000000  0.4014220000000 1.0
C      1  0.5427420000000  0.4971770000000  0.3999460000000 1.0
C      1  0.5512530000000  0.5603950000000  0.5077440000000 1.0
C      1  0.5562750000000  0.4579610000000  0.4662040000000 1.0
C      1  0.4845350000000  0.4245730000000  0.4907120000000 1.0
C      1  0.4540640000000  0.4940060000000  0.4061130000000 1.0
C      1  0.4979990000000  0.6177840000000  0.4993330000000 1.0
C      1  0.4998060000000  0.4327090000000  0.5908810000000 1.0
C      1  0.4885540000000  0.3804390000000  0.4585680000000 1.0
C      1  0.4888620000000  0.4486110000000  0.5356750000000 1.0
C      1  0.6002460000000  0.5118690000000  0.5182960000000 1.0
C      1  0.5442730000000  0.4262030000000  0.4173760000000 1.0
C      1  0.4723450000000  0.4277640000000  0.5185790000000 1.0
C      1  0.5127630000000  0.5302500000000  0.6192400000000 1.0
C      1  0.4227030000000  0.4663260000000  0.4442070000000 1.0
C      1  0.4367770000000  0.5883030000000  0.4690700000000 1.0
C      1  0.4825700000000  0.3883630000000  0.4325470000000 1.0
C      1  0.4294990000000  0.5474570000000  0.5587910000000 1.0
C      1  0.5292700000000  0.5133850000000  0.4819880000000 1.0
C      1  0.5660310000000  0.4914330000000  0.5374650000000 1.0
C      1  0.4948540000000  0.4606880000000  0.5972740000000 1.0
C      1  0.5134370000000  0.5310200000000  0.5033430000000 1.0
C      1  0.4914600000000  0.5196110000000  0.5190810000000 1.0
C      1  0.5512860000000  0.4133720000000  0.4421980000000 1.0
C      1  0.5352760000000  0.5358140000000  0.4617060000000 1.0
C      1  0.4684000000000  0.4719540000000  0.6021150000000 1.0
C      1  0.4714700000000  0.3825490000000  0.5058950000000 1.0
C      1  0.4285380000000  0.4955850000000  0.4871390000000 1.0
C      1  0.4428400000000  0.5328660000000  0.5988890000000 1.0
C      1  0.4984110000000  0.3998290000000  0.5410400000000 1.0
C      1  0.5369390000000  0.3908270000000  0.4502120000000 1.0
C      1  0.5059700000000  0.5394720000000  0.4477380000000 1.0
C      1  0.5834050000000  0.4283960000000  0.5086000000000 1.0
C      1  0.4718260000000  0.5673460000000  0.5772630000000 1.0
C      1  0.4415870000000  0.6027800000000  0.5452750000000 1.0
C      1  0.5395300000000  0.5882320000000  0.4209280000000 1.0
C      1  0.4822390000000  0.5335560000000  0.4031110000000 1.0
C      1  0.4433750000000  0.4702240000000  0.3966680000000 1.0
C      1  0.4836080000000  0.6245360000000  0.5241100000000 1.0
C      1  0.4433180000000  0.4650360000000  0.5864380000000 1.0
C      1  0.5207390000000  0.3905530000000  0.4959530000000 1.0
C      1  0.5215100000000  0.5007420000000  0.5535030000000 1.0
C      1  0.4614670000000  0.5890470000000  0.5088830000000 1.0
C      1  0.4702260000000  0.5236900000000  0.6040320000000 1.0
C      1  0.5128310000000  0.6096190000000  0.5685500000000 1.0
C      1  0.4996820000000  0.4701780000000  0.4057110000000 1.0
C      1  0.5666560000000  0.4149980000000  0.4894240000000 1.0
C      1  0.5435790000000  0.6043260000000  0.4614380000000 1.0
C      1  0.3818560000000  0.4850310000000  0.4550040000000 1.0
C      1  0.4830130000000  0.5009550000000  0.4020990000000 1.0
C      1  0.5093170000000  0.4500000000000  0.5577790000000 1.0
C      1  0.5686530000000  0.5128310000000  0.5153190000000 1.0
C      1  0.4925980000000  0.4899930000000  0.4779360000000 1.0
C      1  0.4213450000000  0.5390310000000  0.5100640000000 1.0
C      1  0.5731590000000  0.5354240000000  0.5718820000000 1.0
C      1  0.5870160000000  0.4636900000000  0.5672700000000 1.0
C      1  0.5298080000000  0.4704700000000  0.3985880000000 1.0
C      1  0.4561720000000  0.3950240000000  0.5278520000000 1.0
C      1  0.4113790000000  0.4383010000000  0.4401930000000 1.0
C      1  0.5437200000000  0.4707270000000  0.5936250000000 1.0
C      1  0.6206600000000  0.4805800000000  0.4822230000000 1.0
C      1  0.4090550000000  0.5528270000000  0.4865150000000 1.0
C      1  0.5273690000000  0.4665220000000  0.4525040000000 1.0
C      1  0.5428660000000  0.6078470000000  0.5247420000000 1.0
C      1  0.4954290000000  0.4977560000000  0.5383040000000 1.0
C      1  0.5799820000000  0.4381550000000  0.5580320000000 1.0
C      1  0.5737790000000  0.5778340000000  0.5449650000000 1.0
C      1  0.5248240000000  0.5685920000000  0.4058210000000 1.0
C      1  0.4008860000000  0.4545430000000  0.4865380000000 1.0
C      1  0.5481920000000  0.4663000000000  0.5306680000000 1.0
C      1  0.6031830000000  0.5235760000000  0.4691350000000 1.0
C      1  0.5676060000000  0.4811280000000  0.5806970000000 1.0
C      1  0.4081330000000  0.5032860000000  0.5446530000000 1.0
C      1  0.5784200000000  0.5481740000000  0.5445670000000 1.0
C      1  0.4710290000000  0.4004220000000  0.5524190000000 1.0
C      1  0.4265360000000  0.4676010000000  0.4746830000000 1.0
C      1  0.4519980000000  0.4541260000000  0.4836990000000 1.0
C      1  0.5028130000000  0.5014390000000  0.6242680000000 1.0
C      1  0.4507350000000  0.5646160000000  0.4268880000000 1.0
C      1  0.4682610000000  0.5438220000000  0.4785680000000 1.0
C      1  0.5229480000000  0.4207510000000  0.5787290000000 1.0
C      1  0.4982430000000  0.3894870000000  0.5141380000000 1.0
C      1  0.4960610000000  0.4732510000000  0.5216070000000 1.0
C      1  0.4840050000000  0.4361770000000  0.4439460000000 1.0
C      1  0.4437790000000  0.4090880000000  0.4634610000000 1.0
C      1  0.6145900000000  0.5082670000000  0.4919560000000 1.0
C      1  0.5892490000000  0.4572020000000  0.4456820000000 1.0
C      1  0.4002490000000  0.4899460000000  0.5692180000000 1.0
C      1  0.4236760000000  0.4879840000000  0.5871650000000 1.0
C      1  0.5366450000000  0.5281490000000  0.6033760000000 1.0
C      1  0.4965420000000  0.4208320000000  0.3984420000000 1.0
C      1  0.5308320000000  0.4952980000000  0.4457210000000 1.0
C      1  0.4213250000000  0.5419940000000  0.4608710000000 1.0
C      1  0.4033460000000  0.4876080000000  0.4369620000000 1.0
C      1  0.6132470000000  0.4603770000000  0.5023200000000 1.0
C      1  0.5254970000000  0.6079500000000  0.4388280000000 1.0
C      1  0.6125460000000  0.5071420000000  0.4446460000000 1.0
C      1  0.4429390000000  0.5623280000000  0.4552600000000 1.0
C      1  0.6030480000000  0.5406160000000  0.5274050000000 1.0
C      1  0.5668770000000  0.5920100000000  0.4480910000000 1.0
C      1  0.3991710000000  0.4359560000000  0.5186890000000 1.0
C      1  0.5950290000000  0.4831860000000  0.5461680000000 1.0
C      1  0.5159920000000  0.4819360000000  0.6011020000000 1.0
C      1  0.5059130000000  0.5815650000000  0.4900060000000 1.0
C      1  0.5221760000000  0.5957050000000  0.5413740000000 1.0
C      1  0.4601760000000  0.4194580000000  0.5706470000000 1.0
C      1  0.4386780000000  0.4370890000000  0.5760490000000 1.0
C      1  0.5603700000000  0.5857430000000  0.5203050000000 1.0
C      1  0.6016600000000  0.5548070000000  0.4751800000000 1.0
C      1  0.4433360000000  0.5573200000000  0.5825230000000 1.0
C      1  0.4528660000000  0.4233930000000  0.4148320000000 1.0
C      1  0.5875950000000  0.4720690000000  0.5104490000000 1.0
C      1  0.5510210000000  0.5467850000000  0.5873450000000 1.0
C      1  0.5090280000000  0.5112180000000  0.4299530000000 1.0
C      1  0.4508810000000  0.5134460000000  0.5410130000000 1.0
C      1  0.5491160000000  0.5597570000000  0.4779180000000 1.0
C      1  0.5850190000000  0.5341440000000  0.4224620000000 1.0
C      1  0.4550770000000  0.6172600000000  0.5212040000000 1.0
C      1  0.5640620000000  0.4747100000000  0.4898840000000 1.0
C      1  0.4564410000000  0.4456530000000  0.3948400000000 1.0
C      1  0.4377060000000  0.5163960000000  0.4136900000000 1.0
C      1  0.4561400000000  0.5386380000000  0.4146600000000 1.0
C      1  0.4769010000000  0.5709600000000  0.5295190000000 1.0
C      1  0.4833910000000  0.6155900000000  0.4741640000000 1.0
C      1  0.4850060000000  0.5192480000000  0.5775640000000 1.0
C      1  0.4462110000000  0.4423520000000  0.5106770000000 1.0
C      1  0.5015400000000  0.5526700000000  0.4183340000000 1.0
C      1  0.3994320000000  0.4311870000000  0.4670840000000 1.0
C      1  0.4190910000000  0.4129670000000  0.4808820000000 1.0
C      1  0.4799850000000  0.4154050000000  0.4226180000000 1.0
C      1  0.5235060000000  0.4091610000000  0.5521570000000 1.0
C      1  0.5320090000000  0.4709850000000  0.5569030000000 1.0
C      1  0.5556380000000  0.5850160000000  0.5649020000000 1.0
C      1  0.5351540000000  0.5670520000000  0.5728980000000 1.0
C      1  0.5057020000000  0.4414780000000  0.4853270000000 1.0
C      1  0.4860350000000  0.4474760000000  0.3898800000000 1.0
C      1  0.5071160000000  0.5950640000000  0.5919690000000 1.0
END
