TITL C-951336-9012-759 -1.31554230465075e-06 125000 -563.19606404103 0 0 91 (C1) n - 1
REM
REM in /home/bkarasulu/work/CARBON/AIRSS/Generating-Clusters/EDIP-Nigel-Params/with-SteepDescent/Only-C1/SD-CG/HFTN-CG
REM
REM
REM
REM
REM
REM ./C.cell (11c1c37f851c82e70ff6c80c92926a4b)
REM
REM compiler GCC version 9.2.1 20190827 (Red Hat 9.2.1-1)
REM options -cpp -mtune=generic -march=x86-64 -g -O0 -fpre-include=/usr/include/finclude/math-vector-fortran.h
REM seed -392709347 -557574652 -255893839 -652179863 158579565 -416554534 1216094435 -1224297696 -1345984799 445538221 311172032 505245508 -1643749271 -1351017193 -1223367084 143149178 461766110 -83955406 480852708 -1486026942 1398281683 -528027568 -1514953560 1855333086 1396923321 -1805768911 -1633058213 -1837083431 -1904499258 -997087691 -921878362 1562948888 -1640438175
REM
CELL 1.54180   50.00000   50.00000   50.00000   90.00000   90.00000   90.00000
LATT -1
SFAC C  
C      1  0.4534210000000  0.4268570000000  0.5334000000000 1.0
C      1  0.5281160000000  0.5339720000000  0.5344990000000 1.0
C      1  0.4873540000000  0.5584600000000  0.5141700000000 1.0
C      1  0.5752750000000  0.5192260000000  0.4550250000000 1.0
C      1  0.4394660000000  0.4529380000000  0.5260230000000 1.0
C      1  0.5007120000000  0.4908900000000  0.5440100000000 1.0
C      1  0.5156490000000  0.4416020000000  0.4595530000000 1.0
C      1  0.4594490000000  0.4838730000000  0.4804440000000 1.0
C      1  0.5931410000000  0.4783070000000  0.5339320000000 1.0
C      1  0.5494870000000  0.4392270000000  0.5455350000000 1.0
C      1  0.5412920000000  0.5120090000000  0.4980820000000 1.0
C      1  0.4616710000000  0.4464710000000  0.4566510000000 1.0
C      1  0.5099250000000  0.4960890000000  0.5864740000000 1.0
C      1  0.4816530000000  0.4184110000000  0.5337870000000 1.0
C      1  0.4516990000000  0.5498230000000  0.4554670000000 1.0
C      1  0.5683060000000  0.4809900000000  0.5623950000000 1.0
C      1  0.5054660000000  0.5161420000000  0.5268870000000 1.0
C      1  0.4653090000000  0.5704810000000  0.4729450000000 1.0
C      1  0.4770130000000  0.4719660000000  0.5002860000000 1.0
C      1  0.4637510000000  0.4652190000000  0.4130500000000 1.0
C      1  0.4619230000000  0.5687160000000  0.5025990000000 1.0
C      1  0.5221070000000  0.5439880000000  0.4385380000000 1.0
C      1  0.5199580000000  0.4686900000000  0.5773620000000 1.0
C      1  0.4535010000000  0.5359460000000  0.5609400000000 1.0
C      1  0.4810040000000  0.4988410000000  0.5815940000000 1.0
C      1  0.5608850000000  0.4718020000000  0.4654430000000 1.0
C      1  0.5085420000000  0.4269850000000  0.5074790000000 1.0
C      1  0.4956100000000  0.5065710000000  0.4103840000000 1.0
C      1  0.5603700000000  0.4451190000000  0.5184880000000 1.0
C      1  0.4097680000000  0.5171600000000  0.5077540000000 1.0
C      1  0.4626810000000  0.5144100000000  0.4850370000000 1.0
C      1  0.5344750000000  0.5608110000000  0.4587180000000 1.0
C      1  0.5015220000000  0.4300670000000  0.5508770000000 1.0
C      1  0.5043000000000  0.4460450000000  0.4330030000000 1.0
C      1  0.5048150000000  0.4759390000000  0.4929950000000 1.0
C      1  0.5793130000000  0.4747420000000  0.4865260000000 1.0
C      1  0.4783370000000  0.5261070000000  0.5704570000000 1.0
C      1  0.5050150000000  0.5765330000000  0.5306320000000 1.0
C      1  0.5631130000000  0.5556810000000  0.4608610000000 1.0
C      1  0.4684860000000  0.4432280000000  0.5020940000000 1.0
C      1  0.5278030000000  0.4217510000000  0.5468650000000 1.0
C      1  0.5432910000000  0.4475920000000  0.4691540000000 1.0
C      1  0.5282990000000  0.4774180000000  0.5334480000000 1.0
C      1  0.5221380000000  0.5219720000000  0.5863850000000 1.0
C      1  0.4509480000000  0.4746670000000  0.5429150000000 1.0
C      1  0.5498910000000  0.4940430000000  0.5199600000000 1.0
C      1  0.5186430000000  0.4577660000000  0.5113880000000 1.0
C      1  0.4896530000000  0.5829760000000  0.4655360000000 1.0
C      1  0.5042830000000  0.5408750000000  0.5743150000000 1.0
C      1  0.4815540000000  0.5329550000000  0.5270460000000 1.0
C      1  0.4670050000000  0.5393080000000  0.4329250000000 1.0
C      1  0.4328710000000  0.4847190000000  0.4451320000000 1.0
C      1  0.5003090000000  0.4241520000000  0.4779890000000 1.0
C      1  0.5419340000000  0.5032110000000  0.4256850000000 1.0
C      1  0.5934080000000  0.4694980000000  0.5601690000000 1.0
C      1  0.5242510000000  0.5869530000000  0.5083880000000 1.0
C      1  0.4404690000000  0.5502290000000  0.5143810000000 1.0
C      1  0.4734490000000  0.4731970000000  0.5663580000000 1.0
C      1  0.5175230000000  0.4901070000000  0.4179720000000 1.0
C      1  0.4385790000000  0.5286540000000  0.4719970000000 1.0
C      1  0.5175100000000  0.4625070000000  0.4150210000000 1.0
C      1  0.5115510000000  0.5049220000000  0.4960360000000 1.0
C      1  0.5145250000000  0.5746670000000  0.4779710000000 1.0
C      1  0.4330420000000  0.5384450000000  0.5417230000000 1.0
C      1  0.5363020000000  0.5426040000000  0.5071350000000 1.0
C      1  0.4223700000000  0.5401020000000  0.4941170000000 1.0
C      1  0.4751700000000  0.4471290000000  0.4312220000000 1.0
C      1  0.4999490000000  0.5274080000000  0.4476650000000 1.0
C      1  0.4711690000000  0.4285360000000  0.4768350000000 1.0
C      1  0.5062520000000  0.5494740000000  0.4926470000000 1.0
C      1  0.5399750000000  0.5308990000000  0.4210520000000 1.0
C      1  0.5575280000000  0.4968930000000  0.4496510000000 1.0
C      1  0.5434070000000  0.5699550000000  0.5613130000000 1.0
C      1  0.5446390000000  0.4334570000000  0.4958700000000 1.0
C      1  0.5583280000000  0.5746190000000  0.5390400000000 1.0
C      1  0.4707530000000  0.4882470000000  0.5251950000000 1.0
C      1  0.4967440000000  0.4537490000000  0.5672310000000 1.0
C      1  0.5191790000000  0.5568870000000  0.5514460000000 1.0
C      1  0.4156140000000  0.5167690000000  0.5359290000000 1.0
C      1  0.4530360000000  0.4889760000000  0.4238490000000 1.0
C      1  0.4694490000000  0.5129040000000  0.4196480000000 1.0
C      1  0.4602750000000  0.5165310000000  0.5155590000000 1.0
C      1  0.5430880000000  0.4657460000000  0.5574070000000 1.0
C      1  0.4349270000000  0.4592220000000  0.4614670000000 1.0
C      1  0.4206210000000  0.5062100000000  0.4614180000000 1.0
C      1  0.4940820000000  0.5244890000000  0.4773590000000 1.0
C      1  0.5713460000000  0.4732560000000  0.5143510000000 1.0
C      1  0.5768290000000  0.5370550000000  0.4762010000000 1.0
C      1  0.4313820000000  0.4707030000000  0.4923540000000 1.0
C      1  0.4115930000000  0.4940840000000  0.4881790000000 1.0
C      1  0.5491840000000  0.5711790000000  0.5127070000000 1.0
END
