TITL C-951334-9093-288 -4.54277867151987e-06 125000 -1044.19762896242 0 0 166 (C1) n - 1
REM
REM in /home/bkarasulu/work/CARBON/AIRSS/Generating-Clusters/EDIP-Nigel-Params/with-SteepDescent/Only-C1/SD-CG/HFTN-CG
REM
REM
REM
REM
REM
REM ./C.cell (11c1c37f851c82e70ff6c80c92926a4b)
REM
REM compiler GCC version 9.2.1 20190827 (Red Hat 9.2.1-1)
REM options -cpp -mtune=generic -march=x86-64 -g -O0 -fpre-include=/usr/include/finclude/math-vector-fortran.h
REM seed 1067402248 92098051 -581367536 -1759789968 456488599 -1792739022 656881810 -239078768 1770947568 -964503116 2134436191 1338889559 -1785062621 1077389833 391260017 -222870362 1035155876 -968508755 -963834522 272362599 1928180563 1868930727 -182150479 129651350 -1534322028 -850715042 -741316759 719521136 137729169 -2090680620 533814711 -1537255199 131964724
REM
CELL 1.54180   50.00000   50.00000   50.00000   90.00000   90.00000   90.00000
LATT -1
SFAC C  
C      1  0.5044180000000  0.4334630000000  0.5547690000000 1.0
C      1  0.4870150000000  0.4627420000000  0.4754040000000 1.0
C      1  0.5152790000000  0.4605980000000  0.5561400000000 1.0
C      1  0.5057110000000  0.4819610000000  0.3938250000000 1.0
C      1  0.4483040000000  0.4874120000000  0.4539260000000 1.0
C      1  0.5206720000000  0.5834680000000  0.4611410000000 1.0
C      1  0.4447410000000  0.5194230000000  0.4594150000000 1.0
C      1  0.4446090000000  0.5687910000000  0.4339650000000 1.0
C      1  0.5696780000000  0.4319380000000  0.5623390000000 1.0
C      1  0.5117650000000  0.5549270000000  0.4485780000000 1.0
C      1  0.5280380000000  0.5029730000000  0.4631690000000 1.0
C      1  0.4555550000000  0.4300140000000  0.5234510000000 1.0
C      1  0.5903140000000  0.5047870000000  0.4999320000000 1.0
C      1  0.5211590000000  0.4643710000000  0.5843850000000 1.0
C      1  0.4171350000000  0.4878300000000  0.5855440000000 1.0
C      1  0.4705330000000  0.4069120000000  0.5692800000000 1.0
C      1  0.5293290000000  0.4387120000000  0.4955070000000 1.0
C      1  0.4363810000000  0.5847000000000  0.4566610000000 1.0
C      1  0.5520670000000  0.5185580000000  0.5423260000000 1.0
C      1  0.5286050000000  0.4964390000000  0.5070600000000 1.0
C      1  0.5819840000000  0.4573290000000  0.5713720000000 1.0
C      1  0.5173270000000  0.5309950000000  0.4695480000000 1.0
C      1  0.6021160000000  0.5251090000000  0.5499690000000 1.0
C      1  0.5106990000000  0.5046340000000  0.5334480000000 1.0
C      1  0.4428330000000  0.5346580000000  0.5121450000000 1.0
C      1  0.4366730000000  0.5048970000000  0.4037650000000 1.0
C      1  0.4446540000000  0.4786940000000  0.5041100000000 1.0
C      1  0.4797920000000  0.5519510000000  0.4870320000000 1.0
C      1  0.4455030000000  0.4225270000000  0.4553800000000 1.0
C      1  0.5579870000000  0.4924830000000  0.6004610000000 1.0
C      1  0.4871610000000  0.4737810000000  0.6011050000000 1.0
C      1  0.5143830000000  0.4185000000000  0.4306670000000 1.0
C      1  0.5347770000000  0.5896350000000  0.5224850000000 1.0
C      1  0.4514000000000  0.4203630000000  0.5532040000000 1.0
C      1  0.4614670000000  0.6017670000000  0.4576160000000 1.0
C      1  0.5288580000000  0.5704800000000  0.5697730000000 1.0
C      1  0.4819860000000  0.4432740000000  0.5183200000000 1.0
C      1  0.4853520000000  0.5059160000000  0.4297670000000 1.0
C      1  0.5084690000000  0.5965160000000  0.4342820000000 1.0
C      1  0.4873530000000  0.4282480000000  0.5776260000000 1.0
C      1  0.4083360000000  0.4535290000000  0.5071150000000 1.0
C      1  0.5719230000000  0.4805320000000  0.4431380000000 1.0
C      1  0.4799460000000  0.5555800000000  0.4394090000000 1.0
C      1  0.4706330000000  0.4949190000000  0.5663420000000 1.0
C      1  0.4284290000000  0.5684590000000  0.4830180000000 1.0
C      1  0.4096750000000  0.5479950000000  0.5442690000000 1.0
C      1  0.4405250000000  0.5032560000000  0.5887290000000 1.0
C      1  0.5016180000000  0.5371600000000  0.5612390000000 1.0
C      1  0.4810110000000  0.5247100000000  0.5788440000000 1.0
C      1  0.4153370000000  0.5210470000000  0.5044950000000 1.0
C      1  0.4101850000000  0.4321240000000  0.4896580000000 1.0
C      1  0.4953590000000  0.4836700000000  0.4971720000000 1.0
C      1  0.5282910000000  0.5174870000000  0.5644070000000 1.0
C      1  0.5462300000000  0.4775530000000  0.4624940000000 1.0
C      1  0.5357210000000  0.4122280000000  0.4817770000000 1.0
C      1  0.4945920000000  0.4380700000000  0.4921510000000 1.0
C      1  0.4730610000000  0.4540980000000  0.5832000000000 1.0
C      1  0.5670500000000  0.4314390000000  0.4454640000000 1.0
C      1  0.5471480000000  0.5659390000000  0.4811720000000 1.0
C      1  0.4866680000000  0.4246270000000  0.4381170000000 1.0
C      1  0.4116770000000  0.4798770000000  0.5591200000000 1.0
C      1  0.5799670000000  0.5754920000000  0.5169120000000 1.0
C      1  0.5208470000000  0.4156900000000  0.5378010000000 1.0
C      1  0.5461070000000  0.5073130000000  0.4110120000000 1.0
C      1  0.5858750000000  0.4356760000000  0.5155130000000 1.0
C      1  0.4206020000000  0.5262750000000  0.4415080000000 1.0
C      1  0.4466030000000  0.4445610000000  0.5699100000000 1.0
C      1  0.4836340000000  0.4715220000000  0.5216120000000 1.0
C      1  0.5701850000000  0.5663410000000  0.5415800000000 1.0
C      1  0.4358260000000  0.5581170000000  0.5322190000000 1.0
C      1  0.4350130000000  0.5810280000000  0.5110780000000 1.0
C      1  0.6055940000000  0.4795540000000  0.5292950000000 1.0
C      1  0.5344610000000  0.5325680000000  0.4019610000000 1.0
C      1  0.4729800000000  0.5270990000000  0.4480430000000 1.0
C      1  0.4879350000000  0.5262850000000  0.4747120000000 1.0
C      1  0.5695190000000  0.5037660000000  0.4257150000000 1.0
C      1  0.4776200000000  0.5059810000000  0.4940490000000 1.0
C      1  0.5696100000000  0.5256370000000  0.4979660000000 1.0
C      1  0.5063040000000  0.4937280000000  0.4459640000000 1.0
C      1  0.5698030000000  0.4544510000000  0.4266410000000 1.0
C      1  0.5891970000000  0.4644670000000  0.5078280000000 1.0
C      1  0.5016490000000  0.4652760000000  0.4464910000000 1.0
C      1  0.4218040000000  0.4770300000000  0.4438850000000 1.0
C      1  0.4132560000000  0.4838380000000  0.4958620000000 1.0
C      1  0.5741160000000  0.5387360000000  0.5521310000000 1.0
C      1  0.5912980000000  0.5317540000000  0.4596260000000 1.0
C      1  0.4931490000000  0.5083600000000  0.3991670000000 1.0
C      1  0.4747740000000  0.5956610000000  0.4821690000000 1.0
C      1  0.5478530000000  0.4747520000000  0.5173740000000 1.0
C      1  0.5676770000000  0.4642020000000  0.5969720000000 1.0
C      1  0.5438600000000  0.4464980000000  0.5954470000000 1.0
C      1  0.4467420000000  0.5337530000000  0.4044320000000 1.0
C      1  0.5870890000000  0.4815020000000  0.5537750000000 1.0
C      1  0.4494480000000  0.5456870000000  0.4854820000000 1.0
C      1  0.5102360000000  0.3963430000000  0.4913460000000 1.0
C      1  0.4047940000000  0.5220790000000  0.5319500000000 1.0
C      1  0.4582390000000  0.5443060000000  0.5778920000000 1.0
C      1  0.5022110000000  0.5545240000000  0.5082730000000 1.0
C      1  0.4118590000000  0.5421500000000  0.5715760000000 1.0
C      1  0.4681110000000  0.4410150000000  0.4218590000000 1.0
C      1  0.5439350000000  0.5241350000000  0.5112170000000 1.0
C      1  0.4562610000000  0.5623830000000  0.5547680000000 1.0
C      1  0.4333630000000  0.4184290000000  0.4816950000000 1.0
C      1  0.4574940000000  0.4705960000000  0.4769170000000 1.0
C      1  0.4160170000000  0.5009740000000  0.4246570000000 1.0
C      1  0.5346260000000  0.4826410000000  0.4007950000000 1.0
C      1  0.5808760000000  0.4355860000000  0.4712780000000 1.0
C      1  0.6019660000000  0.5083620000000  0.4726920000000 1.0
C      1  0.5707060000000  0.5438140000000  0.4754530000000 1.0
C      1  0.5007490000000  0.5747240000000  0.5708690000000 1.0
C      1  0.5334240000000  0.5563870000000  0.4178750000000 1.0
C      1  0.5495390000000  0.4618500000000  0.4886400000000 1.0
C      1  0.4542790000000  0.4098650000000  0.5010910000000 1.0
C      1  0.3865080000000  0.5051380000000  0.4637160000000 1.0
C      1  0.5641210000000  0.5378730000000  0.5806110000000 1.0
C      1  0.5278000000000  0.5445670000000  0.4944420000000 1.0
C      1  0.5054000000000  0.4966970000000  0.6088520000000 1.0
C      1  0.5976000000000  0.5040560000000  0.5711240000000 1.0
C      1  0.5390450000000  0.5517990000000  0.5895570000000 1.0
C      1  0.3970570000000  0.5309670000000  0.4597070000000 1.0
C      1  0.4031310000000  0.4827650000000  0.4673370000000 1.0
C      1  0.4341620000000  0.5312430000000  0.5847080000000 1.0
C      1  0.4845400000000  0.5735150000000  0.4049640000000 1.0
C      1  0.5409740000000  0.4567190000000  0.4150220000000 1.0
C      1  0.5304950000000  0.4566170000000  0.4465500000000 1.0
C      1  0.5509710000000  0.4227160000000  0.5815190000000 1.0
C      1  0.4926370000000  0.5321370000000  0.5309680000000 1.0
C      1  0.5969220000000  0.4597420000000  0.4789450000000 1.0
C      1  0.4316440000000  0.4608200000000  0.5504260000000 1.0
C      1  0.5613870000000  0.4899500000000  0.5408450000000 1.0
C      1  0.5145260000000  0.5783440000000  0.4110830000000 1.0
C      1  0.4790030000000  0.5990890000000  0.4339940000000 1.0
C      1  0.5038540000000  0.5956910000000  0.4835960000000 1.0
C      1  0.4293500000000  0.5478880000000  0.4228520000000 1.0
C      1  0.5384830000000  0.4188900000000  0.4511050000000 1.0
C      1  0.5640080000000  0.4259600000000  0.5327990000000 1.0
C      1  0.4820240000000  0.4100120000000  0.4850670000000 1.0
C      1  0.5771180000000  0.5136020000000  0.5915170000000 1.0
C      1  0.4347870000000  0.4536650000000  0.5216150000000 1.0
C      1  0.5720470000000  0.4190010000000  0.4945680000000 1.0
C      1  0.5189000000000  0.5408200000000  0.6062200000000 1.0
C      1  0.5180250000000  0.4372170000000  0.4085960000000 1.0
C      1  0.4954290000000  0.4817260000000  0.5461200000000 1.0
C      1  0.5969190000000  0.4822250000000  0.4597260000000 1.0
C      1  0.4722110000000  0.4104040000000  0.4570400000000 1.0
C      1  0.4813470000000  0.5747220000000  0.5499020000000 1.0
C      1  0.4659520000000  0.4843460000000  0.4298070000000 1.0
C      1  0.4414510000000  0.4449970000000  0.4358590000000 1.0
C      1  0.4839130000000  0.5930300000000  0.5280760000000 1.0
C      1  0.6101180000000  0.5098530000000  0.5240550000000 1.0
C      1  0.5074140000000  0.5850750000000  0.5114560000000 1.0
C      1  0.4960030000000  0.5240250000000  0.6052870000000 1.0
C      1  0.5122710000000  0.3964230000000  0.5192620000000 1.0
C      1  0.4538640000000  0.4822990000000  0.4039620000000 1.0
C      1  0.4943450000000  0.4572840000000  0.4093850000000 1.0
C      1  0.4717840000000  0.5475380000000  0.3989100000000 1.0
C      1  0.4239930000000  0.5060430000000  0.5501050000000 1.0
C      1  0.4051900000000  0.5437960000000  0.4849160000000 1.0
C      1  0.4612340000000  0.5957060000000  0.5084580000000 1.0
C      1  0.5296100000000  0.4947550000000  0.5891190000000 1.0
C      1  0.5564630000000  0.5842090000000  0.5033490000000 1.0
C      1  0.5429010000000  0.5736360000000  0.5447620000000 1.0
C      1  0.5371810000000  0.4381140000000  0.5257100000000 1.0
C      1  0.4662130000000  0.5174190000000  0.5196890000000 1.0
C      1  0.4528710000000  0.4975620000000  0.5384410000000 1.0
C      1  0.5102180000000  0.5284740000000  0.3891060000000 1.0
END
