TITL C-950533-5798-327 7.16985997757933e-07 125000 -1072.0962720916 0 0 171 (C1) n - 1
REM
REM in /home/bkarasulu/work/CARBON/AIRSS/Generating-Clusters/EDIP-Nigel-Params/with-SteepDescent/Only-C1/SD-CG/HFTN-CG
REM
REM
REM
REM
REM
REM ./C.cell (11c1c37f851c82e70ff6c80c92926a4b)
REM
REM compiler GCC version 9.2.1 20190827 (Red Hat 9.2.1-1)
REM options -cpp -mtune=generic -march=x86-64 -g -O0 -fpre-include=/usr/include/finclude/math-vector-fortran.h
REM seed -1646236230 -249609623 -843328537 -782809429 -1552898588 -1195649725 1286350225 -1083763187 1538724808 1615475592 771516834 -893734555 34103044 122757640 -98639349 1494015093 1668451720 -657220473 -1526292397 1619727198 2112012492 463920242 1715911910 -1840872756 -1102134018 1473327608 -9730016 -156733412 1266586191 -1568533441 -331640073 1486667528 12914132
REM
CELL 1.54180   50.00000   50.00000   50.00000   90.00000   90.00000   90.00000
LATT -1
SFAC C  
C      1  0.4694620000000  0.4297740000000  0.4111040000000 1.0
C      1  0.4906530000000  0.4499410000000  0.4502700000000 1.0
C      1  0.4712170000000  0.4711870000000  0.4571170000000 1.0
C      1  0.5204930000000  0.4858570000000  0.5242350000000 1.0
C      1  0.5282040000000  0.5316850000000  0.5364840000000 1.0
C      1  0.4085660000000  0.4803370000000  0.4420930000000 1.0
C      1  0.5891400000000  0.4702600000000  0.4257160000000 1.0
C      1  0.6093780000000  0.5469160000000  0.5065700000000 1.0
C      1  0.5039380000000  0.5036970000000  0.4541810000000 1.0
C      1  0.4355500000000  0.4957140000000  0.4647780000000 1.0
C      1  0.4641490000000  0.5136870000000  0.4225690000000 1.0
C      1  0.4600040000000  0.5159940000000  0.4540030000000 1.0
C      1  0.5535780000000  0.5693420000000  0.4380590000000 1.0
C      1  0.5624740000000  0.5732600000000  0.5543080000000 1.0
C      1  0.4694730000000  0.5365100000000  0.5118940000000 1.0
C      1  0.5825890000000  0.4388370000000  0.5476200000000 1.0
C      1  0.5677260000000  0.4473630000000  0.4670090000000 1.0
C      1  0.4872730000000  0.5376820000000  0.5928770000000 1.0
C      1  0.4717190000000  0.4841700000000  0.4151700000000 1.0
C      1  0.4066050000000  0.5084340000000  0.4350820000000 1.0
C      1  0.5211880000000  0.4670770000000  0.4774720000000 1.0
C      1  0.4269390000000  0.5210920000000  0.4174400000000 1.0
C      1  0.5049360000000  0.4435070000000  0.4775930000000 1.0
C      1  0.6099070000000  0.5009430000000  0.4947640000000 1.0
C      1  0.6159820000000  0.4568080000000  0.4818520000000 1.0
C      1  0.4381050000000  0.4421610000000  0.4497810000000 1.0
C      1  0.4030020000000  0.5251100000000  0.4598440000000 1.0
C      1  0.5432510000000  0.4493810000000  0.4140490000000 1.0
C      1  0.5915290000000  0.4871950000000  0.4506430000000 1.0
C      1  0.4345860000000  0.5456270000000  0.4309210000000 1.0
C      1  0.4219610000000  0.5466300000000  0.4564350000000 1.0
C      1  0.3940980000000  0.5273490000000  0.5132430000000 1.0
C      1  0.5613510000000  0.4440580000000  0.5681220000000 1.0
C      1  0.5107790000000  0.5134730000000  0.5204970000000 1.0
C      1  0.4746040000000  0.5650290000000  0.5974660000000 1.0
C      1  0.4922420000000  0.4893660000000  0.5651950000000 1.0
C      1  0.4539110000000  0.4093190000000  0.4783190000000 1.0
C      1  0.4793280000000  0.4970660000000  0.4642090000000 1.0
C      1  0.5758380000000  0.5368730000000  0.5548710000000 1.0
C      1  0.5706610000000  0.4958620000000  0.5710680000000 1.0
C      1  0.4812200000000  0.5373250000000  0.5633440000000 1.0
C      1  0.4598890000000  0.4526120000000  0.3966950000000 1.0
C      1  0.5036720000000  0.5337330000000  0.4472440000000 1.0
C      1  0.4989440000000  0.4280450000000  0.4126160000000 1.0
C      1  0.5136600000000  0.5868210000000  0.5656640000000 1.0
C      1  0.4305430000000  0.5036540000000  0.4926710000000 1.0
C      1  0.5438160000000  0.5927530000000  0.4527750000000 1.0
C      1  0.5354090000000  0.5553180000000  0.4184420000000 1.0
C      1  0.4465570000000  0.5555490000000  0.5913360000000 1.0
C      1  0.5657080000000  0.4782480000000  0.4647850000000 1.0
C      1  0.5903720000000  0.4881590000000  0.5253090000000 1.0
C      1  0.4645670000000  0.5648790000000  0.3979520000000 1.0
C      1  0.4404100000000  0.5330760000000  0.5016120000000 1.0
C      1  0.5578110000000  0.5283470000000  0.5317620000000 1.0
C      1  0.5755310000000  0.4314190000000  0.4451570000000 1.0
C      1  0.5977290000000  0.5562270000000  0.5293190000000 1.0
C      1  0.4689310000000  0.5879930000000  0.5279140000000 1.0
C      1  0.5168170000000  0.5380120000000  0.6018850000000 1.0
C      1  0.5608540000000  0.4727900000000  0.4184780000000 1.0
C      1  0.4415930000000  0.4153770000000  0.5623530000000 1.0
C      1  0.5285470000000  0.6040070000000  0.5188860000000 1.0
C      1  0.5379410000000  0.5435980000000  0.5827720000000 1.0
C      1  0.5038440000000  0.4093830000000  0.4342740000000 1.0
C      1  0.5471440000000  0.4052450000000  0.5447300000000 1.0
C      1  0.5533190000000  0.5613580000000  0.5032750000000 1.0
C      1  0.4427190000000  0.4306360000000  0.5196210000000 1.0
C      1  0.5184620000000  0.4995000000000  0.5806990000000 1.0
C      1  0.6057280000000  0.5282500000000  0.4867390000000 1.0
C      1  0.5470540000000  0.4861050000000  0.4414690000000 1.0
C      1  0.5059750000000  0.4366190000000  0.6001450000000 1.0
C      1  0.4413290000000  0.5522640000000  0.4774480000000 1.0
C      1  0.5826470000000  0.4570600000000  0.5217990000000 1.0
C      1  0.5867350000000  0.4003750000000  0.5150060000000 1.0
C      1  0.3904830000000  0.5208820000000  0.4855040000000 1.0
C      1  0.4906680000000  0.5442190000000  0.4908910000000 1.0
C      1  0.5064870000000  0.5697450000000  0.4934540000000 1.0
C      1  0.5525610000000  0.5159710000000  0.4375800000000 1.0
C      1  0.4708550000000  0.5829430000000  0.4428240000000 1.0
C      1  0.5186620000000  0.4784560000000  0.4494380000000 1.0
C      1  0.5361480000000  0.5335370000000  0.4568270000000 1.0
C      1  0.5138300000000  0.4544330000000  0.4150730000000 1.0
C      1  0.5556700000000  0.4711140000000  0.5777210000000 1.0
C      1  0.5546160000000  0.4316140000000  0.4881660000000 1.0
C      1  0.5045470000000  0.6157580000000  0.5027870000000 1.0
C      1  0.4188590000000  0.4323050000000  0.5671700000000 1.0
C      1  0.5722960000000  0.5592490000000  0.4592250000000 1.0
C      1  0.4556840000000  0.4521980000000  0.5384300000000 1.0
C      1  0.4517820000000  0.4053740000000  0.5339460000000 1.0
C      1  0.5370810000000  0.4756440000000  0.5010400000000 1.0
C      1  0.4446820000000  0.5279090000000  0.6006440000000 1.0
C      1  0.4642570000000  0.4354100000000  0.5649160000000 1.0
C      1  0.4083920000000  0.4318560000000  0.4866850000000 1.0
C      1  0.5832070000000  0.5158390000000  0.4437970000000 1.0
C      1  0.5871020000000  0.5343760000000  0.4649460000000 1.0
C      1  0.5015090000000  0.4816860000000  0.4086430000000 1.0
C      1  0.5131090000000  0.5101270000000  0.4057740000000 1.0
C      1  0.4923650000000  0.5288870000000  0.4170790000000 1.0
C      1  0.5103140000000  0.5701330000000  0.4116780000000 1.0
C      1  0.5753440000000  0.4109200000000  0.5386140000000 1.0
C      1  0.5289390000000  0.3929210000000  0.5274330000000 1.0
C      1  0.5270130000000  0.5740260000000  0.5131160000000 1.0
C      1  0.4456980000000  0.5871870000000  0.5479490000000 1.0
C      1  0.4984090000000  0.5876280000000  0.4329800000000 1.0
C      1  0.4899330000000  0.5531630000000  0.3995480000000 1.0
C      1  0.5197720000000  0.5110890000000  0.6075140000000 1.0
C      1  0.5725090000000  0.5698710000000  0.5268350000000 1.0
C      1  0.4870270000000  0.6129830000000  0.5295450000000 1.0
C      1  0.5719570000000  0.4098330000000  0.4945670000000 1.0
C      1  0.5034190000000  0.3942070000000  0.5155520000000 1.0
C      1  0.4435120000000  0.5603500000000  0.5616470000000 1.0
C      1  0.4768750000000  0.4795790000000  0.5920430000000 1.0
C      1  0.4323680000000  0.5781810000000  0.4895540000000 1.0
C      1  0.5123320000000  0.5230920000000  0.4929710000000 1.0
C      1  0.3998160000000  0.5059190000000  0.5358730000000 1.0
C      1  0.4199010000000  0.5172700000000  0.5552190000000 1.0
C      1  0.4142250000000  0.5747900000000  0.5121840000000 1.0
C      1  0.5139680000000  0.6094360000000  0.5454590000000 1.0
C      1  0.4264990000000  0.4192770000000  0.4659890000000 1.0
C      1  0.5291050000000  0.4130900000000  0.4471070000000 1.0
C      1  0.5405160000000  0.5289950000000  0.4861230000000 1.0
C      1  0.5175860000000  0.5595650000000  0.5375740000000 1.0
C      1  0.4722770000000  0.5890220000000  0.4727290000000 1.0
C      1  0.5028790000000  0.4640690000000  0.6019700000000 1.0
C      1  0.4051940000000  0.4596950000000  0.4842730000000 1.0
C      1  0.4570480000000  0.5894590000000  0.4976510000000 1.0
C      1  0.5619290000000  0.5245840000000  0.5785900000000 1.0
C      1  0.4573660000000  0.4357900000000  0.4931570000000 1.0
C      1  0.5549030000000  0.4998530000000  0.4914700000000 1.0
C      1  0.4382430000000  0.4675330000000  0.4067740000000 1.0
C      1  0.5278500000000  0.4728930000000  0.5867780000000 1.0
C      1  0.4220740000000  0.5917130000000  0.5332520000000 1.0
C      1  0.5154160000000  0.5980980000000  0.4544710000000 1.0
C      1  0.4146050000000  0.4265960000000  0.5136300000000 1.0
C      1  0.4800660000000  0.4613350000000  0.5239630000000 1.0
C      1  0.4559870000000  0.4566380000000  0.5870480000000 1.0
C      1  0.5249210000000  0.4194610000000  0.4762000000000 1.0
C      1  0.5033810000000  0.3994550000000  0.4853140000000 1.0
C      1  0.4550980000000  0.5655330000000  0.4241940000000 1.0
C      1  0.5390730000000  0.4245620000000  0.5642800000000 1.0
C      1  0.4276180000000  0.4586870000000  0.5747130000000 1.0
C      1  0.4745500000000  0.5453470000000  0.4646040000000 1.0
C      1  0.4226710000000  0.4587730000000  0.4291390000000 1.0
C      1  0.4892800000000  0.4189220000000  0.5596030000000 1.0
C      1  0.4470030000000  0.4618550000000  0.4713120000000 1.0
C      1  0.4104000000000  0.4778770000000  0.5297890000000 1.0
C      1  0.4739380000000  0.5107480000000  0.5530090000000 1.0
C      1  0.4174920000000  0.5458510000000  0.5192460000000 1.0
C      1  0.4226400000000  0.5450160000000  0.5486410000000 1.0
C      1  0.4187260000000  0.4777310000000  0.5016980000000 1.0
C      1  0.5010930000000  0.4712570000000  0.5409230000000 1.0
C      1  0.5398720000000  0.5710580000000  0.5725370000000 1.0
C      1  0.4690820000000  0.5119880000000  0.6028470000000 1.0
C      1  0.5644780000000  0.5768920000000  0.4805180000000 1.0
C      1  0.4446330000000  0.5009740000000  0.5553290000000 1.0
C      1  0.6124240000000  0.4828060000000  0.4726570000000 1.0
C      1  0.4998190000000  0.5948860000000  0.4804840000000 1.0
C      1  0.5669800000000  0.5042170000000  0.5177210000000 1.0
C      1  0.4849920000000  0.4436220000000  0.5008410000000 1.0
C      1  0.5547200000000  0.4527510000000  0.5092640000000 1.0
C      1  0.4822130000000  0.4028480000000  0.5355840000000 1.0
C      1  0.4344870000000  0.4732610000000  0.5489550000000 1.0
C      1  0.4799380000000  0.4018080000000  0.4638720000000 1.0
C      1  0.4814170000000  0.5142940000000  0.5253880000000 1.0
C      1  0.4853750000000  0.5812000000000  0.5753540000000 1.0
C      1  0.5400720000000  0.5254020000000  0.4111290000000 1.0
C      1  0.5930150000000  0.4935050000000  0.5537230000000 1.0
C      1  0.5510610000000  0.4267740000000  0.4315720000000 1.0
C      1  0.4659510000000  0.4302660000000  0.4414780000000 1.0
C      1  0.4867530000000  0.5608760000000  0.5433050000000 1.0
C      1  0.5124540000000  0.4225410000000  0.5767870000000 1.0
C      1  0.6027860000000  0.4473380000000  0.5035010000000 1.0
END
