TITL C-951341-1326-31 9.69514955798427e-07 125000 -719.608924160471 0 0 115 (C1) n - 1
REM
REM in /home/bkarasulu/work/CARBON/AIRSS/Generating-Clusters/EDIP-Nigel-Params/with-SteepDescent/Only-C1/SD-CG/HFTN-CG
REM
REM
REM
REM
REM
REM ./C.cell (11c1c37f851c82e70ff6c80c92926a4b)
REM
REM compiler GCC version 9.2.1 20190827 (Red Hat 9.2.1-1)
REM options -cpp -mtune=generic -march=x86-64 -g -O0 -fpre-include=/usr/include/finclude/math-vector-fortran.h
REM seed 1718489093 1704299585 -519745237 656435247 -1621713120 546352405 -1149889875 1186682958 -1729127622 24485994 1305727819 1240457923 1852435101 -1063348560 -44520084 -1743590649 -1346600506 -1563047131 1729185505 -1872193234 -693665536 -1062660572 1509248300 -566639476 2008907759 -1199503397 -626152311 1626575232 488685374 -63066283 1514937236 -482924699 -807755431
REM
CELL 1.54180   50.00000   50.00000   50.00000   90.00000   90.00000   90.00000
LATT -1
SFAC C  
C      1  0.5895990000000  0.5145130000000  0.4602730000000 1.0
C      1  0.5102300000000  0.4190120000000  0.4424590000000 1.0
C      1  0.4772000000000  0.4665000000000  0.5197560000000 1.0
C      1  0.5576780000000  0.4397250000000  0.5083450000000 1.0
C      1  0.5046480000000  0.5191860000000  0.5018680000000 1.0
C      1  0.5482540000000  0.5361020000000  0.5762440000000 1.0
C      1  0.4417790000000  0.5608300000000  0.5215800000000 1.0
C      1  0.5820970000000  0.5543390000000  0.4862080000000 1.0
C      1  0.4395590000000  0.4309780000000  0.5448400000000 1.0
C      1  0.5237420000000  0.4454460000000  0.4753040000000 1.0
C      1  0.5337480000000  0.4813750000000  0.5032240000000 1.0
C      1  0.4519030000000  0.5039540000000  0.5388220000000 1.0
C      1  0.4530390000000  0.4724910000000  0.5391690000000 1.0
C      1  0.5233220000000  0.5191740000000  0.5717430000000 1.0
C      1  0.5202310000000  0.5487580000000  0.4284220000000 1.0
C      1  0.4737010000000  0.5923630000000  0.4768760000000 1.0
C      1  0.5473180000000  0.4739580000000  0.5761190000000 1.0
C      1  0.4811420000000  0.3974910000000  0.5247070000000 1.0
C      1  0.4420480000000  0.5466200000000  0.4720030000000 1.0
C      1  0.5182470000000  0.5822070000000  0.4683770000000 1.0
C      1  0.4312480000000  0.4988110000000  0.4660260000000 1.0
C      1  0.4579980000000  0.5800570000000  0.5337010000000 1.0
C      1  0.4199450000000  0.5278640000000  0.4680600000000 1.0
C      1  0.4678810000000  0.5369640000000  0.4265980000000 1.0
C      1  0.4430450000000  0.4257320000000  0.5152010000000 1.0
C      1  0.4824880000000  0.4871160000000  0.5729080000000 1.0
C      1  0.4754820000000  0.5099970000000  0.5920910000000 1.0
C      1  0.4244180000000  0.4386020000000  0.4960490000000 1.0
C      1  0.5436340000000  0.5370780000000  0.4148820000000 1.0
C      1  0.4660930000000  0.4720110000000  0.4934750000000 1.0
C      1  0.4102060000000  0.4723910000000  0.5316100000000 1.0
C      1  0.4314900000000  0.4938930000000  0.5705390000000 1.0
C      1  0.4559880000000  0.5561210000000  0.4468430000000 1.0
C      1  0.4996030000000  0.5039090000000  0.5279110000000 1.0
C      1  0.5277570000000  0.4928980000000  0.5862170000000 1.0
C      1  0.5379320000000  0.5085370000000  0.4068060000000 1.0
C      1  0.5701620000000  0.4544370000000  0.5328420000000 1.0
C      1  0.4765910000000  0.5478110000000  0.5633990000000 1.0
C      1  0.5945590000000  0.5286700000000  0.4848050000000 1.0
C      1  0.5177570000000  0.4925090000000  0.4210910000000 1.0
C      1  0.5714250000000  0.5201300000000  0.5720040000000 1.0
C      1  0.5277390000000  0.5100670000000  0.4604880000000 1.0
C      1  0.4866600000000  0.4262140000000  0.5603280000000 1.0
C      1  0.5731090000000  0.5304110000000  0.4396740000000 1.0
C      1  0.5880820000000  0.4774360000000  0.5242240000000 1.0
C      1  0.4792030000000  0.5739220000000  0.5507640000000 1.0
C      1  0.5079680000000  0.4178130000000  0.4736290000000 1.0
C      1  0.5434230000000  0.4903810000000  0.5304910000000 1.0
C      1  0.4048470000000  0.5295930000000  0.4934930000000 1.0
C      1  0.4936690000000  0.5455500000000  0.4183000000000 1.0
C      1  0.4299010000000  0.4361090000000  0.4686440000000 1.0
C      1  0.5294420000000  0.4519750000000  0.5038130000000 1.0
C      1  0.4207400000000  0.4522880000000  0.5488300000000 1.0
C      1  0.5015140000000  0.4636370000000  0.4629350000000 1.0
C      1  0.4591160000000  0.4669450000000  0.5690450000000 1.0
C      1  0.5354020000000  0.5624350000000  0.5063990000000 1.0
C      1  0.4103020000000  0.4821960000000  0.4804140000000 1.0
C      1  0.5045200000000  0.5801260000000  0.5390340000000 1.0
C      1  0.5667510000000  0.5057040000000  0.4189150000000 1.0
C      1  0.5496590000000  0.4598630000000  0.4360960000000 1.0
C      1  0.4997580000000  0.5917540000000  0.4885990000000 1.0
C      1  0.4483980000000  0.5145070000000  0.5081020000000 1.0
C      1  0.5482690000000  0.4393660000000  0.4575650000000 1.0
C      1  0.5611250000000  0.5176900000000  0.4984630000000 1.0
C      1  0.5489810000000  0.4969400000000  0.4799820000000 1.0
C      1  0.5622920000000  0.5574750000000  0.4649710000000 1.0
C      1  0.4184550000000  0.5089670000000  0.5076810000000 1.0
C      1  0.5054480000000  0.5710210000000  0.5101350000000 1.0
C      1  0.4087260000000  0.5231760000000  0.5323530000000 1.0
C      1  0.4881550000000  0.4928620000000  0.4179920000000 1.0
C      1  0.4696430000000  0.5087110000000  0.4367080000000 1.0
C      1  0.4948200000000  0.5509980000000  0.4679270000000 1.0
C      1  0.4773360000000  0.5739920000000  0.4550930000000 1.0
C      1  0.4487970000000  0.5391970000000  0.5652450000000 1.0
C      1  0.4957040000000  0.4192870000000  0.5352080000000 1.0
C      1  0.4801800000000  0.5064980000000  0.5482850000000 1.0
C      1  0.5021460000000  0.4503730000000  0.4345490000000 1.0
C      1  0.5650540000000  0.5488930000000  0.5358910000000 1.0
C      1  0.5422500000000  0.5725720000000  0.4794010000000 1.0
C      1  0.4846350000000  0.4282910000000  0.4902040000000 1.0
C      1  0.4787510000000  0.4646910000000  0.4200120000000 1.0
C      1  0.5468940000000  0.4667480000000  0.5483030000000 1.0
C      1  0.4789590000000  0.5112870000000  0.4661110000000 1.0
C      1  0.4531920000000  0.4448050000000  0.4555480000000 1.0
C      1  0.4100400000000  0.4973520000000  0.5489580000000 1.0
C      1  0.5705510000000  0.5026800000000  0.5247660000000 1.0
C      1  0.5083640000000  0.4739650000000  0.5784690000000 1.0
C      1  0.4463630000000  0.5166120000000  0.5835550000000 1.0
C      1  0.4305920000000  0.5424060000000  0.5417650000000 1.0
C      1  0.5890150000000  0.4649860000000  0.4776280000000 1.0
C      1  0.5250210000000  0.4645580000000  0.4224570000000 1.0
C      1  0.4883060000000  0.5458680000000  0.4981690000000 1.0
C      1  0.5711020000000  0.4411920000000  0.4801840000000 1.0
C      1  0.4150680000000  0.4652940000000  0.5030410000000 1.0
C      1  0.4515540000000  0.4638890000000  0.4325920000000 1.0
C      1  0.5391770000000  0.4152410000000  0.4425320000000 1.0
C      1  0.4552270000000  0.5438280000000  0.5005280000000 1.0
C      1  0.5737290000000  0.5640640000000  0.5126840000000 1.0
C      1  0.5752400000000  0.4882570000000  0.4641400000000 1.0
C      1  0.4572800000000  0.4987210000000  0.4838160000000 1.0
C      1  0.5227640000000  0.5400910000000  0.4567680000000 1.0
C      1  0.5772530000000  0.5240820000000  0.5446930000000 1.0
C      1  0.5043590000000  0.4981530000000  0.4742660000000 1.0
C      1  0.5247490000000  0.5120290000000  0.5405320000000 1.0
C      1  0.5498270000000  0.5594520000000  0.5584110000000 1.0
C      1  0.4752350000000  0.4524810000000  0.4744070000000 1.0
C      1  0.4653050000000  0.4092800000000  0.5044800000000 1.0
C      1  0.4973310000000  0.4421290000000  0.5153380000000 1.0
C      1  0.5683420000000  0.4814640000000  0.4367980000000 1.0
C      1  0.6023780000000  0.4714670000000  0.5011260000000 1.0
C      1  0.4946560000000  0.5318730000000  0.5813980000000 1.0
C      1  0.5265370000000  0.5741670000000  0.5549120000000 1.0
C      1  0.4433260000000  0.4927710000000  0.4385000000000 1.0
C      1  0.5347980000000  0.5318310000000  0.5082380000000 1.0
C      1  0.4613060000000  0.4364910000000  0.5656100000000 1.0
END
