TITL C-950536-5891-475 3.76509827329284e-06 125000 -1204.78687553924 0 0 194 (C1) n - 1
REM
REM in /home/bkarasulu/work/CARBON/AIRSS/Generating-Clusters/EDIP-Nigel-Params/with-SteepDescent/Only-C1/SD-CG/HFTN-CG
REM
REM
REM
REM
REM
REM ./C.cell (11c1c37f851c82e70ff6c80c92926a4b)
REM
REM compiler GCC version 9.2.1 20190827 (Red Hat 9.2.1-1)
REM options -cpp -mtune=generic -march=x86-64 -g -O0 -fpre-include=/usr/include/finclude/math-vector-fortran.h
REM seed 524720418 -355021386 -1701497753 -1323335119 -117585157 547722931 -1837907306 -1901919023 -281330842 -1334761968 601979099 1769278496 948097682 -1291589844 -1994973621 1350457149 624021359 435496991 -284859259 -1410568023 -1511146875 -1926613415 -964024975 -2047988990 587438433 -121061223 1108426117 -1179299639 -1574230179 -48108921 1026990484 20650337 2120036050
REM
CELL 1.54180   50.00000   50.00000   50.00000   90.00000   90.00000   90.00000
LATT -1
SFAC C  
C      1  0.5531190000000  0.5502640000000  0.5919400000000 1.0
C      1  0.5215680000000  0.4832620000000  0.6010930000000 1.0
C      1  0.4846700000000  0.5406050000000  0.5466110000000 1.0
C      1  0.6038160000000  0.5495490000000  0.4947380000000 1.0
C      1  0.5132100000000  0.4601510000000  0.5478630000000 1.0
C      1  0.4642970000000  0.4681580000000  0.5600300000000 1.0
C      1  0.5652820000000  0.5503890000000  0.4127510000000 1.0
C      1  0.4857080000000  0.4984480000000  0.3823840000000 1.0
C      1  0.5162120000000  0.4029630000000  0.4459120000000 1.0
C      1  0.5135990000000  0.3853070000000  0.4968580000000 1.0
C      1  0.4541020000000  0.4604110000000  0.3972940000000 1.0
C      1  0.5789530000000  0.5393010000000  0.4350370000000 1.0
C      1  0.3952340000000  0.4337570000000  0.4677700000000 1.0
C      1  0.4988150000000  0.4356190000000  0.5264450000000 1.0
C      1  0.4720710000000  0.4312640000000  0.4541760000000 1.0
C      1  0.4338660000000  0.4648830000000  0.4713040000000 1.0
C      1  0.5260870000000  0.5509620000000  0.4646940000000 1.0
C      1  0.4765260000000  0.4954560000000  0.5681010000000 1.0
C      1  0.5339190000000  0.6042820000000  0.4819410000000 1.0
C      1  0.4476280000000  0.4485450000000  0.4511540000000 1.0
C      1  0.5128400000000  0.4442140000000  0.5767000000000 1.0
C      1  0.5441900000000  0.4590460000000  0.5444840000000 1.0
C      1  0.4641530000000  0.5279920000000  0.4390590000000 1.0
C      1  0.5998530000000  0.5062040000000  0.4613370000000 1.0
C      1  0.5846090000000  0.5103060000000  0.4367680000000 1.0
C      1  0.6058380000000  0.4817710000000  0.5015150000000 1.0
C      1  0.4331190000000  0.4519930000000  0.4169810000000 1.0
C      1  0.5143760000000  0.6117930000000  0.5290070000000 1.0
C      1  0.6034000000000  0.5730460000000  0.4777850000000 1.0
C      1  0.5002130000000  0.5671730000000  0.4331940000000 1.0
C      1  0.5495500000000  0.5509000000000  0.5090490000000 1.0
C      1  0.6068000000000  0.5290810000000  0.5339050000000 1.0
C      1  0.4984410000000  0.4316880000000  0.4097670000000 1.0
C      1  0.4080840000000  0.4093120000000  0.5106910000000 1.0
C      1  0.5934350000000  0.4812570000000  0.5591140000000 1.0
C      1  0.5656890000000  0.5760140000000  0.5156690000000 1.0
C      1  0.6009300000000  0.4796630000000  0.4721960000000 1.0
C      1  0.5116350000000  0.5369310000000  0.5351660000000 1.0
C      1  0.5743950000000  0.5521460000000  0.4623330000000 1.0
C      1  0.4436930000000  0.5643660000000  0.5595510000000 1.0
C      1  0.4847710000000  0.4106760000000  0.5623770000000 1.0
C      1  0.4989720000000  0.5116800000000  0.4697030000000 1.0
C      1  0.5903860000000  0.4562770000000  0.5429200000000 1.0
C      1  0.4310660000000  0.4935760000000  0.4256810000000 1.0
C      1  0.5047810000000  0.5429260000000  0.3924610000000 1.0
C      1  0.5503740000000  0.5880480000000  0.5398220000000 1.0
C      1  0.5251250000000  0.6030300000000  0.4554850000000 1.0
C      1  0.5669140000000  0.5015240000000  0.5911870000000 1.0
C      1  0.4818300000000  0.4716130000000  0.4673240000000 1.0
C      1  0.4752540000000  0.4747800000000  0.5118100000000 1.0
C      1  0.4662400000000  0.4321040000000  0.5753440000000 1.0
C      1  0.4277420000000  0.5617930000000  0.5137280000000 1.0
C      1  0.4786660000000  0.4230750000000  0.4829860000000 1.0
C      1  0.5805430000000  0.5475390000000  0.5967490000000 1.0
C      1  0.4120960000000  0.4123040000000  0.4625060000000 1.0
C      1  0.5506150000000  0.5087890000000  0.5234960000000 1.0
C      1  0.5611250000000  0.5936390000000  0.4898870000000 1.0
C      1  0.4426590000000  0.4942980000000  0.4729090000000 1.0
C      1  0.4845050000000  0.4099540000000  0.5332550000000 1.0
C      1  0.5240460000000  0.4941820000000  0.4726580000000 1.0
C      1  0.4702710000000  0.4042580000000  0.4402430000000 1.0
C      1  0.5348070000000  0.5407210000000  0.4356430000000 1.0
C      1  0.6142810000000  0.5077490000000  0.5141260000000 1.0
C      1  0.4122520000000  0.5009550000000  0.5865300000000 1.0
C      1  0.4015880000000  0.4008640000000  0.4855030000000 1.0
C      1  0.5597020000000  0.4951960000000  0.3970980000000 1.0
C      1  0.4285440000000  0.4907170000000  0.5344460000000 1.0
C      1  0.4396100000000  0.5326280000000  0.5092360000000 1.0
C      1  0.4958180000000  0.5257240000000  0.4953720000000 1.0
C      1  0.5486200000000  0.5115430000000  0.4756320000000 1.0
C      1  0.4171050000000  0.4765510000000  0.5744910000000 1.0
C      1  0.4416820000000  0.5885620000000  0.5146030000000 1.0
C      1  0.4671120000000  0.6113990000000  0.5477630000000 1.0
C      1  0.4834330000000  0.6056780000000  0.4923310000000 1.0
C      1  0.5251420000000  0.4415640000000  0.4045620000000 1.0
C      1  0.5333690000000  0.5331000000000  0.6066150000000 1.0
C      1  0.4590510000000  0.4892670000000  0.3917740000000 1.0
C      1  0.5964320000000  0.5550440000000  0.5220850000000 1.0
C      1  0.4091900000000  0.5042700000000  0.4438310000000 1.0
C      1  0.5713430000000  0.4596490000000  0.4308130000000 1.0
C      1  0.5237540000000  0.5177330000000  0.5662600000000 1.0
C      1  0.5654310000000  0.5046360000000  0.4975500000000 1.0
C      1  0.5262340000000  0.4727520000000  0.4498650000000 1.0
C      1  0.4028180000000  0.4571600000000  0.5255220000000 1.0
C      1  0.4094850000000  0.5524810000000  0.4486960000000 1.0
C      1  0.4701380000000  0.4917530000000  0.4866890000000 1.0
C      1  0.4359310000000  0.5661180000000  0.4421440000000 1.0
C      1  0.5343200000000  0.5089530000000  0.4266070000000 1.0
C      1  0.5534910000000  0.4551960000000  0.4708130000000 1.0
C      1  0.4042140000000  0.4619720000000  0.4709680000000 1.0
C      1  0.5491350000000  0.5009420000000  0.5673260000000 1.0
C      1  0.4584750000000  0.5579560000000  0.5853040000000 1.0
C      1  0.4879750000000  0.5256890000000  0.3793860000000 1.0
C      1  0.5442900000000  0.5451400000000  0.5638430000000 1.0
C      1  0.4454860000000  0.5335740000000  0.5965350000000 1.0
C      1  0.5408330000000  0.6140680000000  0.5378100000000 1.0
C      1  0.5211090000000  0.5566450000000  0.5144380000000 1.0
C      1  0.4532770000000  0.5800180000000  0.4612250000000 1.0
C      1  0.4151670000000  0.4295810000000  0.5278700000000 1.0
C      1  0.4397480000000  0.4435090000000  0.5247940000000 1.0
C      1  0.5053430000000  0.4816970000000  0.5221700000000 1.0
C      1  0.3849100000000  0.5540210000000  0.5209820000000 1.0
C      1  0.5333930000000  0.4084360000000  0.5469710000000 1.0
C      1  0.5616460000000  0.4537230000000  0.5790690000000 1.0
C      1  0.5605040000000  0.4132930000000  0.5517020000000 1.0
C      1  0.4734790000000  0.5626670000000  0.4892780000000 1.0
C      1  0.3946930000000  0.5088580000000  0.5304820000000 1.0
C      1  0.4968400000000  0.3883940000000  0.5194270000000 1.0
C      1  0.4046310000000  0.5421010000000  0.4772090000000 1.0
C      1  0.4561510000000  0.4800470000000  0.6048040000000 1.0
C      1  0.4704490000000  0.5832900000000  0.5115620000000 1.0
C      1  0.4487090000000  0.5477800000000  0.4223790000000 1.0
C      1  0.6015140000000  0.4567010000000  0.5157190000000 1.0
C      1  0.5831450000000  0.4573420000000  0.4603280000000 1.0
C      1  0.4700450000000  0.5670260000000  0.5415640000000 1.0
C      1  0.5502450000000  0.5416270000000  0.4781850000000 1.0
C      1  0.5491350000000  0.4425040000000  0.5182470000000 1.0
C      1  0.4894460000000  0.5568160000000  0.5820250000000 1.0
C      1  0.4662190000000  0.5346630000000  0.4970010000000 1.0
C      1  0.5781070000000  0.5837120000000  0.4676980000000 1.0
C      1  0.5355740000000  0.5060850000000  0.3883450000000 1.0
C      1  0.5143830000000  0.4152770000000  0.5684090000000 1.0
C      1  0.5134220000000  0.4882340000000  0.3852740000000 1.0
C      1  0.3957740000000  0.5359350000000  0.5401710000000 1.0
C      1  0.5031360000000  0.3889720000000  0.4694210000000 1.0
C      1  0.5114730000000  0.6088570000000  0.5004310000000 1.0
C      1  0.5881220000000  0.5178450000000  0.5543190000000 1.0
C      1  0.5319190000000  0.5705450000000  0.5550220000000 1.0
C      1  0.4360450000000  0.5085460000000  0.3911450000000 1.0
C      1  0.5036040000000  0.4839520000000  0.4278450000000 1.0
C      1  0.4868430000000  0.4455640000000  0.5906980000000 1.0
C      1  0.4929170000000  0.5308180000000  0.4436020000000 1.0
C      1  0.5460990000000  0.4416820000000  0.4259490000000 1.0
C      1  0.5036300000000  0.5154900000000  0.4191740000000 1.0
C      1  0.5345310000000  0.4558320000000  0.5935230000000 1.0
C      1  0.5190450000000  0.5102870000000  0.5234740000000 1.0
C      1  0.4283020000000  0.5892220000000  0.5603610000000 1.0
C      1  0.4765560000000  0.4803990000000  0.4407130000000 1.0
C      1  0.3967720000000  0.4725790000000  0.4988350000000 1.0
C      1  0.5048340000000  0.4513170000000  0.4639340000000 1.0
C      1  0.5240250000000  0.4245330000000  0.5146320000000 1.0
C      1  0.5804950000000  0.4755820000000  0.5859750000000 1.0
C      1  0.4831100000000  0.4461130000000  0.5035530000000 1.0
C      1  0.5877050000000  0.5234280000000  0.5852760000000 1.0
C      1  0.4649060000000  0.5628510000000  0.4041570000000 1.0
C      1  0.4636860000000  0.5102470000000  0.6017370000000 1.0
C      1  0.5598680000000  0.4049630000000  0.4890880000000 1.0
C      1  0.4691660000000  0.5158230000000  0.5471360000000 1.0
C      1  0.4210380000000  0.5170800000000  0.4887540000000 1.0
C      1  0.4410590000000  0.6041720000000  0.5401860000000 1.0
C      1  0.4213180000000  0.5267730000000  0.5821770000000 1.0
C      1  0.4930880000000  0.5988290000000  0.5465300000000 1.0
C      1  0.5411960000000  0.3869610000000  0.4992660000000 1.0
C      1  0.4768920000000  0.5981430000000  0.4636010000000 1.0
C      1  0.5722380000000  0.4209110000000  0.5100740000000 1.0
C      1  0.5421790000000  0.4178430000000  0.4437090000000 1.0
C      1  0.5964640000000  0.4332440000000  0.4695990000000 1.0
C      1  0.5402430000000  0.5616340000000  0.4151960000000 1.0
C      1  0.4238220000000  0.5378390000000  0.5544630000000 1.0
C      1  0.4067400000000  0.4643380000000  0.4209430000000 1.0
C      1  0.5003590000000  0.5930490000000  0.4463940000000 1.0
C      1  0.5583460000000  0.4866490000000  0.5436750000000 1.0
C      1  0.5429950000000  0.5044950000000  0.6108390000000 1.0
C      1  0.5953910000000  0.4338880000000  0.4984770000000 1.0
C      1  0.3996520000000  0.5012590000000  0.5032910000000 1.0
C      1  0.5217150000000  0.4619450000000  0.3864020000000 1.0
C      1  0.5458510000000  0.4253710000000  0.4715340000000 1.0
C      1  0.4001090000000  0.4708310000000  0.5518430000000 1.0
C      1  0.4017590000000  0.5621950000000  0.4997210000000 1.0
C      1  0.4872850000000  0.5197630000000  0.6147530000000 1.0
C      1  0.5023630000000  0.4787910000000  0.6224140000000 1.0
C      1  0.4410630000000  0.5186770000000  0.5370740000000 1.0
C      1  0.5910310000000  0.5208890000000  0.4866000000000 1.0
C      1  0.5478910000000  0.4639160000000  0.4982610000000 1.0
C      1  0.5062450000000  0.4941670000000  0.5750300000000 1.0
C      1  0.5176150000000  0.4270360000000  0.4831810000000 1.0
C      1  0.3953200000000  0.4776330000000  0.4454820000000 1.0
C      1  0.5064940000000  0.5536910000000  0.4887760000000 1.0
C      1  0.4270110000000  0.5330770000000  0.4069410000000 1.0
C      1  0.4513520000000  0.4695970000000  0.5324160000000 1.0
C      1  0.4924020000000  0.5646220000000  0.4058940000000 1.0
C      1  0.5726310000000  0.4878940000000  0.4210430000000 1.0
C      1  0.4804360000000  0.4650580000000  0.6112960000000 1.0
C      1  0.4763290000000  0.4429640000000  0.3964230000000 1.0
C      1  0.5042610000000  0.5369170000000  0.6003870000000 1.0
C      1  0.4541930000000  0.5002820000000  0.4437650000000 1.0
C      1  0.4958810000000  0.4074480000000  0.4254490000000 1.0
C      1  0.5632450000000  0.5329380000000  0.5401740000000 1.0
C      1  0.5769370000000  0.4346230000000  0.5599080000000 1.0
C      1  0.5050470000000  0.5782060000000  0.5655500000000 1.0
C      1  0.4748040000000  0.3885710000000  0.4649270000000 1.0
C      1  0.5218140000000  0.4754340000000  0.4965620000000 1.0
C      1  0.4435140000000  0.4634660000000  0.5822370000000 1.0
C      1  0.4055430000000  0.5296210000000  0.4287840000000 1.0
END
