TITL C-951343-2256-272 -6.89135051036453e-06 125000 -994.48555182579 0 0 160 (C1) n - 1
REM
REM in /home/bkarasulu/work/CARBON/AIRSS/Generating-Clusters/EDIP-Nigel-Params/with-SteepDescent/Only-C1/SD-CG/HFTN-CG
REM
REM
REM
REM
REM
REM ./C.cell (11c1c37f851c82e70ff6c80c92926a4b)
REM
REM compiler GCC version 9.2.1 20190827 (Red Hat 9.2.1-1)
REM options -cpp -mtune=generic -march=x86-64 -g -O0 -fpre-include=/usr/include/finclude/math-vector-fortran.h
REM seed 588495272 1261284307 -747424455 -1823832738 1750184182 -1292260087 -1303595265 -314325750 1839554393 615927873 -847711665 1772063334 -1977550619 -1318677305 -1231177820 -1821609282 127035754 -242451978 -664670423 1744400495 -1824372657 1170706017 157706140 -941574042 -1737193728 -1749514047 190420326 1119603934 -1671656488 -1529840562 197581937 2067382911 -2014737860
REM
CELL 1.54180   50.00000   50.00000   50.00000   90.00000   90.00000   90.00000
LATT -1
SFAC C  
C      1  0.5219900000000  0.5186270000000  0.5307160000000 1.0
C      1  0.5932920000000  0.5461110000000  0.4483430000000 1.0
C      1  0.5616570000000  0.4162470000000  0.4755390000000 1.0
C      1  0.5829800000000  0.5228400000000  0.5434860000000 1.0
C      1  0.4244610000000  0.5493790000000  0.4490690000000 1.0
C      1  0.4850990000000  0.5720240000000  0.4342000000000 1.0
C      1  0.3775830000000  0.4929720000000  0.5109590000000 1.0
C      1  0.4158870000000  0.4583780000000  0.5383560000000 1.0
C      1  0.4868210000000  0.4399160000000  0.4274790000000 1.0
C      1  0.4057740000000  0.4755450000000  0.5601560000000 1.0
C      1  0.5875420000000  0.5068290000000  0.4752670000000 1.0
C      1  0.4405420000000  0.4448330000000  0.5469300000000 1.0
C      1  0.5863780000000  0.4452560000000  0.4791930000000 1.0
C      1  0.4167910000000  0.5435630000000  0.4990850000000 1.0
C      1  0.4644910000000  0.4004560000000  0.4608070000000 1.0
C      1  0.5731980000000  0.4538240000000  0.4553340000000 1.0
C      1  0.4410770000000  0.4488760000000  0.4325650000000 1.0
C      1  0.4162770000000  0.4808080000000  0.5174420000000 1.0
C      1  0.5511580000000  0.4857590000000  0.6067820000000 1.0
C      1  0.4813310000000  0.4798670000000  0.4008060000000 1.0
C      1  0.5228970000000  0.5183720000000  0.4439380000000 1.0
C      1  0.5100240000000  0.4240540000000  0.4844450000000 1.0
C      1  0.4493750000000  0.5211530000000  0.5871040000000 1.0
C      1  0.5628180000000  0.5629910000000  0.5542150000000 1.0
C      1  0.4293770000000  0.4747530000000  0.5800080000000 1.0
C      1  0.5497480000000  0.5350210000000  0.4077570000000 1.0
C      1  0.5293650000000  0.5362540000000  0.5802040000000 1.0
C      1  0.4810420000000  0.5070020000000  0.4533650000000 1.0
C      1  0.5268360000000  0.5060600000000  0.3975710000000 1.0
C      1  0.5900280000000  0.5365180000000  0.4758540000000 1.0
C      1  0.4102700000000  0.4387010000000  0.4923250000000 1.0
C      1  0.5420650000000  0.4338620000000  0.4139250000000 1.0
C      1  0.5012010000000  0.5426510000000  0.5465060000000 1.0
C      1  0.4978330000000  0.4853480000000  0.6157870000000 1.0
C      1  0.4469620000000  0.4520310000000  0.5741730000000 1.0
C      1  0.4474820000000  0.5339520000000  0.4334980000000 1.0
C      1  0.4945250000000  0.6113260000000  0.5210010000000 1.0
C      1  0.4962610000000  0.3899660000000  0.5159940000000 1.0
C      1  0.4385860000000  0.5485150000000  0.5439390000000 1.0
C      1  0.3803880000000  0.4757500000000  0.4896440000000 1.0
C      1  0.5833550000000  0.4283030000000  0.5320060000000 1.0
C      1  0.4576100000000  0.5406590000000  0.5655460000000 1.0
C      1  0.4922380000000  0.4834800000000  0.4417120000000 1.0
C      1  0.4633600000000  0.5545160000000  0.4748300000000 1.0
C      1  0.5407100000000  0.4980690000000  0.5436740000000 1.0
C      1  0.4927590000000  0.4024120000000  0.4590440000000 1.0
C      1  0.5698390000000  0.5641900000000  0.4442550000000 1.0
C      1  0.4459130000000  0.4176090000000  0.5401010000000 1.0
C      1  0.4619630000000  0.5003480000000  0.3952620000000 1.0
C      1  0.4383180000000  0.4087410000000  0.5153600000000 1.0
C      1  0.4597330000000  0.4679790000000  0.4927950000000 1.0
C      1  0.4905980000000  0.4159650000000  0.5063140000000 1.0
C      1  0.5939980000000  0.5211790000000  0.4316170000000 1.0
C      1  0.5028470000000  0.5029880000000  0.5140010000000 1.0
C      1  0.5558090000000  0.4254270000000  0.5358060000000 1.0
C      1  0.5425810000000  0.4032120000000  0.5213710000000 1.0
C      1  0.5053800000000  0.4691460000000  0.5613900000000 1.0
C      1  0.4696460000000  0.5434150000000  0.5040180000000 1.0
C      1  0.5056230000000  0.5834660000000  0.4189970000000 1.0
C      1  0.4867950000000  0.5718820000000  0.4640870000000 1.0
C      1  0.5062310000000  0.5124240000000  0.4180670000000 1.0
C      1  0.5971830000000  0.4631530000000  0.5001250000000 1.0
C      1  0.5239400000000  0.4998790000000  0.6133830000000 1.0
C      1  0.4996820000000  0.4732050000000  0.5115090000000 1.0
C      1  0.5963290000000  0.5002750000000  0.5294020000000 1.0
C      1  0.5099500000000  0.5545540000000  0.5929020000000 1.0
C      1  0.5633260000000  0.5504180000000  0.4806320000000 1.0
C      1  0.4414750000000  0.5346190000000  0.5165450000000 1.0
C      1  0.5748760000000  0.5211470000000  0.5728300000000 1.0
C      1  0.4913900000000  0.5593980000000  0.5219830000000 1.0
C      1  0.5452630000000  0.5851600000000  0.5461670000000 1.0
C      1  0.5689590000000  0.5155510000000  0.4172790000000 1.0
C      1  0.5214530000000  0.5881630000000  0.5607080000000 1.0
C      1  0.5704290000000  0.5021660000000  0.5937720000000 1.0
C      1  0.4904020000000  0.5068100000000  0.5778270000000 1.0
C      1  0.4857500000000  0.4341400000000  0.5297700000000 1.0
C      1  0.5986460000000  0.4965560000000  0.4487120000000 1.0
C      1  0.4886220000000  0.5345270000000  0.4040480000000 1.0
C      1  0.4599450000000  0.4946250000000  0.5394100000000 1.0
C      1  0.4209060000000  0.4684700000000  0.4407250000000 1.0
C      1  0.5270500000000  0.4571080000000  0.4066660000000 1.0
C      1  0.4980200000000  0.4603090000000  0.5992040000000 1.0
C      1  0.5072960000000  0.4081870000000  0.5602920000000 1.0
C      1  0.4369070000000  0.5695770000000  0.4672430000000 1.0
C      1  0.4692360000000  0.4658180000000  0.5209080000000 1.0
C      1  0.5448060000000  0.4666850000000  0.5851740000000 1.0
C      1  0.4622130000000  0.5904660000000  0.5513230000000 1.0
C      1  0.4804430000000  0.6131150000000  0.4967030000000 1.0
C      1  0.6006310000000  0.4936150000000  0.4996800000000 1.0
C      1  0.5168360000000  0.4741450000000  0.4576200000000 1.0
C      1  0.5421410000000  0.4813790000000  0.4017260000000 1.0
C      1  0.5169520000000  0.3951780000000  0.5349220000000 1.0
C      1  0.5405960000000  0.4538450000000  0.4962230000000 1.0
C      1  0.4675890000000  0.4483700000000  0.4723460000000 1.0
C      1  0.4409640000000  0.5776320000000  0.5380560000000 1.0
C      1  0.4384750000000  0.5864640000000  0.5102140000000 1.0
C      1  0.4580780000000  0.4979600000000  0.4889880000000 1.0
C      1  0.5159770000000  0.5603540000000  0.5050910000000 1.0
C      1  0.4751310000000  0.4551920000000  0.5806370000000 1.0
C      1  0.5372440000000  0.6064240000000  0.4991970000000 1.0
C      1  0.4243440000000  0.4783740000000  0.4681690000000 1.0
C      1  0.5291720000000  0.4141280000000  0.4289220000000 1.0
C      1  0.4051500000000  0.5039930000000  0.5505190000000 1.0
C      1  0.5368090000000  0.5392530000000  0.5137170000000 1.0
C      1  0.5195050000000  0.5085400000000  0.5846810000000 1.0
C      1  0.4422220000000  0.5031690000000  0.5158490000000 1.0
C      1  0.4702780000000  0.5507140000000  0.4207910000000 1.0
C      1  0.5671270000000  0.5654330000000  0.5080150000000 1.0
C      1  0.5045280000000  0.4211240000000  0.4410810000000 1.0
C      1  0.4688310000000  0.4576920000000  0.4436090000000 1.0
C      1  0.3889900000000  0.5129140000000  0.5274640000000 1.0
C      1  0.5023250000000  0.5686200000000  0.5681940000000 1.0
C      1  0.4216110000000  0.5720730000000  0.4922550000000 1.0
C      1  0.5377680000000  0.4100550000000  0.4915460000000 1.0
C      1  0.4139440000000  0.5318520000000  0.4710780000000 1.0
C      1  0.4760970000000  0.5148880000000  0.6022780000000 1.0
C      1  0.5603480000000  0.4760720000000  0.4971060000000 1.0
C      1  0.5569670000000  0.5000820000000  0.4774020000000 1.0
C      1  0.4946920000000  0.6008230000000  0.4737130000000 1.0
C      1  0.4528550000000  0.6080340000000  0.4992970000000 1.0
C      1  0.4838330000000  0.5875610000000  0.5327330000000 1.0
C      1  0.5487590000000  0.5876170000000  0.5168880000000 1.0
C      1  0.5252560000000  0.6023730000000  0.4740640000000 1.0
C      1  0.3935430000000  0.5378300000000  0.5152290000000 1.0
C      1  0.5291420000000  0.4861260000000  0.5678540000000 1.0
C      1  0.5575610000000  0.5445090000000  0.5768620000000 1.0
C      1  0.5580590000000  0.4777120000000  0.5299670000000 1.0
C      1  0.4372220000000  0.4227450000000  0.4443410000000 1.0
C      1  0.5427250000000  0.5264170000000  0.4865000000000 1.0
C      1  0.5355380000000  0.5762070000000  0.4611940000000 1.0
C      1  0.4806670000000  0.4192090000000  0.5555230000000 1.0
C      1  0.5822870000000  0.4741400000000  0.4368210000000 1.0
C      1  0.4737770000000  0.5228810000000  0.3829970000000 1.0
C      1  0.5396940000000  0.4938850000000  0.4509600000000 1.0
C      1  0.5292210000000  0.5754640000000  0.4315310000000 1.0
C      1  0.4976820000000  0.4571980000000  0.4066800000000 1.0
C      1  0.5128220000000  0.5588190000000  0.4745650000000 1.0
C      1  0.5983140000000  0.4514650000000  0.5277410000000 1.0
C      1  0.4601870000000  0.5254230000000  0.4596610000000 1.0
C      1  0.5522820000000  0.5614190000000  0.4200910000000 1.0
C      1  0.5100590000000  0.4550290000000  0.5350360000000 1.0
C      1  0.4079220000000  0.4672350000000  0.4906960000000 1.0
C      1  0.4854310000000  0.5171260000000  0.4951360000000 1.0
C      1  0.5150000000000  0.5286510000000  0.4711790000000 1.0
C      1  0.4792710000000  0.5224600000000  0.5544480000000 1.0
C      1  0.5753150000000  0.5490190000000  0.5321090000000 1.0
C      1  0.5235960000000  0.4229740000000  0.5778010000000 1.0
C      1  0.5590960000000  0.4288160000000  0.4484290000000 1.0
C      1  0.4416210000000  0.5089320000000  0.4156870000000 1.0
C      1  0.5402130000000  0.4498770000000  0.5268510000000 1.0
C      1  0.5588580000000  0.4892450000000  0.4255630000000 1.0
C      1  0.4296000000000  0.4189470000000  0.4913740000000 1.0
C      1  0.4894970000000  0.5402950000000  0.6068200000000 1.0
C      1  0.4216840000000  0.5057780000000  0.4675160000000 1.0
C      1  0.4500820000000  0.4234030000000  0.4702080000000 1.0
C      1  0.5249160000000  0.4462170000000  0.5936720000000 1.0
C      1  0.4226300000000  0.4900940000000  0.4233490000000 1.0
C      1  0.5870040000000  0.4746360000000  0.5419140000000 1.0
C      1  0.5136450000000  0.4580780000000  0.4844730000000 1.0
C      1  0.4405970000000  0.4999210000000  0.5658920000000 1.0
END
