TITL C-950522-5749-496 -2.16569038944252e-07 125000 -514.025044660528 0 0 82 (C1) n - 1
REM
REM in /home/bkarasulu/work/CARBON/AIRSS/Generating-Clusters/EDIP-Nigel-Params/with-SteepDescent/Only-C1/SD-CG/HFTN-CG
REM
REM
REM
REM
REM
REM ./C.cell (11c1c37f851c82e70ff6c80c92926a4b)
REM
REM compiler GCC version 9.2.1 20190827 (Red Hat 9.2.1-1)
REM options -cpp -mtune=generic -march=x86-64 -g -O0 -fpre-include=/usr/include/finclude/math-vector-fortran.h
REM seed 1521529756 -1393466908 -1127698128 1385945541 -732358244 -1779157419 -797644952 -710402355 -1158327053 -1538190523 -229084726 802742261 -579659784 361410677 -1794673539 -1564816648 1971864662 -1823564493 333670740 816837700 -1763808435 -1855994591 -1936702638 235955276 1468863914 -369016790 1093398508 -2000758780 -2030212551 -1668841364 -1253213431 611328491 215196404
REM
CELL 1.54180   50.00000   50.00000   50.00000   90.00000   90.00000   90.00000
LATT -1
SFAC C  
C      1  0.4577900000000  0.4506730000000  0.4505670000000 1.0
C      1  0.5289070000000  0.4272980000000  0.4927040000000 1.0
C      1  0.5367430000000  0.5546520000000  0.4657370000000 1.0
C      1  0.5532670000000  0.5045610000000  0.4453410000000 1.0
C      1  0.4245370000000  0.4805320000000  0.4851840000000 1.0
C      1  0.5349640000000  0.5319070000000  0.5802180000000 1.0
C      1  0.5182970000000  0.5374370000000  0.4497390000000 1.0
C      1  0.5740940000000  0.4995930000000  0.5441020000000 1.0
C      1  0.5552010000000  0.5391020000000  0.5376850000000 1.0
C      1  0.5277010000000  0.5069300000000  0.5669190000000 1.0
C      1  0.4914890000000  0.5727210000000  0.4665300000000 1.0
C      1  0.5213110000000  0.5203020000000  0.4943960000000 1.0
C      1  0.4391650000000  0.4918680000000  0.4408390000000 1.0
C      1  0.5087090000000  0.5564700000000  0.5507800000000 1.0
C      1  0.4620030000000  0.5528980000000  0.5572010000000 1.0
C      1  0.5021280000000  0.4375240000000  0.4506430000000 1.0
C      1  0.4628610000000  0.4899470000000  0.4226230000000 1.0
C      1  0.5303430000000  0.4921990000000  0.5028510000000 1.0
C      1  0.5361090000000  0.5492000000000  0.5578770000000 1.0
C      1  0.5060220000000  0.5153390000000  0.4688520000000 1.0
C      1  0.4752590000000  0.4536710000000  0.5609940000000 1.0
C      1  0.5494910000000  0.5784030000000  0.5138750000000 1.0
C      1  0.4565420000000  0.4365080000000  0.5194640000000 1.0
C      1  0.4786460000000  0.5100830000000  0.5748730000000 1.0
C      1  0.4705270000000  0.5686120000000  0.4868240000000 1.0
C      1  0.5462010000000  0.4603510000000  0.5558030000000 1.0
C      1  0.5010660000000  0.5323840000000  0.5136500000000 1.0
C      1  0.4294310000000  0.5100580000000  0.5236180000000 1.0
C      1  0.5276970000000  0.4357450000000  0.4648350000000 1.0
C      1  0.4687650000000  0.4899250000000  0.5059670000000 1.0
C      1  0.4745250000000  0.5737700000000  0.5157010000000 1.0
C      1  0.5630260000000  0.4601230000000  0.4844820000000 1.0
C      1  0.5328990000000  0.5218990000000  0.4291350000000 1.0
C      1  0.5030220000000  0.4933410000000  0.5778450000000 1.0
C      1  0.5579250000000  0.5518350000000  0.5114880000000 1.0
C      1  0.5019120000000  0.4314250000000  0.5330310000000 1.0
C      1  0.4952580000000  0.5546770000000  0.4420500000000 1.0
C      1  0.4339850000000  0.5164070000000  0.4555640000000 1.0
C      1  0.4520560000000  0.4699010000000  0.5555680000000 1.0
C      1  0.4790800000000  0.4741870000000  0.4816500000000 1.0
C      1  0.5469300000000  0.5364020000000  0.4867570000000 1.0
C      1  0.4741460000000  0.5327520000000  0.4990370000000 1.0
C      1  0.4175940000000  0.5260950000000  0.5022630000000 1.0
C      1  0.4521050000000  0.5381620000000  0.4537410000000 1.0
C      1  0.5386100000000  0.4630350000000  0.5272360000000 1.0
C      1  0.5194470000000  0.5760170000000  0.4770440000000 1.0
C      1  0.5597080000000  0.4891410000000  0.4937110000000 1.0
C      1  0.5111540000000  0.5042880000000  0.4166110000000 1.0
C      1  0.4533070000000  0.5602920000000  0.5321400000000 1.0
C      1  0.5227110000000  0.5783080000000  0.5062710000000 1.0
C      1  0.5076060000000  0.4615120000000  0.5256500000000 1.0
C      1  0.4745340000000  0.4302230000000  0.5431560000000 1.0
C      1  0.4764150000000  0.4333880000000  0.4651550000000 1.0
C      1  0.5119480000000  0.4859280000000  0.4632950000000 1.0
C      1  0.5022090000000  0.4223650000000  0.5055370000000 1.0
C      1  0.4856420000000  0.4867340000000  0.5330610000000 1.0
C      1  0.4778730000000  0.4368150000000  0.4952600000000 1.0
C      1  0.5208900000000  0.4756470000000  0.4209930000000 1.0
C      1  0.5628360000000  0.5127930000000  0.4735520000000 1.0
C      1  0.5099930000000  0.4670360000000  0.4904970000000 1.0
C      1  0.4839250000000  0.5094760000000  0.4279850000000 1.0
C      1  0.4398090000000  0.4603820000000  0.5297470000000 1.0
C      1  0.5366610000000  0.4791800000000  0.4465220000000 1.0
C      1  0.4702060000000  0.4609610000000  0.4250650000000 1.0
C      1  0.5505010000000  0.4434260000000  0.5067690000000 1.0
C      1  0.4401370000000  0.4714850000000  0.4613820000000 1.0
C      1  0.5757780000000  0.4918250000000  0.5172940000000 1.0
C      1  0.5520050000000  0.4886330000000  0.5608460000000 1.0
C      1  0.4740830000000  0.5359510000000  0.4359690000000 1.0
C      1  0.4993890000000  0.4542320000000  0.4260410000000 1.0
C      1  0.5007530000000  0.4657680000000  0.5692040000000 1.0
C      1  0.4861270000000  0.5395800000000  0.5644980000000 1.0
C      1  0.5245250000000  0.4510400000000  0.5711420000000 1.0
C      1  0.5783940000000  0.5269360000000  0.5480950000000 1.0
C      1  0.4394380000000  0.4843370000000  0.5113620000000 1.0
C      1  0.5024680000000  0.5622710000000  0.5218960000000 1.0
C      1  0.5493560000000  0.4544720000000  0.4585010000000 1.0
C      1  0.4584060000000  0.4977950000000  0.5577070000000 1.0
C      1  0.4169710000000  0.5090800000000  0.4788580000000 1.0
C      1  0.4741050000000  0.5139610000000  0.4744480000000 1.0
C      1  0.5010500000000  0.5143420000000  0.5391380000000 1.0
C      1  0.4513000000000  0.5334770000000  0.5193620000000 1.0
END
