TITL C-951336-9012-68 -1.10655261201034e-07 125000 -248.765654680422 0 0 41 (C1) n - 1
REM
REM in /home/bkarasulu/work/CARBON/AIRSS/Generating-Clusters/EDIP-Nigel-Params/with-SteepDescent/Only-C1/SD-CG/HFTN-CG
REM
REM
REM
REM
REM
REM ./C.cell (11c1c37f851c82e70ff6c80c92926a4b)
REM
REM compiler GCC version 9.2.1 20190827 (Red Hat 9.2.1-1)
REM options -cpp -mtune=generic -march=x86-64 -g -O0 -fpre-include=/usr/include/finclude/math-vector-fortran.h
REM seed -376258850 2122034175 1246701534 1004861787 508562049 -1625546536 1385742932 703381888 1857722444 -928252393 1451496976 -90166799 -1560911693 455416115 1648478926 1742394143 -1901006514 -2043879911 462288017 -331093964 1899379439 -879461470 -1015491866 455136580 472935541 -850538148 838379630 1578596629 689044513 -37197157 1802508126 -140659438 -205283452
REM
CELL 1.54180   50.00000   50.00000   50.00000   90.00000   90.00000   90.00000
LATT -1
SFAC C  
C      1  0.4508360000000  0.4862030000000  0.4940770000000 1.0
C      1  0.5018480000000  0.5070640000000  0.4843690000000 1.0
C      1  0.4727190000000  0.4585590000000  0.5284780000000 1.0
C      1  0.4738220000000  0.5136160000000  0.4465320000000 1.0
C      1  0.4804090000000  0.5012330000000  0.5305740000000 1.0
C      1  0.5592340000000  0.4936030000000  0.5069980000000 1.0
C      1  0.5282540000000  0.5454650000000  0.4736030000000 1.0
C      1  0.5060760000000  0.5621070000000  0.4719480000000 1.0
C      1  0.4877540000000  0.4997840000000  0.5600140000000 1.0
C      1  0.4604220000000  0.5232670000000  0.5227950000000 1.0
C      1  0.4685980000000  0.5645400000000  0.4992990000000 1.0
C      1  0.4987700000000  0.5222360000000  0.5726140000000 1.0
C      1  0.5463940000000  0.4690270000000  0.5028620000000 1.0
C      1  0.4805110000000  0.5528800000000  0.4771130000000 1.0
C      1  0.5109450000000  0.4372050000000  0.5119880000000 1.0
C      1  0.5044500000000  0.5145900000000  0.4380810000000 1.0
C      1  0.4805070000000  0.4548330000000  0.5554560000000 1.0
C      1  0.4712850000000  0.5515610000000  0.5242960000000 1.0
C      1  0.4712310000000  0.4433070000000  0.4819810000000 1.0
C      1  0.5050440000000  0.5091150000000  0.5138850000000 1.0
C      1  0.4700030000000  0.4716710000000  0.4750140000000 1.0
C      1  0.5140810000000  0.4675490000000  0.4555850000000 1.0
C      1  0.5435240000000  0.4759320000000  0.4543060000000 1.0
C      1  0.4978350000000  0.4838440000000  0.4343840000000 1.0
C      1  0.5232100000000  0.4686790000000  0.5465590000000 1.0
C      1  0.5465540000000  0.5027770000000  0.4609440000000 1.0
C      1  0.4682970000000  0.4824150000000  0.4461400000000 1.0
C      1  0.4523880000000  0.4769830000000  0.5213320000000 1.0
C      1  0.4983490000000  0.4784780000000  0.4789660000000 1.0
C      1  0.4762350000000  0.5230170000000  0.4758330000000 1.0
C      1  0.5296170000000  0.4557110000000  0.5224490000000 1.0
C      1  0.5190340000000  0.5336480000000  0.5226700000000 1.0
C      1  0.5005120000000  0.4731660000000  0.5629330000000 1.0
C      1  0.5458680000000  0.4581110000000  0.4764840000000 1.0
C      1  0.4995180000000  0.5535570000000  0.5366610000000 1.0
C      1  0.4534150000000  0.5155110000000  0.4942670000000 1.0
C      1  0.4832360000000  0.4409200000000  0.5079520000000 1.0
C      1  0.4987980000000  0.5478940000000  0.5643790000000 1.0
C      1  0.5583170000000  0.5201310000000  0.5014080000000 1.0
C      1  0.5221550000000  0.5180300000000  0.4634440000000 1.0
C      1  0.5399450000000  0.5417820000000  0.5013280000000 1.0
END
