TITL C-951341-1326-186 -1.6983629351798e-06 125000 -801.631588544824 0 0 129 (C1) n - 1
REM
REM in /home/bkarasulu/work/CARBON/AIRSS/Generating-Clusters/EDIP-Nigel-Params/with-SteepDescent/Only-C1/SD-CG/HFTN-CG
REM
REM
REM
REM
REM
REM ./C.cell (11c1c37f851c82e70ff6c80c92926a4b)
REM
REM compiler GCC version 9.2.1 20190827 (Red Hat 9.2.1-1)
REM options -cpp -mtune=generic -march=x86-64 -g -O0 -fpre-include=/usr/include/finclude/math-vector-fortran.h
REM seed 2091136105 -493426787 -1639493408 1182926003 680373272 1457174885 535399371 1029606823 -1995725144 -787489898 -130001247 1576549927 -1450439852 -2138166904 737560171 -1323362942 -394125528 1754034204 -976472120 -301771146 947733824 1738622910 681041849 1858480839 -1554446256 -939652279 2083295040 -392777483 -1811065334 -313620028 3458702 372152222 520828927
REM
CELL 1.54180   50.00000   50.00000   50.00000   90.00000   90.00000   90.00000
LATT -1
SFAC C  
C      1  0.4997360000000  0.5334540000000  0.4907790000000 1.0
C      1  0.4684020000000  0.5850280000000  0.4883570000000 1.0
C      1  0.5216210000000  0.5163880000000  0.5083190000000 1.0
C      1  0.4559830000000  0.4271350000000  0.4508270000000 1.0
C      1  0.4328440000000  0.4580190000000  0.5181510000000 1.0
C      1  0.5516580000000  0.4452850000000  0.4457450000000 1.0
C      1  0.5043860000000  0.5553910000000  0.4268400000000 1.0
C      1  0.4377800000000  0.5589910000000  0.4589130000000 1.0
C      1  0.4884590000000  0.4785310000000  0.4529590000000 1.0
C      1  0.4966720000000  0.4519640000000  0.5853010000000 1.0
C      1  0.4812250000000  0.5317920000000  0.4634030000000 1.0
C      1  0.5333590000000  0.4134030000000  0.5241610000000 1.0
C      1  0.5230030000000  0.5158080000000  0.4434020000000 1.0
C      1  0.4910410000000  0.4174210000000  0.4962770000000 1.0
C      1  0.5363020000000  0.4078720000000  0.4656930000000 1.0
C      1  0.4099200000000  0.4597480000000  0.5381990000000 1.0
C      1  0.5221650000000  0.5120740000000  0.5570140000000 1.0
C      1  0.5108460000000  0.5945960000000  0.5191170000000 1.0
C      1  0.5086900000000  0.4591140000000  0.4686730000000 1.0
C      1  0.4525330000000  0.5467380000000  0.5027600000000 1.0
C      1  0.5895610000000  0.5309920000000  0.5019960000000 1.0
C      1  0.5643100000000  0.4909280000000  0.4655910000000 1.0
C      1  0.4314960000000  0.5149390000000  0.4675490000000 1.0
C      1  0.4702600000000  0.5802050000000  0.5391720000000 1.0
C      1  0.5143860000000  0.5823270000000  0.5457380000000 1.0
C      1  0.5632560000000  0.4095340000000  0.4792060000000 1.0
C      1  0.4543970000000  0.5628480000000  0.4349190000000 1.0
C      1  0.4869490000000  0.5822800000000  0.4662850000000 1.0
C      1  0.5951460000000  0.5008200000000  0.5031400000000 1.0
C      1  0.5383340000000  0.5412600000000  0.5202730000000 1.0
C      1  0.4321900000000  0.4711180000000  0.4403120000000 1.0
C      1  0.5070190000000  0.5362420000000  0.5602380000000 1.0
C      1  0.5248690000000  0.5253670000000  0.3952870000000 1.0
C      1  0.4870210000000  0.4804570000000  0.4057050000000 1.0
C      1  0.4204940000000  0.4684050000000  0.4698540000000 1.0
C      1  0.4502650000000  0.5277620000000  0.5552940000000 1.0
C      1  0.5121180000000  0.5481690000000  0.5877440000000 1.0
C      1  0.5515100000000  0.4779360000000  0.5150820000000 1.0
C      1  0.4247480000000  0.4462780000000  0.4898980000000 1.0
C      1  0.4676730000000  0.4830300000000  0.4742280000000 1.0
C      1  0.5765980000000  0.4490750000000  0.5433670000000 1.0
C      1  0.4506880000000  0.4926070000000  0.5883830000000 1.0
C      1  0.4197440000000  0.4626890000000  0.5675140000000 1.0
C      1  0.4077100000000  0.4917510000000  0.5684270000000 1.0
C      1  0.5355490000000  0.5091240000000  0.4171420000000 1.0
C      1  0.5368990000000  0.4934540000000  0.4931360000000 1.0
C      1  0.4971160000000  0.5019910000000  0.6050080000000 1.0
C      1  0.4818390000000  0.5885360000000  0.5142360000000 1.0
C      1  0.4668220000000  0.4468640000000  0.5783140000000 1.0
C      1  0.5541110000000  0.4583540000000  0.5605340000000 1.0
C      1  0.4742590000000  0.4323930000000  0.5525130000000 1.0
C      1  0.5602330000000  0.5200750000000  0.4668180000000 1.0
C      1  0.5842690000000  0.4538140000000  0.4858270000000 1.0
C      1  0.5285210000000  0.4199840000000  0.5530310000000 1.0
C      1  0.4481710000000  0.4682430000000  0.5730490000000 1.0
C      1  0.5736940000000  0.4351510000000  0.4638850000000 1.0
C      1  0.4489640000000  0.5433510000000  0.4157560000000 1.0
C      1  0.5612830000000  0.5606860000000  0.5282730000000 1.0
C      1  0.5323350000000  0.4394000000000  0.4851800000000 1.0
C      1  0.5187280000000  0.5525780000000  0.4757350000000 1.0
C      1  0.4823480000000  0.5444060000000  0.5156310000000 1.0
C      1  0.5307740000000  0.4802870000000  0.4130230000000 1.0
C      1  0.5779450000000  0.4918030000000  0.5254910000000 1.0
C      1  0.4432100000000  0.5751810000000  0.5423610000000 1.0
C      1  0.3954280000000  0.5064280000000  0.4957900000000 1.0
C      1  0.4389900000000  0.4889070000000  0.5114360000000 1.0
C      1  0.5117590000000  0.5534050000000  0.5354650000000 1.0
C      1  0.5114060000000  0.4729720000000  0.3942050000000 1.0
C      1  0.4678170000000  0.4957400000000  0.5193390000000 1.0
C      1  0.4585440000000  0.4401860000000  0.5277070000000 1.0
C      1  0.5049090000000  0.4374920000000  0.5583960000000 1.0
C      1  0.4461950000000  0.4286760000000  0.4812040000000 1.0
C      1  0.4355790000000  0.5003270000000  0.4331760000000 1.0
C      1  0.4817750000000  0.5592740000000  0.4469470000000 1.0
C      1  0.5489670000000  0.5173750000000  0.5545460000000 1.0
C      1  0.5654140000000  0.4748110000000  0.5817470000000 1.0
C      1  0.4147380000000  0.5502990000000  0.4959560000000 1.0
C      1  0.4831430000000  0.5096120000000  0.4161500000000 1.0
C      1  0.5520470000000  0.4297000000000  0.5661490000000 1.0
C      1  0.5891920000000  0.4829150000000  0.4793160000000 1.0
C      1  0.5873080000000  0.4866280000000  0.5688750000000 1.0
C      1  0.4393550000000  0.4892500000000  0.4808500000000 1.0
C      1  0.4396980000000  0.5775840000000  0.4828570000000 1.0
C      1  0.4538160000000  0.5159420000000  0.4165260000000 1.0
C      1  0.4819170000000  0.4612610000000  0.4285420000000 1.0
C      1  0.4317900000000  0.5095040000000  0.5738870000000 1.0
C      1  0.5605230000000  0.5813970000000  0.5072640000000 1.0
C      1  0.5258340000000  0.5456160000000  0.4470130000000 1.0
C      1  0.4850370000000  0.4159060000000  0.4457380000000 1.0
C      1  0.5535080000000  0.4656970000000  0.4251090000000 1.0
C      1  0.5615920000000  0.5641320000000  0.4736070000000 1.0
C      1  0.5654130000000  0.5128970000000  0.4209810000000 1.0
C      1  0.5311630000000  0.4258750000000  0.4428950000000 1.0
C      1  0.5043590000000  0.4319250000000  0.4305630000000 1.0
C      1  0.5590040000000  0.4502640000000  0.5026600000000 1.0
C      1  0.5089820000000  0.4584310000000  0.5196020000000 1.0
C      1  0.5133190000000  0.5806920000000  0.4770530000000 1.0
C      1  0.5126910000000  0.5256960000000  0.6052920000000 1.0
C      1  0.4886670000000  0.4334380000000  0.4710940000000 1.0
C      1  0.4891130000000  0.5669400000000  0.5860370000000 1.0
C      1  0.5086370000000  0.4759800000000  0.4947030000000 1.0
C      1  0.5544340000000  0.5577910000000  0.4443590000000 1.0
C      1  0.4164480000000  0.5373520000000  0.5230980000000 1.0
C      1  0.4743830000000  0.5089220000000  0.5895120000000 1.0
C      1  0.5148620000000  0.4308860000000  0.5089500000000 1.0
C      1  0.4518830000000  0.5359270000000  0.4730560000000 1.0
C      1  0.5625680000000  0.5384230000000  0.4902580000000 1.0
C      1  0.5837360000000  0.5405170000000  0.5296140000000 1.0
C      1  0.4536570000000  0.4516740000000  0.4335750000000 1.0
C      1  0.5285980000000  0.4739710000000  0.5356980000000 1.0
C      1  0.5598340000000  0.4132600000000  0.5099630000000 1.0
C      1  0.5754380000000  0.5149490000000  0.5455210000000 1.0
C      1  0.4630940000000  0.4221530000000  0.5049720000000 1.0
C      1  0.5707990000000  0.4867310000000  0.4353360000000 1.0
C      1  0.5707560000000  0.5329510000000  0.4425650000000 1.0
C      1  0.5921140000000  0.4733490000000  0.5433950000000 1.0
C      1  0.3985360000000  0.4894090000000  0.5394740000000 1.0
C      1  0.4716310000000  0.5351550000000  0.5759720000000 1.0
C      1  0.5000610000000  0.5337580000000  0.4056550000000 1.0
C      1  0.4837500000000  0.4922880000000  0.4956490000000 1.0
C      1  0.4343020000000  0.5488520000000  0.5428830000000 1.0
C      1  0.4129970000000  0.5064640000000  0.5190890000000 1.0
C      1  0.4890010000000  0.5840470000000  0.5617210000000 1.0
C      1  0.5039870000000  0.4749820000000  0.6005460000000 1.0
C      1  0.4938990000000  0.5083160000000  0.4446670000000 1.0
C      1  0.5358740000000  0.5965410000000  0.5030000000000 1.0
C      1  0.4751990000000  0.5195260000000  0.5350030000000 1.0
C      1  0.5094800000000  0.5009320000000  0.5332360000000 1.0
C      1  0.4066120000000  0.5262530000000  0.4795190000000 1.0
END
