TITL C-951333-8791-710 -3.11433885494954e-06 125000 -455.563649812951 0 0 75 (C1) n - 1
REM
REM in /home/bkarasulu/work/CARBON/AIRSS/Generating-Clusters/EDIP-Nigel-Params/with-SteepDescent/Only-C1/SD-CG/HFTN-CG
REM
REM
REM
REM
REM
REM ./C.cell (11c1c37f851c82e70ff6c80c92926a4b)
REM
REM compiler GCC version 9.2.1 20190827 (Red Hat 9.2.1-1)
REM options -cpp -mtune=generic -march=x86-64 -g -O0 -fpre-include=/usr/include/finclude/math-vector-fortran.h
REM seed 140714630 -26402380 -945626892 -1681246633 1029169343 -259556295 -766066150 2316666 895108619 120225141 332222347 -2060861793 1348134900 359503833 328562700 -1352561570 -403684301 -2145531742 -1020748962 1847273670 -1689042161 -1113588959 -1538773713 -812614362 -1055917277 -398794581 -373594869 101716823 -1892336988 -748409054 -518813593 -122339497 614260484
REM
CELL 1.54180   50.00000   50.00000   50.00000   90.00000   90.00000   90.00000
LATT -1
SFAC C  
C      1  0.4793530000000  0.4420090000000  0.4641200000000 1.0
C      1  0.5240140000000  0.5695180000000  0.5247880000000 1.0
C      1  0.5706420000000  0.4550620000000  0.4939300000000 1.0
C      1  0.5447380000000  0.4975430000000  0.4879060000000 1.0
C      1  0.5121210000000  0.5611530000000  0.4669160000000 1.0
C      1  0.5127830000000  0.5409140000000  0.4174550000000 1.0
C      1  0.5016780000000  0.5253990000000  0.5765490000000 1.0
C      1  0.5101840000000  0.4692870000000  0.4327530000000 1.0
C      1  0.5077250000000  0.4743720000000  0.4937100000000 1.0
C      1  0.5005630000000  0.5480530000000  0.4422100000000 1.0
C      1  0.4597440000000  0.4868780000000  0.4311060000000 1.0
C      1  0.4293840000000  0.4670960000000  0.5124580000000 1.0
C      1  0.5165520000000  0.4179380000000  0.4859360000000 1.0
C      1  0.4742870000000  0.4803160000000  0.5686010000000 1.0
C      1  0.4619810000000  0.5014980000000  0.4892240000000 1.0
C      1  0.5297650000000  0.4446760000000  0.5180810000000 1.0
C      1  0.4816480000000  0.5435410000000  0.5676820000000 1.0
C      1  0.4297690000000  0.5379250000000  0.4881280000000 1.0
C      1  0.4981990000000  0.4977270000000  0.5677090000000 1.0
C      1  0.5401130000000  0.4523840000000  0.5433430000000 1.0
C      1  0.5279480000000  0.5341320000000  0.5727570000000 1.0
C      1  0.4822800000000  0.4526060000000  0.5622270000000 1.0
C      1  0.4636030000000  0.5646380000000  0.4772830000000 1.0
C      1  0.4974720000000  0.4861970000000  0.4655280000000 1.0
C      1  0.4896690000000  0.5617800000000  0.4877090000000 1.0
C      1  0.5525710000000  0.4712000000000  0.4492950000000 1.0
C      1  0.4731810000000  0.5124120000000  0.4238280000000 1.0
C      1  0.4764130000000  0.5680520000000  0.5294400000000 1.0
C      1  0.5217310000000  0.4822650000000  0.5708980000000 1.0
C      1  0.4720020000000  0.4709420000000  0.4553540000000 1.0
C      1  0.4379780000000  0.5582740000000  0.4706420000000 1.0
C      1  0.5866470000000  0.4993950000000  0.5019300000000 1.0
C      1  0.4851160000000  0.5133530000000  0.4738950000000 1.0
C      1  0.5029630000000  0.5271950000000  0.5232240000000 1.0
C      1  0.5071310000000  0.4267280000000  0.5130870000000 1.0
C      1  0.5090390000000  0.4428160000000  0.4715920000000 1.0
C      1  0.5394610000000  0.5262460000000  0.5483700000000 1.0
C      1  0.5482620000000  0.4966930000000  0.4341960000000 1.0
C      1  0.5599330000000  0.5192020000000  0.4465240000000 1.0
C      1  0.4785160000000  0.5290940000000  0.4483750000000 1.0
C      1  0.4329200000000  0.5418060000000  0.5168050000000 1.0
C      1  0.4195930000000  0.5104720000000  0.4809130000000 1.0
C      1  0.5270880000000  0.4531230000000  0.4487490000000 1.0
C      1  0.5235870000000  0.4972570000000  0.5061600000000 1.0
C      1  0.5434730000000  0.5596000000000  0.5069590000000 1.0
C      1  0.5786110000000  0.4741170000000  0.5172520000000 1.0
C      1  0.4314300000000  0.4944510000000  0.4563560000000 1.0
C      1  0.4867780000000  0.4698890000000  0.5131470000000 1.0
C      1  0.5656500000000  0.5349500000000  0.5434410000000 1.0
C      1  0.4423730000000  0.4610210000000  0.5387400000000 1.0
C      1  0.4332670000000  0.5153150000000  0.5309850000000 1.0
C      1  0.5195690000000  0.4552830000000  0.5634670000000 1.0
C      1  0.5020540000000  0.5326060000000  0.4918400000000 1.0
C      1  0.4798930000000  0.4412740000000  0.5138270000000 1.0
C      1  0.5030640000000  0.5139740000000  0.4143830000000 1.0
C      1  0.5481460000000  0.4370140000000  0.4980930000000 1.0
C      1  0.4628930000000  0.5279160000000  0.5530570000000 1.0
C      1  0.5015230000000  0.5553060000000  0.5361950000000 1.0
C      1  0.4499520000000  0.4864770000000  0.5521260000000 1.0
C      1  0.4660100000000  0.4913670000000  0.5171000000000 1.0
C      1  0.5654860000000  0.5434440000000  0.5168730000000 1.0
C      1  0.4776230000000  0.5144670000000  0.5320680000000 1.0
C      1  0.4227750000000  0.4964510000000  0.5089960000000 1.0
C      1  0.4501890000000  0.4792850000000  0.4736060000000 1.0
C      1  0.5388040000000  0.5526520000000  0.4790770000000 1.0
C      1  0.5768380000000  0.5270200000000  0.4951890000000 1.0
C      1  0.4627990000000  0.4356710000000  0.4886890000000 1.0
C      1  0.4652370000000  0.4412270000000  0.5404460000000 1.0
C      1  0.5310330000000  0.4992270000000  0.5382010000000 1.0
C      1  0.5594160000000  0.4743150000000  0.5401710000000 1.0
C      1  0.5646200000000  0.4797250000000  0.4761760000000 1.0
C      1  0.4501290000000  0.5621710000000  0.5253580000000 1.0
C      1  0.5608480000000  0.5348190000000  0.4701020000000 1.0
C      1  0.5197730000000  0.4952160000000  0.4292660000000 1.0
C      1  0.4393970000000  0.4545830000000  0.4874270000000 1.0
END
