TITL C-951334-9093-115 -1.10495256390065e-06 125000 -1215.91424595003 0 0 193 (C1) n - 1
REM
REM in /home/bkarasulu/work/CARBON/AIRSS/Generating-Clusters/EDIP-Nigel-Params/with-SteepDescent/Only-C1/SD-CG/HFTN-CG
REM
REM
REM
REM
REM
REM ./C.cell (11c1c37f851c82e70ff6c80c92926a4b)
REM
REM compiler GCC version 9.2.1 20190827 (Red Hat 9.2.1-1)
REM options -cpp -mtune=generic -march=x86-64 -g -O0 -fpre-include=/usr/include/finclude/math-vector-fortran.h
REM seed -2115115119 1891464627 1946466965 72702307 -1153869878 -1346216434 -179518369 440403152 -216871321 2082203402 -1052107398 -906335156 1342332953 1777595221 -482875503 -1927205810 93218451 941885480 -503657033 -1016518618 1884908844 -870216449 815003588 2090075460 -1032224701 205333201 313540031 -330056396 396404692 1630620889 -1810023681 1324521255 1688921568
REM
CELL 1.54180   50.00000   50.00000   50.00000   90.00000   90.00000   90.00000
LATT -1
SFAC C  
C      1  0.5402960000000  0.4741920000000  0.5346940000000 1.0
C      1  0.3963480000000  0.5533390000000  0.5019710000000 1.0
C      1  0.5788750000000  0.5625760000000  0.5096610000000 1.0
C      1  0.4249930000000  0.5192470000000  0.5845570000000 1.0
C      1  0.4799980000000  0.4985970000000  0.4753650000000 1.0
C      1  0.4288960000000  0.5916130000000  0.4912290000000 1.0
C      1  0.4609230000000  0.4478360000000  0.6056510000000 1.0
C      1  0.5008830000000  0.4286530000000  0.4887630000000 1.0
C      1  0.5760240000000  0.5337090000000  0.4979030000000 1.0
C      1  0.4811970000000  0.5701380000000  0.5108640000000 1.0
C      1  0.4267090000000  0.4387470000000  0.4500690000000 1.0
C      1  0.4637890000000  0.4854490000000  0.4308420000000 1.0
C      1  0.5492690000000  0.4873320000000  0.4906310000000 1.0
C      1  0.5825710000000  0.4947700000000  0.4276990000000 1.0
C      1  0.5934520000000  0.4669750000000  0.4667260000000 1.0
C      1  0.4771500000000  0.3909440000000  0.4891770000000 1.0
C      1  0.4033560000000  0.4733590000000  0.4888560000000 1.0
C      1  0.4051020000000  0.5604370000000  0.5280850000000 1.0
C      1  0.5131320000000  0.5309980000000  0.4083270000000 1.0
C      1  0.5830530000000  0.5496080000000  0.5810310000000 1.0
C      1  0.4185850000000  0.4458260000000  0.5554100000000 1.0
C      1  0.5606300000000  0.4915320000000  0.5187090000000 1.0
C      1  0.5238010000000  0.4337060000000  0.5267410000000 1.0
C      1  0.5033030000000  0.5315660000000  0.5360500000000 1.0
C      1  0.5258530000000  0.4740120000000  0.6106630000000 1.0
C      1  0.5279030000000  0.5351000000000  0.5206480000000 1.0
C      1  0.4594410000000  0.5325070000000  0.4457030000000 1.0
C      1  0.5294750000000  0.5399460000000  0.4721570000000 1.0
C      1  0.6017680000000  0.5298800000000  0.5438460000000 1.0
C      1  0.4168010000000  0.5442150000000  0.5698720000000 1.0
C      1  0.4990940000000  0.4279670000000  0.3981530000000 1.0
C      1  0.4031060000000  0.4546970000000  0.5111300000000 1.0
C      1  0.4418510000000  0.5464800000000  0.4894970000000 1.0
C      1  0.5390020000000  0.5175210000000  0.3993940000000 1.0
C      1  0.5506780000000  0.5708750000000  0.5516010000000 1.0
C      1  0.4578830000000  0.5794300000000  0.4351770000000 1.0
C      1  0.4941120000000  0.4051020000000  0.4701380000000 1.0
C      1  0.5038580000000  0.5105480000000  0.6000560000000 1.0
C      1  0.4286530000000  0.5398180000000  0.4230590000000 1.0
C      1  0.4985070000000  0.4770960000000  0.6186670000000 1.0
C      1  0.5186550000000  0.5252470000000  0.4470870000000 1.0
C      1  0.5510160000000  0.5919610000000  0.4967950000000 1.0
C      1  0.5406890000000  0.5033060000000  0.4440740000000 1.0
C      1  0.4646210000000  0.6055450000000  0.4536020000000 1.0
C      1  0.5285650000000  0.4387370000000  0.5967080000000 1.0
C      1  0.4177250000000  0.5642960000000  0.4841650000000 1.0
C      1  0.5080790000000  0.5839550000000  0.5097590000000 1.0
C      1  0.4731290000000  0.4027620000000  0.5508110000000 1.0
C      1  0.4735310000000  0.5069510000000  0.5051840000000 1.0
C      1  0.5966920000000  0.4655560000000  0.5430790000000 1.0
C      1  0.4836030000000  0.5547570000000  0.5370190000000 1.0
C      1  0.4123620000000  0.4842010000000  0.4464010000000 1.0
C      1  0.4806700000000  0.4894090000000  0.3830560000000 1.0
C      1  0.5214280000000  0.5710250000000  0.4653690000000 1.0
C      1  0.5890850000000  0.5476120000000  0.4518870000000 1.0
C      1  0.5013550000000  0.5590100000000  0.4021030000000 1.0
C      1  0.5487820000000  0.4514310000000  0.5801020000000 1.0
C      1  0.4760210000000  0.4588550000000  0.4239580000000 1.0
C      1  0.5295570000000  0.4243430000000  0.4998860000000 1.0
C      1  0.5322620000000  0.4668020000000  0.5622680000000 1.0
C      1  0.5345310000000  0.5102580000000  0.5593850000000 1.0
C      1  0.5884470000000  0.4115410000000  0.4857010000000 1.0
C      1  0.5030870000000  0.4516050000000  0.4682540000000 1.0
C      1  0.5281000000000  0.4685780000000  0.4101540000000 1.0
C      1  0.5829740000000  0.4785180000000  0.5651350000000 1.0
C      1  0.5268510000000  0.3935960000000  0.4545970000000 1.0
C      1  0.5210950000000  0.4935720000000  0.4946180000000 1.0
C      1  0.5925550000000  0.4583660000000  0.4945180000000 1.0
C      1  0.5845330000000  0.4484410000000  0.4450350000000 1.0
C      1  0.4877650000000  0.5130210000000  0.4004070000000 1.0
C      1  0.4103180000000  0.4614630000000  0.4635720000000 1.0
C      1  0.4540780000000  0.4491110000000  0.4047860000000 1.0
C      1  0.4581170000000  0.4611680000000  0.5007920000000 1.0
C      1  0.5076720000000  0.4279030000000  0.5745630000000 1.0
C      1  0.5894080000000  0.4960760000000  0.4600260000000 1.0
C      1  0.4546240000000  0.4863350000000  0.4603520000000 1.0
C      1  0.5724260000000  0.4284230000000  0.5264240000000 1.0
C      1  0.5480760000000  0.4253190000000  0.4224500000000 1.0
C      1  0.4092010000000  0.5627890000000  0.4560770000000 1.0
C      1  0.4537690000000  0.4578180000000  0.4703020000000 1.0
C      1  0.4402210000000  0.5610990000000  0.5608050000000 1.0
C      1  0.5801770000000  0.5674630000000  0.5572930000000 1.0
C      1  0.5970610000000  0.5251420000000  0.5725810000000 1.0
C      1  0.4417340000000  0.5217400000000  0.4065500000000 1.0
C      1  0.4957490000000  0.4131210000000  0.4217030000000 1.0
C      1  0.4280640000000  0.4482430000000  0.4201490000000 1.0
C      1  0.5800420000000  0.5019500000000  0.5839520000000 1.0
C      1  0.4144360000000  0.4292260000000  0.5080910000000 1.0
C      1  0.5216100000000  0.4166420000000  0.4362450000000 1.0
C      1  0.5364330000000  0.5650990000000  0.5208310000000 1.0
C      1  0.5453630000000  0.5814230000000  0.4511810000000 1.0
C      1  0.4585130000000  0.6053610000000  0.5553030000000 1.0
C      1  0.5379720000000  0.5609400000000  0.5765870000000 1.0
C      1  0.5735180000000  0.4637250000000  0.5875770000000 1.0
C      1  0.4852150000000  0.4743810000000  0.5720620000000 1.0
C      1  0.5873780000000  0.5679260000000  0.4726990000000 1.0
C      1  0.4627020000000  0.5154840000000  0.5580030000000 1.0
C      1  0.6111180000000  0.5002110000000  0.5088270000000 1.0
C      1  0.3923110000000  0.5230860000000  0.5048590000000 1.0
C      1  0.4683730000000  0.5593430000000  0.4851630000000 1.0
C      1  0.5915590000000  0.4788760000000  0.5166840000000 1.0
C      1  0.5310700000000  0.4485220000000  0.4555750000000 1.0
C      1  0.5951990000000  0.5570700000000  0.5348730000000 1.0
C      1  0.5987830000000  0.5156880000000  0.4871300000000 1.0
C      1  0.4547890000000  0.5190250000000  0.5875140000000 1.0
C      1  0.4795500000000  0.4140970000000  0.5774780000000 1.0
C      1  0.5779950000000  0.4649510000000  0.4213760000000 1.0
C      1  0.5556770000000  0.5428860000000  0.5906440000000 1.0
C      1  0.5539080000000  0.5660760000000  0.4292420000000 1.0
C      1  0.4610760000000  0.4688150000000  0.5558550000000 1.0
C      1  0.4017700000000  0.5096380000000  0.4555860000000 1.0
C      1  0.4741760000000  0.5893170000000  0.5749630000000 1.0
C      1  0.5506530000000  0.5135900000000  0.5853140000000 1.0
C      1  0.4674790000000  0.5440360000000  0.5986300000000 1.0
C      1  0.4293140000000  0.5062850000000  0.5024600000000 1.0
C      1  0.4463980000000  0.4155330000000  0.4596010000000 1.0
C      1  0.4581190000000  0.4235650000000  0.5335840000000 1.0
C      1  0.4188930000000  0.4770060000000  0.4195500000000 1.0
C      1  0.5662760000000  0.4239180000000  0.4450730000000 1.0
C      1  0.5442450000000  0.3980800000000  0.5535400000000 1.0
C      1  0.5650160000000  0.5977010000000  0.5205430000000 1.0
C      1  0.4106570000000  0.5360950000000  0.4443050000000 1.0
C      1  0.4174480000000  0.4945130000000  0.5713210000000 1.0
C      1  0.4558620000000  0.5417650000000  0.5429160000000 1.0
C      1  0.4059880000000  0.4636580000000  0.5380140000000 1.0
C      1  0.5185990000000  0.5244230000000  0.4949150000000 1.0
C      1  0.5526460000000  0.4514420000000  0.4081620000000 1.0
C      1  0.4995540000000  0.5034650000000  0.5697650000000 1.0
C      1  0.5647960000000  0.5859570000000  0.4723510000000 1.0
C      1  0.5307500000000  0.4751930000000  0.4386810000000 1.0
C      1  0.4510830000000  0.4050350000000  0.4875560000000 1.0
C      1  0.4471130000000  0.4917070000000  0.5463850000000 1.0
C      1  0.3982340000000  0.5149930000000  0.5326450000000 1.0
C      1  0.4553980000000  0.4759770000000  0.3868740000000 1.0
C      1  0.5047800000000  0.4552250000000  0.5608050000000 1.0
C      1  0.5011600000000  0.4545200000000  0.4067930000000 1.0
C      1  0.5099940000000  0.5578790000000  0.5784960000000 1.0
C      1  0.4472860000000  0.4423830000000  0.5572240000000 1.0
C      1  0.4857170000000  0.6041750000000  0.4721920000000 1.0
C      1  0.5751470000000  0.4349290000000  0.4973380000000 1.0
C      1  0.4372890000000  0.4133580000000  0.5127070000000 1.0
C      1  0.4972840000000  0.5412890000000  0.5995200000000 1.0
C      1  0.5600470000000  0.4022090000000  0.5307300000000 1.0
C      1  0.4902000000000  0.3860440000000  0.5131260000000 1.0
C      1  0.6210150000000  0.5156970000000  0.5298060000000 1.0
C      1  0.5022850000000  0.4799970000000  0.4772980000000 1.0
C      1  0.4337680000000  0.5369960000000  0.5188750000000 1.0
C      1  0.5488660000000  0.6077220000000  0.5435830000000 1.0
C      1  0.5557700000000  0.3984410000000  0.4579350000000 1.0
C      1  0.5013880000000  0.4531900000000  0.5292950000000 1.0
C      1  0.4857360000000  0.5022720000000  0.4277030000000 1.0
C      1  0.5196480000000  0.4122870000000  0.5481180000000 1.0
C      1  0.4516670000000  0.4893040000000  0.5143170000000 1.0
C      1  0.4881540000000  0.5181240000000  0.4516530000000 1.0
C      1  0.4789220000000  0.4683480000000  0.6002750000000 1.0
C      1  0.4562420000000  0.5681590000000  0.5846070000000 1.0
C      1  0.4411660000000  0.5200560000000  0.4712510000000 1.0
C      1  0.4561760000000  0.4305650000000  0.5839950000000 1.0
C      1  0.5485240000000  0.5174730000000  0.5338240000000 1.0
C      1  0.4973670000000  0.3931550000000  0.5389200000000 1.0
C      1  0.4718580000000  0.5602610000000  0.4050500000000 1.0
C      1  0.4723660000000  0.5596850000000  0.4540790000000 1.0
C      1  0.5458860000000  0.3968660000000  0.5049640000000 1.0
C      1  0.4369560000000  0.5870220000000  0.5438690000000 1.0
C      1  0.5202210000000  0.6026980000000  0.5502500000000 1.0
C      1  0.5601090000000  0.5333630000000  0.4729580000000 1.0
C      1  0.5595980000000  0.5153420000000  0.4222080000000 1.0
C      1  0.5093520000000  0.5927430000000  0.4822090000000 1.0
C      1  0.5469270000000  0.4436270000000  0.4843550000000 1.0
C      1  0.5012230000000  0.5657660000000  0.4455650000000 1.0
C      1  0.4758840000000  0.4162210000000  0.4474870000000 1.0
C      1  0.4035130000000  0.4907850000000  0.5471960000000 1.0
C      1  0.5314090000000  0.4916170000000  0.3932540000000 1.0
C      1  0.4252450000000  0.5837870000000  0.4423470000000 1.0
C      1  0.4486270000000  0.5909840000000  0.5149990000000 1.0
C      1  0.4658770000000  0.5330420000000  0.3967030000000 1.0
C      1  0.5598630000000  0.5034590000000  0.4678000000000 1.0
C      1  0.3932030000000  0.5015260000000  0.4829760000000 1.0
C      1  0.4960580000000  0.5762480000000  0.5594920000000 1.0
C      1  0.4750340000000  0.6131040000000  0.5322500000000 1.0
C      1  0.5030180000000  0.6065590000000  0.5278380000000 1.0
C      1  0.3997510000000  0.5400290000000  0.5468450000000 1.0
C      1  0.4766420000000  0.4409310000000  0.5140100000000 1.0
C      1  0.4777310000000  0.4461110000000  0.4519060000000 1.0
C      1  0.5669690000000  0.3931770000000  0.4838620000000 1.0
C      1  0.4355350000000  0.6037130000000  0.4638900000000 1.0
C      1  0.4916100000000  0.5047030000000  0.5294230000000 1.0
C      1  0.5696080000000  0.5432540000000  0.4310560000000 1.0
C      1  0.5090130000000  0.5779760000000  0.4210640000000 1.0
C      1  0.4425560000000  0.4918490000000  0.4097910000000 1.0
C      1  0.5328530000000  0.5027090000000  0.6069620000000 1.0
C      1  0.5930090000000  0.4379180000000  0.5426290000000 1.0
C      1  0.5130680000000  0.4826150000000  0.5215290000000 1.0
END
