TITL C-951343-2256-383 2.63326968664925e-06 125000 -603.423670772388 0 0 98 (C1) n - 1
REM
REM in /home/bkarasulu/work/CARBON/AIRSS/Generating-Clusters/EDIP-Nigel-Params/with-SteepDescent/Only-C1/SD-CG/HFTN-CG
REM
REM
REM
REM
REM
REM ./C.cell (11c1c37f851c82e70ff6c80c92926a4b)
REM
REM compiler GCC version 9.2.1 20190827 (Red Hat 9.2.1-1)
REM options -cpp -mtune=generic -march=x86-64 -g -O0 -fpre-include=/usr/include/finclude/math-vector-fortran.h
REM seed -2129639866 1550883675 -1744307730 -938770935 -272969085 -435698434 -246738852 -957994158 -1856434356 -1943895476 -295229412 1731889424 858107895 936394456 1267553935 1733364984 1222321517 -1622986602 1137978012 -1567342894 -466706901 1262019303 159203894 -648944120 1130040369 2013358634 -1427208398 -1761949749 1079304530 -1343152085 -1142219934 -803330471 1325244153
REM
CELL 1.54180   50.00000   50.00000   50.00000   90.00000   90.00000   90.00000
LATT -1
SFAC C  
C      1  0.5305090000000  0.4691540000000  0.5054620000000 1.0
C      1  0.4200920000000  0.4977840000000  0.5366670000000 1.0
C      1  0.4634410000000  0.5090350000000  0.5653660000000 1.0
C      1  0.5065780000000  0.4165330000000  0.4936440000000 1.0
C      1  0.4603950000000  0.5062040000000  0.4232120000000 1.0
C      1  0.5548630000000  0.5476600000000  0.4401010000000 1.0
C      1  0.4849390000000  0.5424380000000  0.4203270000000 1.0
C      1  0.4559270000000  0.4470040000000  0.4522800000000 1.0
C      1  0.5521750000000  0.4527880000000  0.5515430000000 1.0
C      1  0.5125870000000  0.5275630000000  0.5655800000000 1.0
C      1  0.4585770000000  0.4317690000000  0.4758250000000 1.0
C      1  0.4841150000000  0.5620470000000  0.5702010000000 1.0
C      1  0.5424260000000  0.4394610000000  0.5048440000000 1.0
C      1  0.5606660000000  0.5545790000000  0.4883890000000 1.0
C      1  0.4603520000000  0.4367820000000  0.5644850000000 1.0
C      1  0.4569420000000  0.4837240000000  0.5797330000000 1.0
C      1  0.5071470000000  0.4963320000000  0.4114870000000 1.0
C      1  0.5270510000000  0.5521420000000  0.5736450000000 1.0
C      1  0.5606950000000  0.5020830000000  0.4276710000000 1.0
C      1  0.5231300000000  0.4886520000000  0.5896180000000 1.0
C      1  0.5649830000000  0.4749320000000  0.4371140000000 1.0
C      1  0.5018940000000  0.4891650000000  0.5362160000000 1.0
C      1  0.5301340000000  0.4926600000000  0.4578600000000 1.0
C      1  0.4414300000000  0.5390000000000  0.5252690000000 1.0
C      1  0.4886260000000  0.4221570000000  0.5151940000000 1.0
C      1  0.5599490000000  0.5210940000000  0.5320680000000 1.0
C      1  0.5079220000000  0.5771560000000  0.5251000000000 1.0
C      1  0.5320750000000  0.5388190000000  0.4236530000000 1.0
C      1  0.5706040000000  0.4699370000000  0.4833330000000 1.0
C      1  0.5139890000000  0.5675580000000  0.4668440000000 1.0
C      1  0.5621140000000  0.4419670000000  0.4842200000000 1.0
C      1  0.4679660000000  0.5088370000000  0.4775080000000 1.0
C      1  0.4938800000000  0.5486270000000  0.4809290000000 1.0
C      1  0.4270080000000  0.5257930000000  0.5466560000000 1.0
C      1  0.4734680000000  0.4954260000000  0.4481890000000 1.0
C      1  0.5054610000000  0.5124960000000  0.4525610000000 1.0
C      1  0.4643510000000  0.4903840000000  0.5009820000000 1.0
C      1  0.4814190000000  0.4641720000000  0.4988660000000 1.0
C      1  0.4793140000000  0.4655230000000  0.4471460000000 1.0
C      1  0.5753480000000  0.5126280000000  0.5092410000000 1.0
C      1  0.4961250000000  0.5328170000000  0.5376160000000 1.0
C      1  0.4840100000000  0.5149190000000  0.4078940000000 1.0
C      1  0.5273630000000  0.5025970000000  0.5226740000000 1.0
C      1  0.5211390000000  0.5323820000000  0.5118310000000 1.0
C      1  0.5799780000000  0.5314760000000  0.4857700000000 1.0
C      1  0.4964780000000  0.4578040000000  0.4715390000000 1.0
C      1  0.5081930000000  0.5714530000000  0.5811860000000 1.0
C      1  0.4847140000000  0.5615120000000  0.5395920000000 1.0
C      1  0.5461320000000  0.5653110000000  0.4632730000000 1.0
C      1  0.4636580000000  0.4397060000000  0.5032850000000 1.0
C      1  0.4475170000000  0.4616910000000  0.5629720000000 1.0
C      1  0.4360310000000  0.4717450000000  0.5384870000000 1.0
C      1  0.5036280000000  0.5877220000000  0.4981130000000 1.0
C      1  0.4570470000000  0.5638490000000  0.5259600000000 1.0
C      1  0.4491460000000  0.5321410000000  0.4292330000000 1.0
C      1  0.4401470000000  0.5269780000000  0.5717820000000 1.0
C      1  0.5361020000000  0.5340220000000  0.4843160000000 1.0
C      1  0.4995850000000  0.4683050000000  0.4146790000000 1.0
C      1  0.4294500000000  0.5299720000000  0.5011670000000 1.0
C      1  0.4584970000000  0.5771410000000  0.4988170000000 1.0
C      1  0.4652160000000  0.5564860000000  0.4785720000000 1.0
C      1  0.4969070000000  0.5054150000000  0.5943940000000 1.0
C      1  0.5192140000000  0.4203750000000  0.4678940000000 1.0
C      1  0.5428730000000  0.5584010000000  0.5516880000000 1.0
C      1  0.5457520000000  0.4344310000000  0.4609490000000 1.0
C      1  0.5692420000000  0.5224180000000  0.4493210000000 1.0
C      1  0.5504230000000  0.4228170000000  0.5268480000000 1.0
C      1  0.4806860000000  0.4798890000000  0.5953960000000 1.0
C      1  0.5319850000000  0.4311310000000  0.5472230000000 1.0
C      1  0.4948200000000  0.5200670000000  0.4785680000000 1.0
C      1  0.5036300000000  0.4647700000000  0.5206190000000 1.0
C      1  0.5075100000000  0.5412750000000  0.4395870000000 1.0
C      1  0.5574500000000  0.5012470000000  0.5529890000000 1.0
C      1  0.4178670000000  0.5031280000000  0.5076200000000 1.0
C      1  0.4252230000000  0.4803780000000  0.4660400000000 1.0
C      1  0.4194170000000  0.5043650000000  0.4531730000000 1.0
C      1  0.5719500000000  0.4837280000000  0.5092970000000 1.0
C      1  0.4777880000000  0.5979900000000  0.4969570000000 1.0
C      1  0.5195190000000  0.4744570000000  0.4780900000000 1.0
C      1  0.4768850000000  0.5063370000000  0.5344300000000 1.0
C      1  0.4319770000000  0.5293760000000  0.4522880000000 1.0
C      1  0.5828550000000  0.4766220000000  0.4589660000000 1.0
C      1  0.4754250000000  0.5360890000000  0.5842180000000 1.0
C      1  0.5514960000000  0.5086320000000  0.4723910000000 1.0
C      1  0.4371460000000  0.4557480000000  0.5131310000000 1.0
C      1  0.5155920000000  0.4487400000000  0.4278780000000 1.0
C      1  0.4876190000000  0.4426710000000  0.5629950000000 1.0
C      1  0.5032670000000  0.4293300000000  0.4458650000000 1.0
C      1  0.5399910000000  0.4581970000000  0.4426420000000 1.0
C      1  0.5335530000000  0.5099530000000  0.4177950000000 1.0
C      1  0.4313180000000  0.4588780000000  0.4500350000000 1.0
C      1  0.5601800000000  0.4767720000000  0.5366270000000 1.0
C      1  0.5032730000000  0.4385180000000  0.5375380000000 1.0
C      1  0.5307780000000  0.5587460000000  0.5262750000000 1.0
C      1  0.5309570000000  0.5031980000000  0.5664020000000 1.0
C      1  0.4475910000000  0.5319470000000  0.4774750000000 1.0
C      1  0.4344910000000  0.4816620000000  0.4950880000000 1.0
C      1  0.4986550000000  0.4602050000000  0.5835180000000 1.0
END
