TITL C-951342-2639-747 -2.44284035641798e-07 125000 -454.189997120995 0 0 74 (C1) n - 1
REM
REM in /home/bkarasulu/work/CARBON/AIRSS/Generating-Clusters/EDIP-Nigel-Params/with-SteepDescent/Only-C1/SD-CG/HFTN-CG
REM
REM
REM
REM
REM
REM ./C.cell (11c1c37f851c82e70ff6c80c92926a4b)
REM
REM compiler GCC version 9.2.1 20190827 (Red Hat 9.2.1-1)
REM options -cpp -mtune=generic -march=x86-64 -g -O0 -fpre-include=/usr/include/finclude/math-vector-fortran.h
REM seed -1215743218 1246735327 -507762155 -1428173618 519838258 2063906276 697009147 -175029542 -992775968 -716384487 -328720072 1019843431 -704220780 -1960569169 -1918502097 1776845673 1544323899 -1119516688 891965523 1345235057 1726265895 281784903 -1564767051 -1590224316 1976476813 -1757977758 949073014 -25345330 186001343 460824113 -1854884040 -389256874 -297899241
REM
CELL 1.54180   50.00000   50.00000   50.00000   90.00000   90.00000   90.00000
LATT -1
SFAC C  
C      1  0.4927330000000  0.5555540000000  0.4494700000000 1.0
C      1  0.5330400000000  0.5677670000000  0.5143280000000 1.0
C      1  0.5349620000000  0.5307230000000  0.4657400000000 1.0
C      1  0.4324900000000  0.5091540000000  0.5394360000000 1.0
C      1  0.4881150000000  0.4461120000000  0.5496210000000 1.0
C      1  0.5331160000000  0.4588950000000  0.5510080000000 1.0
C      1  0.5266040000000  0.5741010000000  0.4856650000000 1.0
C      1  0.5697120000000  0.4812130000000  0.4570570000000 1.0
C      1  0.4922830000000  0.4383760000000  0.5209490000000 1.0
C      1  0.5195420000000  0.4264010000000  0.5129280000000 1.0
C      1  0.5396030000000  0.4418990000000  0.4841320000000 1.0
C      1  0.5420460000000  0.5044990000000  0.5759550000000 1.0
C      1  0.5000250000000  0.4888560000000  0.4438370000000 1.0
C      1  0.5126620000000  0.5109420000000  0.4275500000000 1.0
C      1  0.5134980000000  0.4820850000000  0.4970640000000 1.0
C      1  0.5478750000000  0.4758230000000  0.4367510000000 1.0
C      1  0.5510530000000  0.4822250000000  0.5570750000000 1.0
C      1  0.4400640000000  0.5307880000000  0.4815760000000 1.0
C      1  0.4909030000000  0.5577570000000  0.5239650000000 1.0
C      1  0.5632950000000  0.4532330000000  0.5121040000000 1.0
C      1  0.5216590000000  0.5196060000000  0.4963080000000 1.0
C      1  0.4622250000000  0.4860530000000  0.4726660000000 1.0
C      1  0.5787470000000  0.5215070000000  0.4805620000000 1.0
C      1  0.4732820000000  0.5070640000000  0.5112640000000 1.0
C      1  0.4910750000000  0.4634230000000  0.5048690000000 1.0
C      1  0.4464530000000  0.5037090000000  0.4927190000000 1.0
C      1  0.4514120000000  0.4801560000000  0.4449550000000 1.0
C      1  0.4868190000000  0.5492160000000  0.5694440000000 1.0
C      1  0.5693440000000  0.4943490000000  0.4836910000000 1.0
C      1  0.4915350000000  0.5211600000000  0.4917210000000 1.0
C      1  0.5679390000000  0.5465330000000  0.4907560000000 1.0
C      1  0.4774500000000  0.4724710000000  0.4307380000000 1.0
C      1  0.4567710000000  0.4788640000000  0.5715940000000 1.0
C      1  0.5048250000000  0.5024690000000  0.5458900000000 1.0
C      1  0.4476420000000  0.5307880000000  0.4529870000000 1.0
C      1  0.4965240000000  0.5690390000000  0.4761230000000 1.0
C      1  0.5411220000000  0.4425820000000  0.5279940000000 1.0
C      1  0.5127120000000  0.5724530000000  0.5325790000000 1.0
C      1  0.4621920000000  0.4599650000000  0.5519840000000 1.0
C      1  0.4686990000000  0.4224210000000  0.5128880000000 1.0
C      1  0.4823180000000  0.5511120000000  0.4965270000000 1.0
C      1  0.4108070000000  0.5015290000000  0.4549090000000 1.0
C      1  0.5114110000000  0.5327020000000  0.4479160000000 1.0
C      1  0.4515480000000  0.5506300000000  0.5002550000000 1.0
C      1  0.5255960000000  0.4991420000000  0.5230090000000 1.0
C      1  0.4745970000000  0.5435590000000  0.5432430000000 1.0
C      1  0.5225570000000  0.4686560000000  0.4510830000000 1.0
C      1  0.4862370000000  0.4456190000000  0.4355400000000 1.0
C      1  0.5698530000000  0.4816990000000  0.5105370000000 1.0
C      1  0.5472440000000  0.5579620000000  0.4710560000000 1.0
C      1  0.4873570000000  0.5013020000000  0.4683500000000 1.0
C      1  0.5420030000000  0.5032580000000  0.4252650000000 1.0
C      1  0.5119430000000  0.5377670000000  0.5752660000000 1.0
C      1  0.5127160000000  0.5087920000000  0.5734060000000 1.0
C      1  0.5328660000000  0.4700760000000  0.4784090000000 1.0
C      1  0.4208960000000  0.4881820000000  0.4960710000000 1.0
C      1  0.4552480000000  0.5034230000000  0.5573800000000 1.0
C      1  0.5484830000000  0.5322130000000  0.5644850000000 1.0
C      1  0.4692270000000  0.4603740000000  0.4865770000000 1.0
C      1  0.4511960000000  0.4438480000000  0.5044680000000 1.0
C      1  0.5109170000000  0.4409940000000  0.4488600000000 1.0
C      1  0.3994290000000  0.4958620000000  0.4792090000000 1.0
C      1  0.4780250000000  0.5131710000000  0.5398860000000 1.0
C      1  0.5567940000000  0.5168560000000  0.4484950000000 1.0
C      1  0.4236830000000  0.4838960000000  0.5252510000000 1.0
C      1  0.4351980000000  0.5056490000000  0.4403960000000 1.0
C      1  0.5552540000000  0.4978510000000  0.5318850000000 1.0
C      1  0.4453790000000  0.5428450000000  0.5292560000000 1.0
C      1  0.5604530000000  0.5276740000000  0.5380190000000 1.0
C      1  0.4660150000000  0.5498840000000  0.4424920000000 1.0
C      1  0.5105170000000  0.4511900000000  0.5659780000000 1.0
C      1  0.5165910000000  0.4262200000000  0.4742160000000 1.0
C      1  0.5520570000000  0.5451150000000  0.5154420000000 1.0
C      1  0.4435340000000  0.4607190000000  0.5289200000000 1.0
END
