TITL C-951335-1172-442 -1.38105496184351e-06 125000 -1082.96433263177 0 0 173 (C1) n - 1
REM
REM in /home/bkarasulu/work/CARBON/AIRSS/Generating-Clusters/EDIP-Nigel-Params/with-SteepDescent/Only-C1/SD-CG/HFTN-CG
REM
REM
REM
REM
REM
REM ./C.cell (11c1c37f851c82e70ff6c80c92926a4b)
REM
REM compiler GCC version 9.2.1 20190827 (Red Hat 9.2.1-1)
REM options -cpp -mtune=generic -march=x86-64 -g -O0 -fpre-include=/usr/include/finclude/math-vector-fortran.h
REM seed 2040318671 -477214530 -1108823868 -1827465848 17691191 881792179 969460615 -493258955 143967560 1076119060 1677908217 -905424966 -1290552365 1802487979 -2122040597 1291974707 987912549 95424571 1344539213 547130334 -1049113098 2118655345 -1350305249 1706208684 -1774722384 -58081754 772185878 12926394 1733962349 1798087877 1524704202 934397450 1497344989
REM
CELL 1.54180   50.00000   50.00000   50.00000   90.00000   90.00000   90.00000
LATT -1
SFAC C  
C      1  0.5424370000000  0.4936340000000  0.4810590000000 1.0
C      1  0.4301330000000  0.4562190000000  0.4221650000000 1.0
C      1  0.4677990000000  0.4240710000000  0.4939670000000 1.0
C      1  0.3903880000000  0.5099240000000  0.5528640000000 1.0
C      1  0.5029700000000  0.4478950000000  0.4089250000000 1.0
C      1  0.5485920000000  0.4322730000000  0.5812880000000 1.0
C      1  0.5303990000000  0.5934040000000  0.5196940000000 1.0
C      1  0.5121420000000  0.4961140000000  0.5750890000000 1.0
C      1  0.5564080000000  0.4268040000000  0.5556600000000 1.0
C      1  0.5750080000000  0.5501410000000  0.4721170000000 1.0
C      1  0.5707370000000  0.5359490000000  0.5722040000000 1.0
C      1  0.5354450000000  0.5575360000000  0.4152450000000 1.0
C      1  0.5067130000000  0.5787800000000  0.4419450000000 1.0
C      1  0.4416310000000  0.5027060000000  0.4025880000000 1.0
C      1  0.5572490000000  0.5604180000000  0.5663370000000 1.0
C      1  0.3938530000000  0.5508030000000  0.4952890000000 1.0
C      1  0.4816290000000  0.4541600000000  0.5409200000000 1.0
C      1  0.4352130000000  0.5767520000000  0.4451260000000 1.0
C      1  0.4516760000000  0.5539900000000  0.5677600000000 1.0
C      1  0.4538740000000  0.5160030000000  0.5049260000000 1.0
C      1  0.5208440000000  0.5503710000000  0.5435300000000 1.0
C      1  0.4991990000000  0.4785700000000  0.4429610000000 1.0
C      1  0.3921770000000  0.4923360000000  0.5060430000000 1.0
C      1  0.5144440000000  0.5386720000000  0.6087950000000 1.0
C      1  0.4677980000000  0.4418010000000  0.4409510000000 1.0
C      1  0.4049880000000  0.5120860000000  0.4347570000000 1.0
C      1  0.4671090000000  0.5359320000000  0.4876700000000 1.0
C      1  0.4665110000000  0.4197090000000  0.5696850000000 1.0
C      1  0.4984170000000  0.5163870000000  0.6162480000000 1.0
C      1  0.4066420000000  0.5551620000000  0.5448940000000 1.0
C      1  0.4015460000000  0.5352990000000  0.5653640000000 1.0
C      1  0.4163820000000  0.4424390000000  0.4971280000000 1.0
C      1  0.5543470000000  0.5921800000000  0.4772700000000 1.0
C      1  0.5500420000000  0.4324330000000  0.4228490000000 1.0
C      1  0.5390590000000  0.3837930000000  0.4714190000000 1.0
C      1  0.5591940000000  0.4680950000000  0.5187990000000 1.0
C      1  0.6075790000000  0.4601320000000  0.5167850000000 1.0
C      1  0.5607850000000  0.4508280000000  0.4747780000000 1.0
C      1  0.4577020000000  0.4945080000000  0.6137670000000 1.0
C      1  0.4998310000000  0.4870270000000  0.3781640000000 1.0
C      1  0.4888590000000  0.4209450000000  0.4472190000000 1.0
C      1  0.5308300000000  0.4539210000000  0.5224050000000 1.0
C      1  0.5814020000000  0.4442890000000  0.5207540000000 1.0
C      1  0.5357760000000  0.4118290000000  0.4641600000000 1.0
C      1  0.4512760000000  0.4599240000000  0.5793840000000 1.0
C      1  0.4068060000000  0.5748940000000  0.4848980000000 1.0
C      1  0.5891620000000  0.4934630000000  0.4193480000000 1.0
C      1  0.5994250000000  0.5099390000000  0.4663130000000 1.0
C      1  0.5401840000000  0.5123340000000  0.5307000000000 1.0
C      1  0.5589660000000  0.5197400000000  0.5934390000000 1.0
C      1  0.4419890000000  0.4829640000000  0.5940460000000 1.0
C      1  0.5273790000000  0.6029100000000  0.4729730000000 1.0
C      1  0.5257450000000  0.4660890000000  0.4467060000000 1.0
C      1  0.4924610000000  0.3993360000000  0.5281190000000 1.0
C      1  0.4073530000000  0.4880470000000  0.5613680000000 1.0
C      1  0.5593860000000  0.5709270000000  0.4582340000000 1.0
C      1  0.4458570000000  0.4278540000000  0.5417980000000 1.0
C      1  0.5593460000000  0.4903760000000  0.5915100000000 1.0
C      1  0.6159680000000  0.4988100000000  0.4865470000000 1.0
C      1  0.4497260000000  0.5185050000000  0.5342160000000 1.0
C      1  0.5047320000000  0.3893970000000  0.5029750000000 1.0
C      1  0.4950500000000  0.6032360000000  0.4530040000000 1.0
C      1  0.3885380000000  0.5488200000000  0.5234700000000 1.0
C      1  0.5357800000000  0.4657470000000  0.4738470000000 1.0
C      1  0.4118720000000  0.4735930000000  0.5191150000000 1.0
C      1  0.4543450000000  0.4877160000000  0.4646550000000 1.0
C      1  0.5492390000000  0.5407110000000  0.5346210000000 1.0
C      1  0.5226870000000  0.4760250000000  0.5541450000000 1.0
C      1  0.6109990000000  0.5094440000000  0.5139050000000 1.0
C      1  0.5864580000000  0.5237690000000  0.5510390000000 1.0
C      1  0.4876840000000  0.5115020000000  0.3816110000000 1.0
C      1  0.4483510000000  0.5197120000000  0.4483130000000 1.0
C      1  0.4091870000000  0.5692010000000  0.4556750000000 1.0
C      1  0.5524760000000  0.5501980000000  0.5040740000000 1.0
C      1  0.5917740000000  0.4955370000000  0.5543450000000 1.0
C      1  0.4600660000000  0.5117510000000  0.3838720000000 1.0
C      1  0.5480960000000  0.4081440000000  0.5123280000000 1.0
C      1  0.5417900000000  0.5330100000000  0.6112220000000 1.0
C      1  0.5736750000000  0.4189450000000  0.5019430000000 1.0
C      1  0.4681060000000  0.4162300000000  0.5223200000000 1.0
C      1  0.5065650000000  0.5624610000000  0.4915640000000 1.0
C      1  0.4890680000000  0.4125240000000  0.4762050000000 1.0
C      1  0.4671940000000  0.4529280000000  0.4915470000000 1.0
C      1  0.4453420000000  0.4320600000000  0.4246140000000 1.0
C      1  0.4311050000000  0.5220360000000  0.4229610000000 1.0
C      1  0.5502490000000  0.4864050000000  0.5428920000000 1.0
C      1  0.4528040000000  0.4588080000000  0.5483950000000 1.0
C      1  0.5253030000000  0.5331000000000  0.4618870000000 1.0
C      1  0.5744310000000  0.4260700000000  0.4405800000000 1.0
C      1  0.5756850000000  0.4789670000000  0.5709870000000 1.0
C      1  0.5161360000000  0.4225300000000  0.4851530000000 1.0
C      1  0.5359330000000  0.4249190000000  0.5343450000000 1.0
C      1  0.5344530000000  0.5673980000000  0.5817020000000 1.0
C      1  0.4756480000000  0.5111700000000  0.5998880000000 1.0
C      1  0.5014140000000  0.5298740000000  0.3990210000000 1.0
C      1  0.5816580000000  0.5825310000000  0.5193720000000 1.0
C      1  0.5909220000000  0.4502820000000  0.4423640000000 1.0
C      1  0.4363720000000  0.5545540000000  0.5408740000000 1.0
C      1  0.5340380000000  0.3854560000000  0.4994910000000 1.0
C      1  0.5176030000000  0.4526390000000  0.4933460000000 1.0
C      1  0.5104560000000  0.4137800000000  0.5464070000000 1.0
C      1  0.4820530000000  0.4630740000000  0.4244990000000 1.0
C      1  0.5308990000000  0.4450930000000  0.5982150000000 1.0
C      1  0.4264450000000  0.5300790000000  0.5803720000000 1.0
C      1  0.5176300000000  0.4254590000000  0.4325360000000 1.0
C      1  0.3994750000000  0.4518670000000  0.5370510000000 1.0
C      1  0.6071600000000  0.4865250000000  0.5313210000000 1.0
C      1  0.5954880000000  0.5593160000000  0.5103290000000 1.0
C      1  0.5258190000000  0.5405060000000  0.4914330000000 1.0
C      1  0.6119520000000  0.4681500000000  0.4883730000000 1.0
C      1  0.5152300000000  0.5152750000000  0.5134610000000 1.0
C      1  0.5077960000000  0.5562100000000  0.5855060000000 1.0
C      1  0.5816720000000  0.4344900000000  0.5477340000000 1.0
C      1  0.5482120000000  0.4628120000000  0.4257020000000 1.0
C      1  0.4874330000000  0.5822940000000  0.5471280000000 1.0
C      1  0.4725390000000  0.5540720000000  0.4281620000000 1.0
C      1  0.5172150000000  0.5804850000000  0.5436670000000 1.0
C      1  0.4756540000000  0.5278490000000  0.4407690000000 1.0
C      1  0.5445830000000  0.5090960000000  0.4168160000000 1.0
C      1  0.5162480000000  0.4689660000000  0.3917900000000 1.0
C      1  0.4179890000000  0.4307190000000  0.5253180000000 1.0
C      1  0.5121030000000  0.5915240000000  0.4960120000000 1.0
C      1  0.5302250000000  0.5312340000000  0.4031490000000 1.0
C      1  0.4922940000000  0.4705900000000  0.4913070000000 1.0
C      1  0.4841790000000  0.5042740000000  0.5713250000000 1.0
C      1  0.5636590000000  0.4225220000000  0.4687730000000 1.0
C      1  0.5456060000000  0.5112990000000  0.4574230000000 1.0
C      1  0.3815320000000  0.5115450000000  0.5250320000000 1.0
C      1  0.4449130000000  0.5759950000000  0.5212650000000 1.0
C      1  0.5009740000000  0.4475090000000  0.5899880000000 1.0
C      1  0.4739820000000  0.5798690000000  0.5200070000000 1.0
C      1  0.4537120000000  0.4558400000000  0.4656410000000 1.0
C      1  0.5103470000000  0.5746130000000  0.4122920000000 1.0
C      1  0.6006260000000  0.5585030000000  0.4826590000000 1.0
C      1  0.4981180000000  0.5354090000000  0.5294480000000 1.0
C      1  0.4971710000000  0.4776290000000  0.5381320000000 1.0
C      1  0.4812920000000  0.5624960000000  0.5685880000000 1.0
C      1  0.4766350000000  0.5233160000000  0.5487010000000 1.0
C      1  0.4136620000000  0.4612600000000  0.4470470000000 1.0
C      1  0.4927710000000  0.4339410000000  0.5605180000000 1.0
C      1  0.5337740000000  0.5594060000000  0.4467030000000 1.0
C      1  0.5974100000000  0.5337090000000  0.5250460000000 1.0
C      1  0.4846180000000  0.5536100000000  0.5077560000000 1.0
C      1  0.4983280000000  0.4899220000000  0.5127240000000 1.0
C      1  0.3957080000000  0.5339380000000  0.4511290000000 1.0
C      1  0.4084380000000  0.4898240000000  0.4547290000000 1.0
C      1  0.4345740000000  0.5780550000000  0.4936630000000 1.0
C      1  0.5733480000000  0.5159050000000  0.4248730000000 1.0
C      1  0.4484200000000  0.4771630000000  0.4135140000000 1.0
C      1  0.4109600000000  0.5008410000000  0.4834410000000 1.0
C      1  0.5102850000000  0.4833560000000  0.6013270000000 1.0
C      1  0.4733270000000  0.6023750000000  0.4730040000000 1.0
C      1  0.4898190000000  0.5222140000000  0.4665490000000 1.0
C      1  0.4441170000000  0.5578300000000  0.4243470000000 1.0
C      1  0.4888640000000  0.5561760000000  0.4036170000000 1.0
C      1  0.5841480000000  0.4704370000000  0.4749360000000 1.0
C      1  0.4635690000000  0.4377750000000  0.5933700000000 1.0
C      1  0.5557270000000  0.5806130000000  0.5059830000000 1.0
C      1  0.4843140000000  0.6024670000000  0.5007990000000 1.0
C      1  0.5667240000000  0.4887180000000  0.4961350000000 1.0
C      1  0.5388290000000  0.4735970000000  0.6066310000000 1.0
C      1  0.4398300000000  0.4933960000000  0.4925500000000 1.0
C      1  0.4093550000000  0.5307470000000  0.4776170000000 1.0
C      1  0.5405870000000  0.4807870000000  0.4038770000000 1.0
C      1  0.5760980000000  0.4721430000000  0.4320560000000 1.0
C      1  0.4009650000000  0.4604150000000  0.5636170000000 1.0
C      1  0.4860850000000  0.4901560000000  0.4669560000000 1.0
C      1  0.5758630000000  0.5233840000000  0.4558050000000 1.0
C      1  0.4255920000000  0.5006610000000  0.5792670000000 1.0
C      1  0.4392440000000  0.4841160000000  0.5312270000000 1.0
C      1  0.4518250000000  0.5823030000000  0.4700460000000 1.0
C      1  0.4259030000000  0.4446650000000  0.4693200000000 1.0
C      1  0.4379860000000  0.5419800000000  0.4686620000000 1.0
END
