TITL C-950522-5749-47 -1.72679934958192e-06 125000 -463.104700343025 0 0 75 (C1) n - 1
REM
REM in /home/bkarasulu/work/CARBON/AIRSS/Generating-Clusters/EDIP-Nigel-Params/with-SteepDescent/Only-C1/SD-CG/HFTN-CG
REM
REM
REM
REM
REM
REM ./C.cell (11c1c37f851c82e70ff6c80c92926a4b)
REM
REM compiler GCC version 9.2.1 20190827 (Red Hat 9.2.1-1)
REM options -cpp -mtune=generic -march=x86-64 -g -O0 -fpre-include=/usr/include/finclude/math-vector-fortran.h
REM seed 183273441 -1889631068 1681588243 1628240112 203251345 1847691464 518838562 1585053525 163286485 -2087919075 576914300 -453041138 1195898132 1134354310 1008862538 98773377 1921646841 2005475979 554608771 -925491466 -510495198 -2054523153 1505283211 417213567 -402393293 -947289874 957320253 1403544910 -1541117567 153271684 -332716445 1543452149 -279199413
REM
CELL 1.54180   50.00000   50.00000   50.00000   90.00000   90.00000   90.00000
LATT -1
SFAC C  
C      1  0.5255750000000  0.5251240000000  0.4495980000000 1.0
C      1  0.5631260000000  0.4882040000000  0.4599150000000 1.0
C      1  0.4593620000000  0.5450110000000  0.5008500000000 1.0
C      1  0.4307430000000  0.4817650000000  0.5329020000000 1.0
C      1  0.5489680000000  0.5799210000000  0.4947030000000 1.0
C      1  0.5021990000000  0.5833660000000  0.5494930000000 1.0
C      1  0.5474350000000  0.4415760000000  0.5136400000000 1.0
C      1  0.5021740000000  0.5226790000000  0.5231690000000 1.0
C      1  0.4182710000000  0.5204430000000  0.5151960000000 1.0
C      1  0.5043550000000  0.4568150000000  0.4269810000000 1.0
C      1  0.4528210000000  0.4786720000000  0.5748720000000 1.0
C      1  0.4370440000000  0.4966910000000  0.4734700000000 1.0
C      1  0.5254880000000  0.5763640000000  0.5354730000000 1.0
C      1  0.4495200000000  0.4356380000000  0.4936820000000 1.0
C      1  0.5087240000000  0.4733500000000  0.5196100000000 1.0
C      1  0.4568230000000  0.4532550000000  0.4480070000000 1.0
C      1  0.5011340000000  0.4292270000000  0.5355920000000 1.0
C      1  0.5742540000000  0.4665210000000  0.5451800000000 1.0
C      1  0.5782530000000  0.5093160000000  0.5214690000000 1.0
C      1  0.5923100000000  0.4935140000000  0.5021120000000 1.0
C      1  0.5237480000000  0.5825270000000  0.5064660000000 1.0
C      1  0.5343260000000  0.4452380000000  0.4643330000000 1.0
C      1  0.4642230000000  0.4310760000000  0.4684750000000 1.0
C      1  0.5243990000000  0.4791790000000  0.4298250000000 1.0
C      1  0.5228190000000  0.5553600000000  0.4439430000000 1.0
C      1  0.4439920000000  0.4648310000000  0.5523160000000 1.0
C      1  0.5439110000000  0.4907530000000  0.4997920000000 1.0
C      1  0.5110060000000  0.4630840000000  0.5677520000000 1.0
C      1  0.5094310000000  0.4384990000000  0.4502150000000 1.0
C      1  0.5325760000000  0.5242740000000  0.5321360000000 1.0
C      1  0.5268520000000  0.4734580000000  0.5442830000000 1.0
C      1  0.5371550000000  0.5512020000000  0.5416820000000 1.0
C      1  0.4863500000000  0.5618350000000  0.5505160000000 1.0
C      1  0.5018370000000  0.5700090000000  0.4601770000000 1.0
C      1  0.4721490000000  0.4944730000000  0.4918380000000 1.0
C      1  0.4626460000000  0.4449860000000  0.5416540000000 1.0
C      1  0.4345990000000  0.4693260000000  0.4608920000000 1.0
C      1  0.4890460000000  0.4483010000000  0.4697380000000 1.0
C      1  0.5480690000000  0.5674890000000  0.4484660000000 1.0
C      1  0.5688970000000  0.4944810000000  0.5460470000000 1.0
C      1  0.4225130000000  0.5077210000000  0.5404130000000 1.0
C      1  0.5614460000000  0.5342960000000  0.4809570000000 1.0
C      1  0.4950150000000  0.4402200000000  0.5607100000000 1.0
C      1  0.4693450000000  0.5243110000000  0.4818250000000 1.0
C      1  0.5305400000000  0.4370430000000  0.4920070000000 1.0
C      1  0.5528810000000  0.5184670000000  0.5081620000000 1.0
C      1  0.4848160000000  0.5349510000000  0.5448920000000 1.0
C      1  0.5397740000000  0.5009150000000  0.5504590000000 1.0
C      1  0.4669390000000  0.5338660000000  0.4520310000000 1.0
C      1  0.4182320000000  0.4738620000000  0.5073010000000 1.0
C      1  0.4725880000000  0.5694880000000  0.4935240000000 1.0
C      1  0.5193270000000  0.4894880000000  0.4796790000000 1.0
C      1  0.5564670000000  0.5180930000000  0.4561640000000 1.0
C      1  0.5081230000000  0.5367350000000  0.4970200000000 1.0
C      1  0.4732820000000  0.5622630000000  0.4560360000000 1.0
C      1  0.4847880000000  0.4944290000000  0.4428230000000 1.0
C      1  0.4904330000000  0.4955430000000  0.5164040000000 1.0
C      1  0.4742890000000  0.4954620000000  0.5803470000000 1.0
C      1  0.4680640000000  0.4480870000000  0.5130760000000 1.0
C      1  0.5125710000000  0.5185580000000  0.4750040000000 1.0
C      1  0.5026160000000  0.5654320000000  0.4910080000000 1.0
C      1  0.4986920000000  0.4457670000000  0.5115490000000 1.0
C      1  0.4151720000000  0.4999610000000  0.4939600000000 1.0
C      1  0.5497060000000  0.4550340000000  0.5381770000000 1.0
C      1  0.5360030000000  0.4750490000000  0.4572040000000 1.0
C      1  0.4410330000000  0.5204390000000  0.4556720000000 1.0
C      1  0.4269160000000  0.4540870000000  0.4857490000000 1.0
C      1  0.5107490000000  0.5054870000000  0.4305240000000 1.0
C      1  0.5575130000000  0.5627570000000  0.4746300000000 1.0
C      1  0.5703920000000  0.4809130000000  0.4884360000000 1.0
C      1  0.4768640000000  0.4689960000000  0.4299070000000 1.0
C      1  0.4758370000000  0.5185310000000  0.5652490000000 1.0
C      1  0.4982380000000  0.4819890000000  0.5835880000000 1.0
C      1  0.4325930000000  0.5433880000000  0.5079950000000 1.0
C      1  0.4896340000000  0.4805430000000  0.4710590000000 1.0
END
