TITL C-950530-3293-176 1.16121417517608e-07 125000 -334.216633903541 0 0 56 (C1) n - 1
REM
REM in /home/bkarasulu/work/CARBON/AIRSS/Generating-Clusters/EDIP-Nigel-Params/with-SteepDescent/Only-C1/SD-CG/HFTN-CG
REM
REM
REM
REM
REM
REM ./C.cell (11c1c37f851c82e70ff6c80c92926a4b)
REM
REM compiler GCC version 9.2.1 20190827 (Red Hat 9.2.1-1)
REM options -cpp -mtune=generic -march=x86-64 -g -O0 -fpre-include=/usr/include/finclude/math-vector-fortran.h
REM seed 1301271160 -1218866965 -1471590489 -1415412746 1128814340 527849230 2049346509 610513986 -1226015724 -335364676 398639231 1075113821 -1131753693 -1785543045 464580042 -1282348606 689606745 -776205851 -1052736269 2119000223 -1711658897 -892349478 -1436820556 1128028621 -21442828 -875809600 654413008 -592383529 -463851165 2069652460 -1421055568 -402528829 771360490
REM
CELL 1.54180   50.00000   50.00000   50.00000   90.00000   90.00000   90.00000
LATT -1
SFAC C  
C      1  0.5274620000000  0.5576160000000  0.5268370000000 1.0
C      1  0.5119730000000  0.5526910000000  0.5504030000000 1.0
C      1  0.4357990000000  0.4584170000000  0.5096140000000 1.0
C      1  0.5100290000000  0.5504290000000  0.4633120000000 1.0
C      1  0.5157550000000  0.4424210000000  0.4499160000000 1.0
C      1  0.4655510000000  0.5438400000000  0.5602100000000 1.0
C      1  0.5313160000000  0.4681680000000  0.5138470000000 1.0
C      1  0.4733590000000  0.4748040000000  0.5440510000000 1.0
C      1  0.4383110000000  0.5181630000000  0.5038360000000 1.0
C      1  0.5263160000000  0.4762670000000  0.5440070000000 1.0
C      1  0.4892080000000  0.4869160000000  0.4974120000000 1.0
C      1  0.5564350000000  0.5056770000000  0.5300040000000 1.0
C      1  0.5164370000000  0.5087330000000  0.4280220000000 1.0
C      1  0.4384060000000  0.5429190000000  0.5411060000000 1.0
C      1  0.5661790000000  0.5268900000000  0.4856500000000 1.0
C      1  0.4332160000000  0.5006330000000  0.4789940000000 1.0
C      1  0.5188630000000  0.4887190000000  0.4954910000000 1.0
C      1  0.4327980000000  0.4706370000000  0.4846510000000 1.0
C      1  0.5069360000000  0.4367360000000  0.5497370000000 1.0
C      1  0.4611820000000  0.4462590000000  0.5083090000000 1.0
C      1  0.5617930000000  0.5026910000000  0.4444970000000 1.0
C      1  0.4742740000000  0.4632530000000  0.4700320000000 1.0
C      1  0.5046370000000  0.5592660000000  0.4888700000000 1.0
C      1  0.5665120000000  0.5294710000000  0.5162570000000 1.0
C      1  0.5548010000000  0.5524530000000  0.5270510000000 1.0
C      1  0.5149780000000  0.4636670000000  0.4328830000000 1.0
C      1  0.5729740000000  0.4823750000000  0.5288150000000 1.0
C      1  0.4713370000000  0.5022740000000  0.5394430000000 1.0
C      1  0.4819510000000  0.5183990000000  0.5600850000000 1.0
C      1  0.5047500000000  0.4441520000000  0.5218770000000 1.0
C      1  0.4859290000000  0.5383770000000  0.4545530000000 1.0
C      1  0.5322460000000  0.5048830000000  0.5486490000000 1.0
C      1  0.4819370000000  0.4643830000000  0.5185150000000 1.0
C      1  0.5088200000000  0.5239160000000  0.5493500000000 1.0
C      1  0.5611630000000  0.4673720000000  0.5084080000000 1.0
C      1  0.4256070000000  0.5207070000000  0.5287950000000 1.0
C      1  0.5118240000000  0.5390110000000  0.5081670000000 1.0
C      1  0.4906550000000  0.4396470000000  0.4611790000000 1.0
C      1  0.5351440000000  0.5351690000000  0.4631300000000 1.0
C      1  0.5690790000000  0.4775690000000  0.4837350000000 1.0
C      1  0.4798250000000  0.4886640000000  0.4547630000000 1.0
C      1  0.4907160000000  0.4229330000000  0.5052100000000 1.0
C      1  0.4462880000000  0.4564410000000  0.4650810000000 1.0
C      1  0.4528900000000  0.5010200000000  0.4529690000000 1.0
C      1  0.5305020000000  0.5171070000000  0.4963790000000 1.0
C      1  0.4852330000000  0.5642790000000  0.5498570000000 1.0
C      1  0.5162080000000  0.4583020000000  0.5634210000000 1.0
C      1  0.4593900000000  0.5558800000000  0.5235050000000 1.0
C      1  0.4474790000000  0.5295470000000  0.4563110000000 1.0
C      1  0.4999530000000  0.4869880000000  0.4331470000000 1.0
C      1  0.5725040000000  0.5018020000000  0.4704510000000 1.0
C      1  0.4842610000000  0.5139400000000  0.5138560000000 1.0
C      1  0.4656430000000  0.5438190000000  0.4741780000000 1.0
C      1  0.5395990000000  0.5189240000000  0.4396190000000 1.0
C      1  0.4630460000000  0.5335840000000  0.5025880000000 1.0
C      1  0.5005190000000  0.4208010000000  0.4789640000000 1.0
END
