TITL C-951342-2639-335 -2.21059991090748e-06 125000 -643.288270374853 0 0 104 (C1) n - 1
REM
REM in /home/bkarasulu/work/CARBON/AIRSS/Generating-Clusters/EDIP-Nigel-Params/with-SteepDescent/Only-C1/SD-CG/HFTN-CG
REM
REM
REM
REM
REM
REM ./C.cell (11c1c37f851c82e70ff6c80c92926a4b)
REM
REM compiler GCC version 9.2.1 20190827 (Red Hat 9.2.1-1)
REM options -cpp -mtune=generic -march=x86-64 -g -O0 -fpre-include=/usr/include/finclude/math-vector-fortran.h
REM seed -957314574 -1585091172 -82934194 -1659678482 809752678 -463043688 1876223200 83172020 1277249739 -366968856 -1664773242 2057702244 760500979 562696516 94923140 -312319282 -2020261359 231156662 2084892489 773017940 -1835040369 2026414427 -751915937 1775335516 1061736415 -2105597497 -246283340 -31228127 508276953 379940120 -765441982 460024658 -1383883767
REM
CELL 1.54180   50.00000   50.00000   50.00000   90.00000   90.00000   90.00000
LATT -1
SFAC C  
C      1  0.5555790000000  0.4735900000000  0.4577830000000 1.0
C      1  0.5014450000000  0.5455100000000  0.5634460000000 1.0
C      1  0.5438950000000  0.5889780000000  0.5046510000000 1.0
C      1  0.5053650000000  0.5064170000000  0.5141560000000 1.0
C      1  0.5663690000000  0.5415890000000  0.4401930000000 1.0
C      1  0.5554320000000  0.5177060000000  0.5182100000000 1.0
C      1  0.5116790000000  0.4553990000000  0.5757050000000 1.0
C      1  0.4688180000000  0.4752660000000  0.5859660000000 1.0
C      1  0.4917630000000  0.5522990000000  0.4210430000000 1.0
C      1  0.5159860000000  0.4901230000000  0.4896840000000 1.0
C      1  0.4337840000000  0.5552880000000  0.4639150000000 1.0
C      1  0.5165100000000  0.5457320000000  0.4317170000000 1.0
C      1  0.5836100000000  0.5098600000000  0.4770380000000 1.0
C      1  0.5002750000000  0.4293910000000  0.5760450000000 1.0
C      1  0.4588570000000  0.5232180000000  0.5126170000000 1.0
C      1  0.5389080000000  0.4229370000000  0.5100320000000 1.0
C      1  0.4170290000000  0.4965000000000  0.5335090000000 1.0
C      1  0.4395720000000  0.4634990000000  0.4561810000000 1.0
C      1  0.5364740000000  0.5400610000000  0.5073540000000 1.0
C      1  0.5431310000000  0.5020780000000  0.5392790000000 1.0
C      1  0.5170790000000  0.5239290000000  0.5750420000000 1.0
C      1  0.5536020000000  0.4238840000000  0.4580380000000 1.0
C      1  0.5670470000000  0.4690420000000  0.5129150000000 1.0
C      1  0.5794100000000  0.5306560000000  0.5306430000000 1.0
C      1  0.5399560000000  0.4672520000000  0.4318210000000 1.0
C      1  0.4473460000000  0.4745310000000  0.5684500000000 1.0
C      1  0.4387480000000  0.5572710000000  0.4923100000000 1.0
C      1  0.4746790000000  0.5408470000000  0.5570440000000 1.0
C      1  0.4840930000000  0.4578240000000  0.5238910000000 1.0
C      1  0.4592000000000  0.4180850000000  0.4624840000000 1.0
C      1  0.5359250000000  0.5686280000000  0.4654670000000 1.0
C      1  0.4997410000000  0.4365160000000  0.4835700000000 1.0
C      1  0.4774210000000  0.5010070000000  0.5161170000000 1.0
C      1  0.4741740000000  0.4328080000000  0.5345070000000 1.0
C      1  0.5142340000000  0.5885820000000  0.5015270000000 1.0
C      1  0.4308360000000  0.5528510000000  0.5392110000000 1.0
C      1  0.4587870000000  0.4577790000000  0.4349480000000 1.0
C      1  0.5391230000000  0.4972310000000  0.4238380000000 1.0
C      1  0.5516780000000  0.5096930000000  0.5656900000000 1.0
C      1  0.4798280000000  0.5409860000000  0.4955760000000 1.0
C      1  0.5491670000000  0.4499960000000  0.4977410000000 1.0
C      1  0.4343360000000  0.5015080000000  0.5069100000000 1.0
C      1  0.5792140000000  0.5582350000000  0.5181890000000 1.0
C      1  0.4152360000000  0.4564320000000  0.5064210000000 1.0
C      1  0.4590640000000  0.5629850000000  0.4511200000000 1.0
C      1  0.5396210000000  0.5390520000000  0.4770770000000 1.0
C      1  0.4701530000000  0.4758550000000  0.5058950000000 1.0
C      1  0.4852610000000  0.5263250000000  0.4679790000000 1.0
C      1  0.5644040000000  0.4971150000000  0.4981740000000 1.0
C      1  0.4229730000000  0.5322900000000  0.4525270000000 1.0
C      1  0.4221110000000  0.4633320000000  0.5744270000000 1.0
C      1  0.5162710000000  0.4920820000000  0.5384600000000 1.0
C      1  0.5187600000000  0.4129910000000  0.4898600000000 1.0
C      1  0.4566840000000  0.4226000000000  0.5117290000000 1.0
C      1  0.4447450000000  0.4908270000000  0.4660370000000 1.0
C      1  0.4091790000000  0.5063500000000  0.4854250000000 1.0
C      1  0.4738500000000  0.4852060000000  0.4254030000000 1.0
C      1  0.4055120000000  0.4692170000000  0.5305320000000 1.0
C      1  0.4198960000000  0.5493120000000  0.5134470000000 1.0
C      1  0.4733090000000  0.5389900000000  0.4398000000000 1.0
C      1  0.5068380000000  0.5792970000000  0.4744620000000 1.0
C      1  0.5001920000000  0.4221600000000  0.5486510000000 1.0
C      1  0.5423290000000  0.4944870000000  0.4782050000000 1.0
C      1  0.5265270000000  0.4353130000000  0.5360280000000 1.0
C      1  0.5745760000000  0.5269620000000  0.5587800000000 1.0
C      1  0.4763290000000  0.5773960000000  0.4716690000000 1.0
C      1  0.5660360000000  0.5114970000000  0.4303980000000 1.0
C      1  0.4030170000000  0.5246200000000  0.5105450000000 1.0
C      1  0.4615470000000  0.5745760000000  0.4965390000000 1.0
C      1  0.5672840000000  0.4651690000000  0.5419620000000 1.0
C      1  0.5507840000000  0.4436070000000  0.5532470000000 1.0
C      1  0.4704450000000  0.4279760000000  0.4864000000000 1.0
C      1  0.5590770000000  0.5828590000000  0.4796250000000 1.0
C      1  0.4328660000000  0.4971800000000  0.5587120000000 1.0
C      1  0.5141960000000  0.5658770000000  0.5475430000000 1.0
C      1  0.5009930000000  0.5752020000000  0.5238510000000 1.0
C      1  0.5413180000000  0.4573150000000  0.5769570000000 1.0
C      1  0.5033680000000  0.4337170000000  0.4518290000000 1.0
C      1  0.5284330000000  0.4120760000000  0.4605540000000 1.0
C      1  0.5787150000000  0.4934220000000  0.4520510000000 1.0
C      1  0.5194390000000  0.4615560000000  0.4973060000000 1.0
C      1  0.5498450000000  0.5649770000000  0.5210110000000 1.0
C      1  0.4737520000000  0.4317910000000  0.4424450000000 1.0
C      1  0.5169440000000  0.5031570000000  0.4431320000000 1.0
C      1  0.4354920000000  0.5087670000000  0.4442600000000 1.0
C      1  0.5611550000000  0.4472800000000  0.4710070000000 1.0
C      1  0.5025140000000  0.5010730000000  0.5646070000000 1.0
C      1  0.5419240000000  0.5685760000000  0.5488780000000 1.0
C      1  0.5123140000000  0.4591630000000  0.4403150000000 1.0
C      1  0.5145130000000  0.5287090000000  0.4562980000000 1.0
C      1  0.5065410000000  0.5378540000000  0.5143020000000 1.0
C      1  0.4539730000000  0.5369490000000  0.5389090000000 1.0
C      1  0.5805540000000  0.5619240000000  0.4870110000000 1.0
C      1  0.4963800000000  0.4790850000000  0.5832620000000 1.0
C      1  0.4761520000000  0.4945170000000  0.4725250000000 1.0
C      1  0.5706410000000  0.5373490000000  0.4705790000000 1.0
C      1  0.4300850000000  0.4325220000000  0.5101680000000 1.0
C      1  0.5128190000000  0.4618170000000  0.5268820000000 1.0
C      1  0.5417000000000  0.5609460000000  0.4354200000000 1.0
C      1  0.4586350000000  0.5126410000000  0.4271960000000 1.0
C      1  0.5585580000000  0.4820160000000  0.5754810000000 1.0
C      1  0.4131710000000  0.4735580000000  0.4813830000000 1.0
C      1  0.4058330000000  0.4541670000000  0.5541660000000 1.0
C      1  0.4950620000000  0.4833580000000  0.4466830000000 1.0
END
