TITL C-950521-2237-196 -3.77555397281243e-06 125000 -1164.0385509462 0 0 187 (C1) n - 1
REM
REM in /home/bkarasulu/work/CARBON/AIRSS/Generating-Clusters/EDIP-Nigel-Params/with-SteepDescent/Only-C1/SD-CG/HFTN-CG
REM
REM
REM
REM
REM
REM ./C.cell (11c1c37f851c82e70ff6c80c92926a4b)
REM
REM compiler GCC version 9.2.1 20190827 (Red Hat 9.2.1-1)
REM options -cpp -mtune=generic -march=x86-64 -g -O0 -fpre-include=/usr/include/finclude/math-vector-fortran.h
REM seed -1329522965 1477924156 1965261626 772332442 957674855 -2112469197 1315421088 1707402323 2107563907 1414061085 -226467887 -2133772354 1144072694 1725095858 1846405082 101207214 955834157 1477337017 -976009741 379297379 1276724884 621825186 211980361 -2084987002 -1913933437 613017991 1757916952 811494564 1333797385 -847398530 1003102709 -1614185099 2108646851
REM
CELL 1.54180   50.00000   50.00000   50.00000   90.00000   90.00000   90.00000
LATT -1
SFAC C  
C      1  0.5750290000000  0.4313930000000  0.5579400000000 1.0
C      1  0.5553960000000  0.6090230000000  0.4636370000000 1.0
C      1  0.4290650000000  0.4449500000000  0.4635100000000 1.0
C      1  0.4546300000000  0.3952710000000  0.4855580000000 1.0
C      1  0.5288230000000  0.4521640000000  0.4630120000000 1.0
C      1  0.4236150000000  0.4947030000000  0.4813930000000 1.0
C      1  0.4970080000000  0.5199230000000  0.3999890000000 1.0
C      1  0.5504420000000  0.4794730000000  0.6118970000000 1.0
C      1  0.5381110000000  0.5787540000000  0.4272920000000 1.0
C      1  0.4468250000000  0.5249480000000  0.5990530000000 1.0
C      1  0.5088780000000  0.4190690000000  0.4177360000000 1.0
C      1  0.4071300000000  0.4880180000000  0.5295390000000 1.0
C      1  0.5887980000000  0.5755580000000  0.5220910000000 1.0
C      1  0.5275680000000  0.5976980000000  0.5156080000000 1.0
C      1  0.5455420000000  0.4691180000000  0.4470990000000 1.0
C      1  0.5634360000000  0.5391030000000  0.4712100000000 1.0
C      1  0.5099750000000  0.4445940000000  0.4064950000000 1.0
C      1  0.6123400000000  0.4957900000000  0.5203140000000 1.0
C      1  0.4619500000000  0.4158950000000  0.4302480000000 1.0
C      1  0.5353710000000  0.4619280000000  0.4101760000000 1.0
C      1  0.4763520000000  0.4730890000000  0.3828860000000 1.0
C      1  0.4869620000000  0.3940190000000  0.5379460000000 1.0
C      1  0.4893780000000  0.5515120000000  0.6162850000000 1.0
C      1  0.5240050000000  0.4467470000000  0.5851950000000 1.0
C      1  0.5794030000000  0.5250330000000  0.5142670000000 1.0
C      1  0.4504280000000  0.4704610000000  0.5854720000000 1.0
C      1  0.5554500000000  0.5354720000000  0.5264920000000 1.0
C      1  0.5543750000000  0.5841860000000  0.5497880000000 1.0
C      1  0.5977310000000  0.4358740000000  0.5391000000000 1.0
C      1  0.6024070000000  0.5153850000000  0.4480620000000 1.0
C      1  0.5651010000000  0.5934890000000  0.5244080000000 1.0
C      1  0.4454480000000  0.5973670000000  0.4438650000000 1.0
C      1  0.5089670000000  0.5661240000000  0.4243860000000 1.0
C      1  0.5985180000000  0.5652070000000  0.4949850000000 1.0
C      1  0.5479080000000  0.4060560000000  0.5244150000000 1.0
C      1  0.5609550000000  0.4403450000000  0.5121110000000 1.0
C      1  0.4611290000000  0.4695620000000  0.4957640000000 1.0
C      1  0.4584460000000  0.4779780000000  0.5250190000000 1.0
C      1  0.4593050000000  0.4351760000000  0.4067200000000 1.0
C      1  0.4705620000000  0.4336330000000  0.5616010000000 1.0
C      1  0.5202580000000  0.5117960000000  0.4737050000000 1.0
C      1  0.4425990000000  0.5343370000000  0.4147990000000 1.0
C      1  0.4607430000000  0.6019550000000  0.4891830000000 1.0
C      1  0.4347380000000  0.4485220000000  0.4093050000000 1.0
C      1  0.4993870000000  0.4612720000000  0.5922300000000 1.0
C      1  0.5486030000000  0.4202140000000  0.5491640000000 1.0
C      1  0.5611800000000  0.4864710000000  0.4659660000000 1.0
C      1  0.5198030000000  0.5181160000000  0.4434340000000 1.0
C      1  0.4693960000000  0.4401730000000  0.4934620000000 1.0
C      1  0.4653610000000  0.5415870000000  0.5183360000000 1.0
C      1  0.4483180000000  0.4129190000000  0.5624080000000 1.0
C      1  0.6004660000000  0.4685070000000  0.4745450000000 1.0
C      1  0.5056080000000  0.5869590000000  0.5643050000000 1.0
C      1  0.3930180000000  0.5266610000000  0.5034490000000 1.0
C      1  0.5158180000000  0.5678150000000  0.5204100000000 1.0
C      1  0.4877050000000  0.5073710000000  0.5976690000000 1.0
C      1  0.5737130000000  0.4511250000000  0.5788290000000 1.0
C      1  0.5493740000000  0.4592650000000  0.5914440000000 1.0
C      1  0.4570760000000  0.4950550000000  0.3865290000000 1.0
C      1  0.4221380000000  0.4273520000000  0.5611770000000 1.0
C      1  0.4006470000000  0.4198480000000  0.4866290000000 1.0
C      1  0.3884350000000  0.5116440000000  0.5297490000000 1.0
C      1  0.5729170000000  0.4344920000000  0.4707890000000 1.0
C      1  0.4679290000000  0.5121590000000  0.5551970000000 1.0
C      1  0.5275400000000  0.4017370000000  0.5046210000000 1.0
C      1  0.5700260000000  0.5636440000000  0.5643130000000 1.0
C      1  0.3880650000000  0.4462440000000  0.4818580000000 1.0
C      1  0.5557250000000  0.5096220000000  0.4299650000000 1.0
C      1  0.4358550000000  0.4979300000000  0.5237780000000 1.0
C      1  0.5697310000000  0.4231280000000  0.4441360000000 1.0
C      1  0.5085420000000  0.5616200000000  0.5493330000000 1.0
C      1  0.4253660000000  0.5382510000000  0.5534410000000 1.0
C      1  0.5859020000000  0.4990680000000  0.4324690000000 1.0
C      1  0.4183010000000  0.4213070000000  0.5121020000000 1.0
C      1  0.5150840000000  0.5639260000000  0.4734440000000 1.0
C      1  0.5553440000000  0.5398730000000  0.5779670000000 1.0
C      1  0.5487580000000  0.4053910000000  0.4521770000000 1.0
C      1  0.5457150000000  0.4355090000000  0.4830250000000 1.0
C      1  0.4959790000000  0.4160460000000  0.5576670000000 1.0
C      1  0.5837200000000  0.5628100000000  0.4480880000000 1.0
C      1  0.6014220000000  0.5208220000000  0.5321590000000 1.0
C      1  0.4902890000000  0.4057490000000  0.4340400000000 1.0
C      1  0.5086600000000  0.5465970000000  0.4480370000000 1.0
C      1  0.5904930000000  0.5557520000000  0.5441560000000 1.0
C      1  0.4262600000000  0.5594290000000  0.4852300000000 1.0
C      1  0.4455280000000  0.4073620000000  0.5111350000000 1.0
C      1  0.4097520000000  0.5133940000000  0.4437210000000 1.0
C      1  0.3976660000000  0.5083820000000  0.4794960000000 1.0
C      1  0.5257560000000  0.4871840000000  0.6214910000000 1.0
C      1  0.5755760000000  0.5156170000000  0.5876140000000 1.0
C      1  0.4959060000000  0.4106830000000  0.4628830000000 1.0
C      1  0.4980710000000  0.5021180000000  0.4308680000000 1.0
C      1  0.4838770000000  0.6011560000000  0.5484720000000 1.0
C      1  0.4793120000000  0.5113530000000  0.3780360000000 1.0
C      1  0.5344540000000  0.6000140000000  0.4482110000000 1.0
C      1  0.4215260000000  0.4940670000000  0.4244620000000 1.0
C      1  0.3996540000000  0.5221170000000  0.5568280000000 1.0
C      1  0.4416200000000  0.5775580000000  0.5290110000000 1.0
C      1  0.4917960000000  0.5495660000000  0.4041760000000 1.0
C      1  0.5899890000000  0.4321100000000  0.5113540000000 1.0
C      1  0.4400860000000  0.5473750000000  0.5795220000000 1.0
C      1  0.5493270000000  0.5218560000000  0.5522450000000 1.0
C      1  0.4185080000000  0.4651890000000  0.4253360000000 1.0
C      1  0.4902900000000  0.5666360000000  0.5019360000000 1.0
C      1  0.4578320000000  0.4394180000000  0.4503000000000 1.0
C      1  0.5107470000000  0.5931200000000  0.4642090000000 1.0
C      1  0.5406910000000  0.5372230000000  0.3937350000000 1.0
C      1  0.5006010000000  0.4835130000000  0.6104960000000 1.0
C      1  0.4650990000000  0.5621210000000  0.5720200000000 1.0
C      1  0.4973310000000  0.4019720000000  0.5098250000000 1.0
C      1  0.4743070000000  0.5485780000000  0.4667790000000 1.0
C      1  0.3930640000000  0.4618720000000  0.5070320000000 1.0
C      1  0.5610430000000  0.4683650000000  0.5260070000000 1.0
C      1  0.4635520000000  0.5550310000000  0.4104660000000 1.0
C      1  0.4690690000000  0.6003440000000  0.4276890000000 1.0
C      1  0.4150770000000  0.5454090000000  0.5077430000000 1.0
C      1  0.5175390000000  0.4553710000000  0.5388710000000 1.0
C      1  0.5698940000000  0.4991040000000  0.6093170000000 1.0
C      1  0.4069030000000  0.4177900000000  0.5387840000000 1.0
C      1  0.4874490000000  0.5425970000000  0.5603390000000 1.0
C      1  0.4515140000000  0.4542730000000  0.5417420000000 1.0
C      1  0.4712860000000  0.4974680000000  0.4744470000000 1.0
C      1  0.5270480000000  0.5406000000000  0.5917510000000 1.0
C      1  0.4844740000000  0.5963960000000  0.5046090000000 1.0
C      1  0.5065300000000  0.5239120000000  0.5776240000000 1.0
C      1  0.4888340000000  0.5218050000000  0.4808310000000 1.0
C      1  0.5581960000000  0.5358170000000  0.4155350000000 1.0
C      1  0.5206770000000  0.4919340000000  0.5070290000000 1.0
C      1  0.5025470000000  0.5076320000000  0.5265880000000 1.0
C      1  0.5504110000000  0.5118710000000  0.4738800000000 1.0
C      1  0.4255530000000  0.5384020000000  0.4389440000000 1.0
C      1  0.5090900000000  0.6077440000000  0.4919510000000 1.0
C      1  0.5368130000000  0.5501200000000  0.5098530000000 1.0
C      1  0.4556120000000  0.5826060000000  0.4094660000000 1.0
C      1  0.4199810000000  0.5588900000000  0.5333040000000 1.0
C      1  0.5367340000000  0.4931140000000  0.4113300000000 1.0
C      1  0.4562520000000  0.3966870000000  0.5374010000000 1.0
C      1  0.4135360000000  0.4092180000000  0.4633690000000 1.0
C      1  0.5185410000000  0.6142460000000  0.5393350000000 1.0
C      1  0.4573200000000  0.5829080000000  0.4665900000000 1.0
C      1  0.5220270000000  0.5086480000000  0.5548680000000 1.0
C      1  0.5348630000000  0.4784130000000  0.5334120000000 1.0
C      1  0.4601800000000  0.5008890000000  0.5829220000000 1.0
C      1  0.5891540000000  0.4708470000000  0.4438680000000 1.0
C      1  0.4083660000000  0.4785980000000  0.5575600000000 1.0
C      1  0.4840140000000  0.3917830000000  0.4838650000000 1.0
C      1  0.4326320000000  0.4649350000000  0.4869920000000 1.0
C      1  0.4449090000000  0.5106060000000  0.4702220000000 1.0
C      1  0.5335020000000  0.6007560000000  0.5619510000000 1.0
C      1  0.5665260000000  0.4505250000000  0.4307650000000 1.0
C      1  0.6054400000000  0.4434420000000  0.4889490000000 1.0
C      1  0.4858180000000  0.5240400000000  0.5092430000000 1.0
C      1  0.5360210000000  0.3984950000000  0.4768420000000 1.0
C      1  0.4820670000000  0.4377230000000  0.4678930000000 1.0
C      1  0.5152460000000  0.5573450000000  0.6106440000000 1.0
C      1  0.4850510000000  0.4841430000000  0.4509170000000 1.0
C      1  0.4597130000000  0.5846450000000  0.5521310000000 1.0
C      1  0.4467820000000  0.5232430000000  0.5366370000000 1.0
C      1  0.6073390000000  0.4728360000000  0.5380770000000 1.0
C      1  0.4025330000000  0.5001340000000  0.5745580000000 1.0
C      1  0.4051230000000  0.4541340000000  0.4483440000000 1.0
C      1  0.5050370000000  0.4702200000000  0.4958080000000 1.0
C      1  0.5009000000000  0.4620000000000  0.4672940000000 1.0
C      1  0.4366780000000  0.5859520000000  0.4998100000000 1.0
C      1  0.4740790000000  0.5279380000000  0.6156670000000 1.0
C      1  0.5447310000000  0.5605650000000  0.4832770000000 1.0
C      1  0.5723260000000  0.5027850000000  0.5601840000000 1.0
C      1  0.5877550000000  0.5797080000000  0.4717700000000 1.0
C      1  0.4814730000000  0.4913710000000  0.5391950000000 1.0
C      1  0.4307550000000  0.4589170000000  0.5638570000000 1.0
C      1  0.4418700000000  0.4038870000000  0.4600840000000 1.0
C      1  0.4728710000000  0.4512570000000  0.5857150000000 1.0
C      1  0.5253780000000  0.5137770000000  0.3928070000000 1.0
C      1  0.5223580000000  0.4331170000000  0.5583510000000 1.0
C      1  0.4423900000000  0.5411690000000  0.4648430000000 1.0
C      1  0.5093140000000  0.4484780000000  0.5130180000000 1.0
C      1  0.4820820000000  0.4530650000000  0.4019320000000 1.0
C      1  0.5594950000000  0.5591230000000  0.4325520000000 1.0
C      1  0.5613820000000  0.5879930000000  0.4814000000000 1.0
C      1  0.6073180000000  0.4930190000000  0.4902890000000 1.0
C      1  0.4920830000000  0.5869160000000  0.4399170000000 1.0
C      1  0.5882440000000  0.5372210000000  0.4889820000000 1.0
C      1  0.4205840000000  0.4512500000000  0.5108670000000 1.0
C      1  0.4441760000000  0.5055580000000  0.4106430000000 1.0
C      1  0.5796150000000  0.4742740000000  0.5491390000000 1.0
C      1  0.4882100000000  0.4305820000000  0.5131620000000 1.0
C      1  0.6069770000000  0.5183030000000  0.4755120000000 1.0
END
