TITL C-951345-2650-682 -2.70457768180817e-06 125000 -328.490595386247 0 0 54 (C1) n - 1
REM
REM in /home/bkarasulu/work/CARBON/AIRSS/Generating-Clusters/EDIP-Nigel-Params/with-SteepDescent/Only-C1/SD-CG/HFTN-CG
REM
REM
REM
REM
REM
REM ./C.cell (11c1c37f851c82e70ff6c80c92926a4b)
REM
REM compiler GCC version 9.2.1 20190827 (Red Hat 9.2.1-1)
REM options -cpp -mtune=generic -march=x86-64 -g -O0 -fpre-include=/usr/include/finclude/math-vector-fortran.h
REM seed -1171544340 -1741925554 701034968 593402254 954196236 -1086305925 -1402452286 1377260692 -690169136 1259776101 817636999 -1203574596 -653790023 -659665259 1732948459 -1335209003 498448826 117370827 309313294 -567702459 1509657191 316786285 -1969246530 1698173563 2100496369 958866042 1771437502 1175148045 -1298509676 -239008732 106200267 863018234 -1469771225
REM
CELL 1.54180   50.00000   50.00000   50.00000   90.00000   90.00000   90.00000
LATT -1
SFAC C  
C      1  0.4938080000000  0.4837940000000  0.5608200000000 1.0
C      1  0.5601720000000  0.4900030000000  0.5225540000000 1.0
C      1  0.5693890000000  0.5107240000000  0.5007660000000 1.0
C      1  0.4742550000000  0.4613880000000  0.4499780000000 1.0
C      1  0.5045530000000  0.5582020000000  0.5097820000000 1.0
C      1  0.4953240000000  0.5236630000000  0.4477740000000 1.0
C      1  0.5099210000000  0.5169170000000  0.4246430000000 1.0
C      1  0.5256790000000  0.4585710000000  0.5027570000000 1.0
C      1  0.5205310000000  0.4747230000000  0.4450900000000 1.0
C      1  0.4547090000000  0.4502780000000  0.4882880000000 1.0
C      1  0.4683860000000  0.4391430000000  0.4662060000000 1.0
C      1  0.5647010000000  0.5390670000000  0.5046310000000 1.0
C      1  0.4402590000000  0.5392350000000  0.4909180000000 1.0
C      1  0.4412170000000  0.4751820000000  0.4799460000000 1.0
C      1  0.5043120000000  0.5456470000000  0.4646090000000 1.0
C      1  0.5497390000000  0.4994300000000  0.4801760000000 1.0
C      1  0.4559710000000  0.4856490000000  0.4553820000000 1.0
C      1  0.5313980000000  0.5543360000000  0.4702720000000 1.0
C      1  0.4406600000000  0.4926360000000  0.5036660000000 1.0
C      1  0.4674600000000  0.5268540000000  0.4863210000000 1.0
C      1  0.4229410000000  0.5407360000000  0.5137720000000 1.0
C      1  0.4224530000000  0.5161100000000  0.4992030000000 1.0
C      1  0.5573230000000  0.5526210000000  0.5279640000000 1.0
C      1  0.4688230000000  0.5149310000000  0.4582620000000 1.0
C      1  0.5246250000000  0.4322060000000  0.4750170000000 1.0
C      1  0.5311360000000  0.5007640000000  0.4347650000000 1.0
C      1  0.5565820000000  0.4639510000000  0.5068020000000 1.0
C      1  0.4518810000000  0.5061700000000  0.5663470000000 1.0
C      1  0.5034010000000  0.4248840000000  0.4928140000000 1.0
C      1  0.5329660000000  0.5613540000000  0.4998730000000 1.0
C      1  0.4637600000000  0.5246210000000  0.5481190000000 1.0
C      1  0.4882920000000  0.5483590000000  0.4879380000000 1.0
C      1  0.4918420000000  0.4346940000000  0.5174710000000 1.0
C      1  0.5384630000000  0.4553150000000  0.4606080000000 1.0
C      1  0.4860220000000  0.5096960000000  0.5329520000000 1.0
C      1  0.5498780000000  0.5137460000000  0.4537430000000 1.0
C      1  0.5509850000000  0.5419150000000  0.4544720000000 1.0
C      1  0.4949440000000  0.4814280000000  0.4599270000000 1.0
C      1  0.5124130000000  0.4464580000000  0.5352050000000 1.0
C      1  0.4749290000000  0.5016390000000  0.5048670000000 1.0
C      1  0.5500200000000  0.5378110000000  0.5498580000000 1.0
C      1  0.5124620000000  0.4755690000000  0.5410300000000 1.0
C      1  0.5058880000000  0.5264950000000  0.5615860000000 1.0
C      1  0.4543600000000  0.4659560000000  0.5362010000000 1.0
C      1  0.5304580000000  0.4976460000000  0.5270260000000 1.0
C      1  0.4933000000000  0.5619720000000  0.5353220000000 1.0
C      1  0.5231150000000  0.5014490000000  0.4971600000000 1.0
C      1  0.5589400000000  0.4705450000000  0.4769900000000 1.0
C      1  0.5272490000000  0.5233990000000  0.5427240000000 1.0
C      1  0.4651070000000  0.4816380000000  0.5592570000000 1.0
C      1  0.4841510000000  0.5457980000000  0.5567310000000 1.0
C      1  0.4689140000000  0.4526560000000  0.5140620000000 1.0
C      1  0.4992430000000  0.4846070000000  0.4906150000000 1.0
C      1  0.4306890000000  0.4774180000000  0.5267380000000 1.0
END
