TITL C-950527-2551-98 -2.6414705397067e-06 125000 -675.505751690315 0 0 109 (C1) n - 1
REM
REM in /home/bkarasulu/work/CARBON/AIRSS/Generating-Clusters/EDIP-Nigel-Params/with-SteepDescent/Only-C1/SD-CG/HFTN-CG
REM
REM
REM
REM
REM
REM ./C.cell (11c1c37f851c82e70ff6c80c92926a4b)
REM
REM compiler GCC version 9.2.1 20190827 (Red Hat 9.2.1-1)
REM options -cpp -mtune=generic -march=x86-64 -g -O0 -fpre-include=/usr/include/finclude/math-vector-fortran.h
REM seed 1136848143 486627232 311554770 -545229165 553417756 1399264216 -2090397274 -1584245797 1441495348 722937651 -1468771702 -958474517 114597925 79568124 524145937 880895377 -1234849715 804576157 2023031201 -287160736 -796050338 -2108820562 -1242198735 -1648179800 1780456510 -2142622964 2146867845 521051540 671726990 209506580 -607501414 1317681142 -202929892
REM
CELL 1.54180   50.00000   50.00000   50.00000   90.00000   90.00000   90.00000
LATT -1
SFAC C  
C      1  0.5246540000000  0.5742630000000  0.5054190000000 1.0
C      1  0.5340790000000  0.4381610000000  0.5357040000000 1.0
C      1  0.4466580000000  0.4882770000000  0.4452030000000 1.0
C      1  0.4494090000000  0.5686520000000  0.4914390000000 1.0
C      1  0.5004200000000  0.4774670000000  0.5723480000000 1.0
C      1  0.4362400000000  0.5465960000000  0.5482950000000 1.0
C      1  0.5005090000000  0.4471440000000  0.5733530000000 1.0
C      1  0.4246700000000  0.4567990000000  0.4518460000000 1.0
C      1  0.5014270000000  0.4863360000000  0.5436640000000 1.0
C      1  0.4476080000000  0.4743460000000  0.4166290000000 1.0
C      1  0.5452030000000  0.5383010000000  0.4475230000000 1.0
C      1  0.5484580000000  0.4681100000000  0.4536730000000 1.0
C      1  0.4929790000000  0.5454210000000  0.4468090000000 1.0
C      1  0.4831120000000  0.5061810000000  0.4127580000000 1.0
C      1  0.5523460000000  0.4618800000000  0.5417640000000 1.0
C      1  0.5234620000000  0.4676280000000  0.4975190000000 1.0
C      1  0.4171260000000  0.5305160000000  0.5067840000000 1.0
C      1  0.4170370000000  0.4812680000000  0.5336760000000 1.0
C      1  0.5845680000000  0.5091950000000  0.5475670000000 1.0
C      1  0.5776830000000  0.5049210000000  0.4588190000000 1.0
C      1  0.5965600000000  0.4908250000000  0.5094790000000 1.0
C      1  0.5614680000000  0.4996830000000  0.4180570000000 1.0
C      1  0.4656700000000  0.5182910000000  0.5782350000000 1.0
C      1  0.4376790000000  0.5536040000000  0.4691610000000 1.0
C      1  0.5749460000000  0.5504060000000  0.4869920000000 1.0
C      1  0.4810860000000  0.5236290000000  0.4628720000000 1.0
C      1  0.5404300000000  0.5889280000000  0.5248430000000 1.0
C      1  0.4402640000000  0.5335260000000  0.4296230000000 1.0
C      1  0.4548880000000  0.5000660000000  0.5197440000000 1.0
C      1  0.4757320000000  0.4936500000000  0.4587100000000 1.0
C      1  0.5098270000000  0.4101970000000  0.5004370000000 1.0
C      1  0.5095000000000  0.5383250000000  0.5615230000000 1.0
C      1  0.5541540000000  0.5570270000000  0.4696190000000 1.0
C      1  0.5974260000000  0.4761080000000  0.5329180000000 1.0
C      1  0.5230920000000  0.5189670000000  0.4917970000000 1.0
C      1  0.4860220000000  0.5398660000000  0.5806540000000 1.0
C      1  0.4748400000000  0.5677130000000  0.5752650000000 1.0
C      1  0.4420170000000  0.4475890000000  0.4303070000000 1.0
C      1  0.4754710000000  0.4362900000000  0.5798450000000 1.0
C      1  0.4758580000000  0.4772840000000  0.4085970000000 1.0
C      1  0.5868650000000  0.5424630000000  0.5097750000000 1.0
C      1  0.4182660000000  0.4909130000000  0.4869090000000 1.0
C      1  0.5329110000000  0.4263720000000  0.5087900000000 1.0
C      1  0.5437760000000  0.4855160000000  0.5242000000000 1.0
C      1  0.5162790000000  0.5399600000000  0.4284960000000 1.0
C      1  0.4501870000000  0.4746550000000  0.5725800000000 1.0
C      1  0.4761770000000  0.5206860000000  0.5118400000000 1.0
C      1  0.4928270000000  0.5718830000000  0.4598470000000 1.0
C      1  0.5111950000000  0.5158070000000  0.4105680000000 1.0
C      1  0.5357450000000  0.5776720000000  0.4777180000000 1.0
C      1  0.4609930000000  0.4725160000000  0.5095590000000 1.0
C      1  0.5342490000000  0.5129250000000  0.5657290000000 1.0
C      1  0.5449340000000  0.4362250000000  0.4612140000000 1.0
C      1  0.4538530000000  0.4256270000000  0.4928030000000 1.0
C      1  0.5211800000000  0.5664580000000  0.5643830000000 1.0
C      1  0.4892090000000  0.4055910000000  0.5185950000000 1.0
C      1  0.4982320000000  0.5415190000000  0.5311090000000 1.0
C      1  0.5258100000000  0.4881650000000  0.4447800000000 1.0
C      1  0.4955370000000  0.5813850000000  0.5580360000000 1.0
C      1  0.5311880000000  0.4941270000000  0.4161190000000 1.0
C      1  0.5243260000000  0.5171260000000  0.4593770000000 1.0
C      1  0.5784570000000  0.4549620000000  0.5287290000000 1.0
C      1  0.5693960000000  0.5023110000000  0.5114330000000 1.0
C      1  0.4788320000000  0.5747240000000  0.4859450000000 1.0
C      1  0.4988080000000  0.5029180000000  0.5028460000000 1.0
C      1  0.5796010000000  0.5367460000000  0.5361080000000 1.0
C      1  0.5742020000000  0.4503030000000  0.4999900000000 1.0
C      1  0.4497260000000  0.5663750000000  0.5625130000000 1.0
C      1  0.4443920000000  0.5200050000000  0.5578030000000 1.0
C      1  0.5246580000000  0.5032690000000  0.5386390000000 1.0
C      1  0.4304490000000  0.4658930000000  0.4782040000000 1.0
C      1  0.5521840000000  0.5438110000000  0.5393090000000 1.0
C      1  0.5064490000000  0.4555310000000  0.4725820000000 1.0
C      1  0.5198270000000  0.4239860000000  0.4546020000000 1.0
C      1  0.4310040000000  0.5513580000000  0.5202210000000 1.0
C      1  0.4262330000000  0.4553560000000  0.5241250000000 1.0
C      1  0.5173130000000  0.5852810000000  0.4582130000000 1.0
C      1  0.4695480000000  0.4487970000000  0.5315300000000 1.0
C      1  0.4958000000000  0.5831620000000  0.5079800000000 1.0
C      1  0.5436280000000  0.5704150000000  0.5458110000000 1.0
C      1  0.5581020000000  0.5036730000000  0.4832570000000 1.0
C      1  0.4581490000000  0.4486930000000  0.5610590000000 1.0
C      1  0.4252150000000  0.5021860000000  0.5132660000000 1.0
C      1  0.4294010000000  0.5120110000000  0.4457540000000 1.0
C      1  0.5264510000000  0.4877430000000  0.5835530000000 1.0
C      1  0.4651680000000  0.5333060000000  0.4855800000000 1.0
C      1  0.5243000000000  0.5438290000000  0.5136280000000 1.0
C      1  0.4165010000000  0.5154130000000  0.4713730000000 1.0
C      1  0.4322210000000  0.4926460000000  0.5570710000000 1.0
C      1  0.4308440000000  0.4447150000000  0.4974910000000 1.0
C      1  0.4734320000000  0.4274140000000  0.4691330000000 1.0
C      1  0.4688650000000  0.4381580000000  0.4401820000000 1.0
C      1  0.4892030000000  0.4568530000000  0.4264000000000 1.0
C      1  0.5653780000000  0.5026430000000  0.5690800000000 1.0
C      1  0.5537250000000  0.4737650000000  0.5713350000000 1.0
C      1  0.4997870000000  0.4739930000000  0.4484180000000 1.0
C      1  0.4993180000000  0.4632470000000  0.5254070000000 1.0
C      1  0.4616800000000  0.5248910000000  0.4129960000000 1.0
C      1  0.4387300000000  0.5589690000000  0.4416940000000 1.0
C      1  0.5543090000000  0.4313680000000  0.4896990000000 1.0
C      1  0.4737760000000  0.4897490000000  0.5837320000000 1.0
C      1  0.5506770000000  0.4747400000000  0.4823050000000 1.0
C      1  0.4997890000000  0.4132160000000  0.4725920000000 1.0
C      1  0.4828590000000  0.4810740000000  0.4886380000000 1.0
C      1  0.5097610000000  0.4348980000000  0.5494420000000 1.0
C      1  0.5729280000000  0.4800060000000  0.4406100000000 1.0
C      1  0.5683870000000  0.5235050000000  0.4366330000000 1.0
C      1  0.4859060000000  0.5695820000000  0.5320830000000 1.0
C      1  0.4663150000000  0.4214850000000  0.5191090000000 1.0
END
