TITL C-951346-9544-503 -1.78957992860282e-06 125000 -1066.64828731221 0 0 170 (C1) n - 1
REM
REM in /home/bkarasulu/work/CARBON/AIRSS/Generating-Clusters/EDIP-Nigel-Params/with-SteepDescent/Only-C1/SD-CG/HFTN-CG
REM
REM
REM
REM
REM
REM ./C.cell (11c1c37f851c82e70ff6c80c92926a4b)
REM
REM compiler GCC version 9.2.1 20190827 (Red Hat 9.2.1-1)
REM options -cpp -mtune=generic -march=x86-64 -g -O0 -fpre-include=/usr/include/finclude/math-vector-fortran.h
REM seed -1717947215 -1363457591 1164218859 503710423 1261483240 1048628857 1488617338 1393039151 1326624907 2114756052 -475006688 -891554025 -1436229273 -1811147410 744164749 -1291775660 551012249 1266579273 726645499 -252190063 1941712563 394040297 -952488777 1008160656 1474219846 390999721 -2040506150 -1900751882 -1632280412 -984569932 -1236888280 2064229291 845128666
REM
CELL 1.54180   50.00000   50.00000   50.00000   90.00000   90.00000   90.00000
LATT -1
SFAC C  
C      1  0.5007940000000  0.5601490000000  0.5846490000000 1.0
C      1  0.4708410000000  0.4918720000000  0.4484630000000 1.0
C      1  0.5716170000000  0.5192220000000  0.4840030000000 1.0
C      1  0.4007240000000  0.4573280000000  0.5173190000000 1.0
C      1  0.4273930000000  0.4948650000000  0.4552820000000 1.0
C      1  0.4249310000000  0.5589570000000  0.4753080000000 1.0
C      1  0.4867450000000  0.4698550000000  0.4993760000000 1.0
C      1  0.4438720000000  0.5294270000000  0.4061930000000 1.0
C      1  0.5349990000000  0.5304230000000  0.5561640000000 1.0
C      1  0.4803330000000  0.4656920000000  0.5484780000000 1.0
C      1  0.4437110000000  0.5038640000000  0.5448330000000 1.0
C      1  0.5643290000000  0.5359040000000  0.4166440000000 1.0
C      1  0.5450620000000  0.5041330000000  0.5185550000000 1.0
C      1  0.5105810000000  0.5748270000000  0.5166620000000 1.0
C      1  0.4833280000000  0.5923190000000  0.5508630000000 1.0
C      1  0.4558930000000  0.4806460000000  0.5913660000000 1.0
C      1  0.4554970000000  0.4166400000000  0.4867830000000 1.0
C      1  0.4601340000000  0.5591990000000  0.4439810000000 1.0
C      1  0.4908200000000  0.5120250000000  0.5610210000000 1.0
C      1  0.5956050000000  0.5367560000000  0.4713270000000 1.0
C      1  0.5325260000000  0.4215510000000  0.4324660000000 1.0
C      1  0.4611250000000  0.4235110000000  0.5336770000000 1.0
C      1  0.4896590000000  0.5998280000000  0.4580950000000 1.0
C      1  0.4817890000000  0.4391050000000  0.5764760000000 1.0
C      1  0.5409740000000  0.5538160000000  0.4837370000000 1.0
C      1  0.4353020000000  0.4868790000000  0.5045740000000 1.0
C      1  0.4035230000000  0.5096450000000  0.4642870000000 1.0
C      1  0.4635940000000  0.5842310000000  0.5053400000000 1.0
C      1  0.6072940000000  0.4538320000000  0.5120830000000 1.0
C      1  0.5395060000000  0.4859470000000  0.6064310000000 1.0
C      1  0.4378580000000  0.5772550000000  0.5199450000000 1.0
C      1  0.4858300000000  0.5590150000000  0.4740710000000 1.0
C      1  0.5286130000000  0.4144360000000  0.4636460000000 1.0
C      1  0.5298340000000  0.4371770000000  0.5213630000000 1.0
C      1  0.4755700000000  0.5684350000000  0.4206340000000 1.0
C      1  0.5379790000000  0.4720280000000  0.4851990000000 1.0
C      1  0.5217860000000  0.5783080000000  0.4205990000000 1.0
C      1  0.5824680000000  0.4425930000000  0.5059290000000 1.0
C      1  0.4931520000000  0.4475060000000  0.4563430000000 1.0
C      1  0.5489380000000  0.4580670000000  0.5341800000000 1.0
C      1  0.5196010000000  0.5530440000000  0.4039390000000 1.0
C      1  0.4082790000000  0.4834090000000  0.5871420000000 1.0
C      1  0.5301410000000  0.5166970000000  0.6038460000000 1.0
C      1  0.4423180000000  0.5362240000000  0.4336810000000 1.0
C      1  0.5511940000000  0.5146280000000  0.4627690000000 1.0
C      1  0.5676540000000  0.4819790000000  0.5960600000000 1.0
C      1  0.4315660000000  0.4483390000000  0.5630470000000 1.0
C      1  0.5831780000000  0.5134320000000  0.4228060000000 1.0
C      1  0.5467030000000  0.5849280000000  0.5392230000000 1.0
C      1  0.5544390000000  0.5298700000000  0.5068400000000 1.0
C      1  0.4392210000000  0.5211380000000  0.5989880000000 1.0
C      1  0.4740920000000  0.4685370000000  0.4700890000000 1.0
C      1  0.4889450000000  0.5127920000000  0.3958920000000 1.0
C      1  0.5462180000000  0.4522130000000  0.4146220000000 1.0
C      1  0.5208100000000  0.4248920000000  0.5472700000000 1.0
C      1  0.4897390000000  0.4920260000000  0.5401690000000 1.0
C      1  0.5600820000000  0.5562750000000  0.4399630000000 1.0
C      1  0.5034550000000  0.5846910000000  0.5687720000000 1.0
C      1  0.5380690000000  0.5288830000000  0.4028810000000 1.0
C      1  0.5022670000000  0.5363490000000  0.6026390000000 1.0
C      1  0.5414710000000  0.6025780000000  0.4625390000000 1.0
C      1  0.4758960000000  0.5227370000000  0.6075440000000 1.0
C      1  0.4672520000000  0.4532640000000  0.5250730000000 1.0
C      1  0.5115970000000  0.4483810000000  0.5924720000000 1.0
C      1  0.4921620000000  0.5440270000000  0.4101240000000 1.0
C      1  0.5584420000000  0.5970100000000  0.4876070000000 1.0
C      1  0.4622440000000  0.5955960000000  0.4747470000000 1.0
C      1  0.5570120000000  0.5295680000000  0.5937320000000 1.0
C      1  0.4180010000000  0.5212670000000  0.5493420000000 1.0
C      1  0.5014650000000  0.4042000000000  0.5435590000000 1.0
C      1  0.5031190000000  0.4966150000000  0.5841140000000 1.0
C      1  0.5987600000000  0.5122240000000  0.4492860000000 1.0
C      1  0.5838900000000  0.4929780000000  0.4935970000000 1.0
C      1  0.5143260000000  0.5995450000000  0.4752280000000 1.0
C      1  0.4958060000000  0.4998120000000  0.4321070000000 1.0
C      1  0.3980620000000  0.4747260000000  0.5407280000000 1.0
C      1  0.4725680000000  0.5558700000000  0.5013770000000 1.0
C      1  0.4638280000000  0.5187010000000  0.4616410000000 1.0
C      1  0.4528970000000  0.4379620000000  0.4276940000000 1.0
C      1  0.5534830000000  0.4138600000000  0.4813030000000 1.0
C      1  0.5253140000000  0.4697790000000  0.4005040000000 1.0
C      1  0.4406770000000  0.4685770000000  0.5311240000000 1.0
C      1  0.5755220000000  0.5429370000000  0.5242430000000 1.0
C      1  0.4003010000000  0.4987560000000  0.4918990000000 1.0
C      1  0.5888010000000  0.5587060000000  0.5029990000000 1.0
C      1  0.3974940000000  0.4682060000000  0.4906850000000 1.0
C      1  0.4292550000000  0.4287440000000  0.4894170000000 1.0
C      1  0.4279780000000  0.4504590000000  0.4410000000000 1.0
C      1  0.4590220000000  0.4563510000000  0.4056970000000 1.0
C      1  0.4804240000000  0.4527210000000  0.3883810000000 1.0
C      1  0.5286300000000  0.4979260000000  0.4697170000000 1.0
C      1  0.4313300000000  0.4926880000000  0.5997370000000 1.0
C      1  0.4930690000000  0.3923410000000  0.4788930000000 1.0
C      1  0.5055890000000  0.4255640000000  0.4198130000000 1.0
C      1  0.4585190000000  0.5062330000000  0.3980790000000 1.0
C      1  0.4613400000000  0.5172750000000  0.5671420000000 1.0
C      1  0.5715740000000  0.4362010000000  0.4791810000000 1.0
C      1  0.5357730000000  0.4758910000000  0.5543810000000 1.0
C      1  0.5684680000000  0.5696290000000  0.4836050000000 1.0
C      1  0.5427120000000  0.5960230000000  0.5127470000000 1.0
C      1  0.4867850000000  0.5922500000000  0.5230850000000 1.0
C      1  0.4650860000000  0.4053610000000  0.5110430000000 1.0
C      1  0.5922990000000  0.5205250000000  0.5360200000000 1.0
C      1  0.5526670000000  0.4544670000000  0.4644190000000 1.0
C      1  0.4903040000000  0.5323110000000  0.4635200000000 1.0
C      1  0.5713910000000  0.4669280000000  0.4216350000000 1.0
C      1  0.3871460000000  0.5013850000000  0.5391610000000 1.0
C      1  0.4713130000000  0.4063220000000  0.4641820000000 1.0
C      1  0.5574630000000  0.4795050000000  0.5071160000000 1.0
C      1  0.4518090000000  0.4828300000000  0.4160020000000 1.0
C      1  0.5737550000000  0.4224620000000  0.5250000000000 1.0
C      1  0.5087140000000  0.4337250000000  0.4767800000000 1.0
C      1  0.5031170000000  0.4504620000000  0.4038870000000 1.0
C      1  0.5062350000000  0.5371390000000  0.5541150000000 1.0
C      1  0.4235130000000  0.5372850000000  0.5767450000000 1.0
C      1  0.4792550000000  0.4943770000000  0.6016480000000 1.0
C      1  0.5834030000000  0.5616520000000  0.4576280000000 1.0
C      1  0.5762470000000  0.5032120000000  0.5553110000000 1.0
C      1  0.4914220000000  0.3943780000000  0.5086000000000 1.0
C      1  0.4389280000000  0.5305610000000  0.4780360000000 1.0
C      1  0.5935080000000  0.4859490000000  0.4641170000000 1.0
C      1  0.5104910000000  0.5191080000000  0.4807130000000 1.0
C      1  0.5790160000000  0.4611550000000  0.5771350000000 1.0
C      1  0.5286300000000  0.5917390000000  0.5592220000000 1.0
C      1  0.4433270000000  0.5560330000000  0.5387920000000 1.0
C      1  0.5209300000000  0.4598620000000  0.4433730000000 1.0
C      1  0.4068060000000  0.5411710000000  0.5189090000000 1.0
C      1  0.4550870000000  0.5084110000000  0.5154070000000 1.0
C      1  0.5170840000000  0.3877750000000  0.4650420000000 1.0
C      1  0.5190190000000  0.4882380000000  0.4444630000000 1.0
C      1  0.5459520000000  0.5833930000000  0.4363360000000 1.0
C      1  0.6034990000000  0.5005020000000  0.5163840000000 1.0
C      1  0.4550860000000  0.4530270000000  0.5822260000000 1.0
C      1  0.5239750000000  0.4632100000000  0.6131440000000 1.0
C      1  0.5153180000000  0.4540250000000  0.4973240000000 1.0
C      1  0.5729690000000  0.4699090000000  0.4500890000000 1.0
C      1  0.4146880000000  0.5418810000000  0.4301930000000 1.0
C      1  0.4156740000000  0.5653360000000  0.5039300000000 1.0
C      1  0.5011790000000  0.5450260000000  0.5249160000000 1.0
C      1  0.5206230000000  0.5011410000000  0.3969890000000 1.0
C      1  0.4844470000000  0.4984560000000  0.5132880000000 1.0
C      1  0.4259840000000  0.4789220000000  0.4308170000000 1.0
C      1  0.4498180000000  0.5471470000000  0.5651900000000 1.0
C      1  0.5650400000000  0.4361850000000  0.5513350000000 1.0
C      1  0.5133960000000  0.5715560000000  0.4864030000000 1.0
C      1  0.5857600000000  0.4753290000000  0.5523530000000 1.0
C      1  0.4069740000000  0.4649110000000  0.5663640000000 1.0
C      1  0.4053880000000  0.5396630000000  0.4576630000000 1.0
C      1  0.5115080000000  0.4700640000000  0.5713810000000 1.0
C      1  0.5762120000000  0.5084910000000  0.5852300000000 1.0
C      1  0.4393290000000  0.4753650000000  0.4761610000000 1.0
C      1  0.6060980000000  0.4748250000000  0.5307260000000 1.0
C      1  0.4951280000000  0.5878210000000  0.4302670000000 1.0
C      1  0.5585220000000  0.5532770000000  0.5760550000000 1.0
C      1  0.4435270000000  0.5782610000000  0.4595770000000 1.0
C      1  0.4182850000000  0.4339530000000  0.5165660000000 1.0
C      1  0.5804750000000  0.4895010000000  0.4077850000000 1.0
C      1  0.4993200000000  0.5291500000000  0.4355270000000 1.0
C      1  0.4197200000000  0.4514450000000  0.4725660000000 1.0
C      1  0.5485500000000  0.4143860000000  0.5106110000000 1.0
C      1  0.4783790000000  0.4155290000000  0.5567730000000 1.0
C      1  0.4328180000000  0.4267970000000  0.5413440000000 1.0
C      1  0.4784320000000  0.4251390000000  0.4401540000000 1.0
C      1  0.5411680000000  0.5411930000000  0.4573420000000 1.0
C      1  0.5600880000000  0.5594030000000  0.5462370000000 1.0
C      1  0.4488250000000  0.5364030000000  0.5056620000000 1.0
C      1  0.3912800000000  0.5166090000000  0.5147060000000 1.0
C      1  0.5438800000000  0.4198480000000  0.5632810000000 1.0
C      1  0.5464250000000  0.5035230000000  0.5473430000000 1.0
C      1  0.5049460000000  0.5192760000000  0.5086170000000 1.0
END
