TITL C-951346-9544-232 -1.91872688145755e-06 125000 -365.893999097924 0 0 59 (C1) n - 1
REM
REM in /home/bkarasulu/work/CARBON/AIRSS/Generating-Clusters/EDIP-Nigel-Params/with-SteepDescent/Only-C1/SD-CG/HFTN-CG
REM
REM
REM
REM
REM
REM ./C.cell (11c1c37f851c82e70ff6c80c92926a4b)
REM
REM compiler GCC version 9.2.1 20190827 (Red Hat 9.2.1-1)
REM options -cpp -mtune=generic -march=x86-64 -g -O0 -fpre-include=/usr/include/finclude/math-vector-fortran.h
REM seed -1224258993 791230980 1993025395 -413526309 812622146 976112212 894223776 2010663116 -962343505 -1411805000 808618340 -1932635306 1661228852 1056203098 295455363 249110157 -2082086064 -268284032 434237669 629659127 -1586379999 -1266539504 734731016 -917221869 775756653 -1291293405 -687971141 1339698792 2078656254 1787100175 1060395546 -584198972 1284185217
REM
CELL 1.54180   50.00000   50.00000   50.00000   90.00000   90.00000   90.00000
LATT -1
SFAC C  
C      1  0.5124000000000  0.5679380000000  0.5159870000000 1.0
C      1  0.4485570000000  0.5486220000000  0.4869920000000 1.0
C      1  0.4845670000000  0.5566150000000  0.5179620000000 1.0
C      1  0.4444340000000  0.4678410000000  0.5038400000000 1.0
C      1  0.5272630000000  0.4896030000000  0.4632510000000 1.0
C      1  0.4942830000000  0.4347320000000  0.5228430000000 1.0
C      1  0.4676080000000  0.4818190000000  0.4894230000000 1.0
C      1  0.5146700000000  0.4300270000000  0.4614600000000 1.0
C      1  0.4579340000000  0.4644180000000  0.4549190000000 1.0
C      1  0.4616440000000  0.4440960000000  0.5419570000000 1.0
C      1  0.5283580000000  0.5460780000000  0.4768560000000 1.0
C      1  0.5701300000000  0.5236210000000  0.4886700000000 1.0
C      1  0.5006690000000  0.4758300000000  0.4608090000000 1.0
C      1  0.5192810000000  0.5266030000000  0.4985580000000 1.0
C      1  0.5554810000000  0.5235350000000  0.4443180000000 1.0
C      1  0.4989810000000  0.4510270000000  0.5512910000000 1.0
C      1  0.5594400000000  0.5023900000000  0.5030690000000 1.0
C      1  0.5311110000000  0.4871850000000  0.5628360000000 1.0
C      1  0.5473610000000  0.4686550000000  0.4548410000000 1.0
C      1  0.5228200000000  0.4682820000000  0.5411250000000 1.0
C      1  0.4295070000000  0.5309650000000  0.5027840000000 1.0
C      1  0.4840620000000  0.4770500000000  0.5607880000000 1.0
C      1  0.4887640000000  0.5255060000000  0.5043110000000 1.0
C      1  0.5137320000000  0.5386570000000  0.4525550000000 1.0
C      1  0.5275020000000  0.5330930000000  0.5495320000000 1.0
C      1  0.4673320000000  0.4420940000000  0.4703060000000 1.0
C      1  0.4285480000000  0.5060320000000  0.4858310000000 1.0
C      1  0.4487980000000  0.4690240000000  0.5330670000000 1.0
C      1  0.5749750000000  0.4712900000000  0.4624670000000 1.0
C      1  0.4844570000000  0.4947630000000  0.5132580000000 1.0
C      1  0.5953510000000  0.4567580000000  0.4489930000000 1.0
C      1  0.4971420000000  0.4493960000000  0.4741230000000 1.0
C      1  0.4874600000000  0.5725640000000  0.4746440000000 1.0
C      1  0.4640090000000  0.4257700000000  0.5175460000000 1.0
C      1  0.5468740000000  0.5107210000000  0.5526600000000 1.0
C      1  0.4544460000000  0.5161600000000  0.5475790000000 1.0
C      1  0.4499150000000  0.4392350000000  0.4946410000000 1.0
C      1  0.4667640000000  0.5703550000000  0.4975380000000 1.0
C      1  0.5039070000000  0.4968260000000  0.5695630000000 1.0
C      1  0.5012720000000  0.5217070000000  0.5551770000000 1.0
C      1  0.5156440000000  0.5725150000000  0.4867020000000 1.0
C      1  0.4357150000000  0.5269710000000  0.5299720000000 1.0
C      1  0.5959460000000  0.4836700000000  0.4477540000000 1.0
C      1  0.5322240000000  0.5493980000000  0.5263140000000 1.0
C      1  0.4707230000000  0.5299260000000  0.4787430000000 1.0
C      1  0.5049580000000  0.4530230000000  0.5022580000000 1.0
C      1  0.4768410000000  0.4840720000000  0.4475120000000 1.0
C      1  0.5567570000000  0.5378250000000  0.4688230000000 1.0
C      1  0.4676030000000  0.4902890000000  0.5394290000000 1.0
C      1  0.4554530000000  0.5046310000000  0.4721060000000 1.0
C      1  0.5310220000000  0.4981900000000  0.4945480000000 1.0
C      1  0.5124020000000  0.4795390000000  0.5136020000000 1.0
C      1  0.5375300000000  0.4428000000000  0.4552720000000 1.0
C      1  0.4196360000000  0.4814490000000  0.4967210000000 1.0
C      1  0.5627370000000  0.5044130000000  0.5304200000000 1.0
C      1  0.4754560000000  0.5345420000000  0.5554060000000 1.0
C      1  0.4735780000000  0.5600580000000  0.5446310000000 1.0
C      1  0.4852260000000  0.5461280000000  0.4573000000000 1.0
C      1  0.5287420000000  0.5136780000000  0.4441130000000 1.0
END
