TITL C-950521-2237-400 -3.23151043194606e-06 125000 -889.937756580224 0 0 143 (C1) n - 1
REM
REM in /home/bkarasulu/work/CARBON/AIRSS/Generating-Clusters/EDIP-Nigel-Params/with-SteepDescent/Only-C1/SD-CG/HFTN-CG
REM
REM
REM
REM
REM
REM ./C.cell (11c1c37f851c82e70ff6c80c92926a4b)
REM
REM compiler GCC version 9.2.1 20190827 (Red Hat 9.2.1-1)
REM options -cpp -mtune=generic -march=x86-64 -g -O0 -fpre-include=/usr/include/finclude/math-vector-fortran.h
REM seed -561789972 -10065136 1460088707 -1927097830 -1954703477 -1957932241 -494403909 -1057200330 2126312611 -216600963 -1882080947 -760662069 -748140211 1799988524 -936543893 -479144632 -641204160 -804211501 -449777513 -667423859 -80404329 -1589635244 -1055444347 1977497486 -1846038406 357590773 1596291594 168081377 -1845676974 -1649135396 -762729921 -430419239 -1123409872
REM
CELL 1.54180   50.00000   50.00000   50.00000   90.00000   90.00000   90.00000
LATT -1
SFAC C  
C      1  0.5920130000000  0.5399870000000  0.5214790000000 1.0
C      1  0.4575360000000  0.4053970000000  0.5081580000000 1.0
C      1  0.4237530000000  0.5083720000000  0.5731410000000 1.0
C      1  0.5149250000000  0.4108550000000  0.4902680000000 1.0
C      1  0.5445030000000  0.4415800000000  0.4166600000000 1.0
C      1  0.5320550000000  0.4508020000000  0.4668670000000 1.0
C      1  0.5430450000000  0.4687720000000  0.4115810000000 1.0
C      1  0.5347970000000  0.5685900000000  0.4489550000000 1.0
C      1  0.4327890000000  0.5532330000000  0.5532930000000 1.0
C      1  0.4081570000000  0.4576160000000  0.5380460000000 1.0
C      1  0.5824500000000  0.4596260000000  0.4652000000000 1.0
C      1  0.5252150000000  0.5042270000000  0.4407490000000 1.0
C      1  0.4477300000000  0.5848530000000  0.4850350000000 1.0
C      1  0.4899660000000  0.4420420000000  0.4418380000000 1.0
C      1  0.4726110000000  0.5420730000000  0.5784340000000 1.0
C      1  0.4164040000000  0.4343520000000  0.5272710000000 1.0
C      1  0.5822370000000  0.4358780000000  0.4803430000000 1.0
C      1  0.4276840000000  0.4880180000000  0.4088750000000 1.0
C      1  0.5506160000000  0.5537200000000  0.5755970000000 1.0
C      1  0.4431480000000  0.5492990000000  0.4217180000000 1.0
C      1  0.5440710000000  0.5360750000000  0.5270110000000 1.0
C      1  0.5179380000000  0.5199150000000  0.4163080000000 1.0
C      1  0.4813620000000  0.5648600000000  0.5605700000000 1.0
C      1  0.4574360000000  0.5905190000000  0.5281720000000 1.0
C      1  0.4802620000000  0.4472250000000  0.5241560000000 1.0
C      1  0.4668760000000  0.4839820000000  0.5610570000000 1.0
C      1  0.5140420000000  0.4553410000000  0.5874280000000 1.0
C      1  0.5034740000000  0.4848570000000  0.4528120000000 1.0
C      1  0.4562800000000  0.4394680000000  0.4701380000000 1.0
C      1  0.4042520000000  0.5381500000000  0.5384190000000 1.0
C      1  0.4479850000000  0.5365900000000  0.5333580000000 1.0
C      1  0.4397730000000  0.4386190000000  0.4355420000000 1.0
C      1  0.5070530000000  0.5294020000000  0.4758870000000 1.0
C      1  0.5140100000000  0.4580720000000  0.4428360000000 1.0
C      1  0.4721680000000  0.4361750000000  0.5713180000000 1.0
C      1  0.4557250000000  0.4147770000000  0.4399750000000 1.0
C      1  0.4172640000000  0.5511000000000  0.4623450000000 1.0
C      1  0.5818120000000  0.5081930000000  0.5506230000000 1.0
C      1  0.4821150000000  0.5272650000000  0.4588580000000 1.0
C      1  0.5882730000000  0.4757400000000  0.5149050000000 1.0
C      1  0.5731090000000  0.5082880000000  0.4349520000000 1.0
C      1  0.4815750000000  0.5792190000000  0.4378130000000 1.0
C      1  0.5031440000000  0.5105140000000  0.5941940000000 1.0
C      1  0.4438040000000  0.4601630000000  0.4158430000000 1.0
C      1  0.5048700000000  0.5284510000000  0.5448500000000 1.0
C      1  0.4879510000000  0.4607660000000  0.5690680000000 1.0
C      1  0.4526420000000  0.4893600000000  0.4666920000000 1.0
C      1  0.5527340000000  0.4125870000000  0.5133760000000 1.0
C      1  0.6008310000000  0.4837180000000  0.4700360000000 1.0
C      1  0.4236230000000  0.5081680000000  0.4333080000000 1.0
C      1  0.4684730000000  0.5455800000000  0.5151680000000 1.0
C      1  0.5255650000000  0.4309180000000  0.5750760000000 1.0
C      1  0.4549430000000  0.5782430000000  0.5546150000000 1.0
C      1  0.5821700000000  0.5087500000000  0.4657660000000 1.0
C      1  0.4720310000000  0.4198510000000  0.4859650000000 1.0
C      1  0.5633190000000  0.5359640000000  0.4294460000000 1.0
C      1  0.5531470000000  0.4271590000000  0.5787360000000 1.0
C      1  0.5613980000000  0.4791670000000  0.5839960000000 1.0
C      1  0.4944450000000  0.4597720000000  0.4082550000000 1.0
C      1  0.5713510000000  0.4659970000000  0.5602290000000 1.0
C      1  0.4923340000000  0.5883270000000  0.4634850000000 1.0
C      1  0.4566340000000  0.5018460000000  0.4069460000000 1.0
C      1  0.4006420000000  0.4835330000000  0.5309980000000 1.0
C      1  0.3982410000000  0.5418320000000  0.4830770000000 1.0
C      1  0.5779990000000  0.5819620000000  0.5114610000000 1.0
C      1  0.4752430000000  0.5935490000000  0.4865390000000 1.0
C      1  0.5648730000000  0.4384290000000  0.5555630000000 1.0
C      1  0.5247660000000  0.5709330000000  0.4971150000000 1.0
C      1  0.5130900000000  0.5030870000000  0.3948720000000 1.0
C      1  0.4470070000000  0.4925610000000  0.5819220000000 1.0
C      1  0.5080660000000  0.5765570000000  0.5216230000000 1.0
C      1  0.4589720000000  0.5241140000000  0.4281240000000 1.0
C      1  0.5198300000000  0.4326210000000  0.5459660000000 1.0
C      1  0.5091670000000  0.5784150000000  0.5693640000000 1.0
C      1  0.5969810000000  0.5218220000000  0.4994960000000 1.0
C      1  0.4650800000000  0.4296540000000  0.5446970000000 1.0
C      1  0.4610850000000  0.4913710000000  0.5303460000000 1.0
C      1  0.4387110000000  0.5703820000000  0.4623610000000 1.0
C      1  0.4550350000000  0.4657450000000  0.4847610000000 1.0
C      1  0.5190280000000  0.5802790000000  0.4702030000000 1.0
C      1  0.5789270000000  0.5636110000000  0.5326790000000 1.0
C      1  0.5179220000000  0.4595800000000  0.4920220000000 1.0
C      1  0.5045160000000  0.4840660000000  0.4828720000000 1.0
C      1  0.5020900000000  0.4576300000000  0.5424430000000 1.0
C      1  0.4960920000000  0.4333130000000  0.4993660000000 1.0
C      1  0.4619740000000  0.5156870000000  0.4766040000000 1.0
C      1  0.4826240000000  0.5072020000000  0.6132090000000 1.0
C      1  0.5167050000000  0.5097290000000  0.5249980000000 1.0
C      1  0.4321090000000  0.4167620000000  0.5140700000000 1.0
C      1  0.4991150000000  0.5741680000000  0.4164990000000 1.0
C      1  0.5502740000000  0.4874810000000  0.4346190000000 1.0
C      1  0.5602720000000  0.5105310000000  0.5296000000000 1.0
C      1  0.5505890000000  0.5610160000000  0.5467920000000 1.0
C      1  0.4695310000000  0.4762750000000  0.4174290000000 1.0
C      1  0.5915440000000  0.4803300000000  0.5443370000000 1.0
C      1  0.4754830000000  0.4040930000000  0.5334790000000 1.0
C      1  0.5219080000000  0.4081090000000  0.4448650000000 1.0
C      1  0.5332040000000  0.5214050000000  0.4641500000000 1.0
C      1  0.5257900000000  0.5636150000000  0.5885330000000 1.0
C      1  0.5488790000000  0.5544220000000  0.5016420000000 1.0
C      1  0.4736620000000  0.5162760000000  0.5034950000000 1.0
C      1  0.4851450000000  0.4142370000000  0.4439080000000 1.0
C      1  0.5467280000000  0.4372300000000  0.5313290000000 1.0
C      1  0.6060830000000  0.4931090000000  0.4988460000000 1.0
C      1  0.4182070000000  0.5390100000000  0.4352200000000 1.0
C      1  0.4023030000000  0.4979500000000  0.4785870000000 1.0
C      1  0.4426220000000  0.5739270000000  0.5101490000000 1.0
C      1  0.5260440000000  0.5268860000000  0.6004440000000 1.0
C      1  0.5264260000000  0.3977520000000  0.5131260000000 1.0
C      1  0.4379540000000  0.5103960000000  0.5282800000000 1.0
C      1  0.5349710000000  0.4173820000000  0.4225820000000 1.0
C      1  0.3841740000000  0.5190720000000  0.4742610000000 1.0
C      1  0.4004350000000  0.4853890000000  0.5032800000000 1.0
C      1  0.4914270000000  0.5527910000000  0.5336650000000 1.0
C      1  0.5381230000000  0.5411040000000  0.4112600000000 1.0
C      1  0.5383640000000  0.4660840000000  0.5158220000000 1.0
C      1  0.5353330000000  0.4731190000000  0.5933830000000 1.0
C      1  0.4528420000000  0.5727120000000  0.4372980000000 1.0
C      1  0.5510250000000  0.5449100000000  0.4553150000000 1.0
C      1  0.5805960000000  0.5741020000000  0.4851550000000 1.0
C      1  0.4138140000000  0.5083910000000  0.5441570000000 1.0
C      1  0.4001070000000  0.5455290000000  0.5112170000000 1.0
C      1  0.5691840000000  0.5488790000000  0.4782690000000 1.0
C      1  0.5556640000000  0.4977040000000  0.4793890000000 1.0
C      1  0.5265650000000  0.5817780000000  0.5449250000000 1.0
C      1  0.5347730000000  0.4199480000000  0.4699740000000 1.0
C      1  0.5175420000000  0.4757860000000  0.3986410000000 1.0
C      1  0.4899910000000  0.5201930000000  0.5693350000000 1.0
C      1  0.5605890000000  0.4876580000000  0.5093630000000 1.0
C      1  0.5618620000000  0.4168490000000  0.4848580000000 1.0
C      1  0.4239260000000  0.4933180000000  0.4588910000000 1.0
C      1  0.4410800000000  0.5362410000000  0.5800010000000 1.0
C      1  0.4565580000000  0.5093760000000  0.6035110000000 1.0
C      1  0.5022650000000  0.5099200000000  0.4977260000000 1.0
C      1  0.4849170000000  0.5962170000000  0.5151270000000 1.0
C      1  0.5471100000000  0.5258340000000  0.5807370000000 1.0
C      1  0.5202400000000  0.4807740000000  0.5341080000000 1.0
C      1  0.5262960000000  0.5676690000000  0.4208880000000 1.0
C      1  0.4618210000000  0.4674520000000  0.5132450000000 1.0
C      1  0.5690770000000  0.5071730000000  0.5785220000000 1.0
C      1  0.5073340000000  0.4078320000000  0.5338730000000 1.0
C      1  0.5552430000000  0.4714420000000  0.4614510000000 1.0
C      1  0.4743180000000  0.4862990000000  0.4446510000000 1.0
END
