TITL C-950529-3362-32 -6.6911105250961e-07 125000 -247.323786748768 0 0 42 (C1) n - 1
REM
REM in /home/bkarasulu/work/CARBON/AIRSS/Generating-Clusters/EDIP-Nigel-Params/with-SteepDescent/Only-C1/SD-CG/HFTN-CG
REM
REM
REM
REM
REM
REM ./C.cell (11c1c37f851c82e70ff6c80c92926a4b)
REM
REM compiler GCC version 9.2.1 20190827 (Red Hat 9.2.1-1)
REM options -cpp -mtune=generic -march=x86-64 -g -O0 -fpre-include=/usr/include/finclude/math-vector-fortran.h
REM seed 364429918 -1600832295 -479422717 -1131185810 -1406628246 260808098 -914282277 -1932035608 -1748307663 1656628694 -1273029732 334145152 273066854 -918700765 1922289209 497549824 -552782859 -1019194284 -1263980398 -1487615925 2021213694 1424951894 911764857 814615951 1512784553 -2016847974 -418030463 521604146 1803247465 256871338 1740792219 1431562482 -1540156960
REM
CELL 1.54180   50.00000   50.00000   50.00000   90.00000   90.00000   90.00000
LATT -1
SFAC C  
C      1  0.5205740000000  0.4552000000000  0.5361680000000 1.0
C      1  0.5475070000000  0.4574530000000  0.5270350000000 1.0
C      1  0.5516270000000  0.4663730000000  0.5001570000000 1.0
C      1  0.5601510000000  0.4931590000000  0.5272630000000 1.0
C      1  0.5458130000000  0.5234800000000  0.4562460000000 1.0
C      1  0.5407800000000  0.5631350000000  0.4839700000000 1.0
C      1  0.4530200000000  0.5243990000000  0.4907770000000 1.0
C      1  0.4325190000000  0.5047230000000  0.4543610000000 1.0
C      1  0.5605440000000  0.4938020000000  0.4968300000000 1.0
C      1  0.4645680000000  0.5597290000000  0.5244140000000 1.0
C      1  0.5491750000000  0.5419140000000  0.5004820000000 1.0
C      1  0.5298670000000  0.5350030000000  0.5214510000000 1.0
C      1  0.4350700000000  0.5037600000000  0.4823810000000 1.0
C      1  0.4449470000000  0.5279610000000  0.4465200000000 1.0
C      1  0.4572870000000  0.5413630000000  0.4679650000000 1.0
C      1  0.4519930000000  0.5346790000000  0.5181390000000 1.0
C      1  0.5005160000000  0.4430480000000  0.4455680000000 1.0
C      1  0.4682570000000  0.4880020000000  0.5533990000000 1.0
C      1  0.5016500000000  0.4479420000000  0.4731180000000 1.0
C      1  0.4844200000000  0.4444310000000  0.5376960000000 1.0
C      1  0.5074590000000  0.4660300000000  0.4322180000000 1.0
C      1  0.4839310000000  0.4261910000000  0.5168990000000 1.0
C      1  0.5159040000000  0.4842620000000  0.4518440000000 1.0
C      1  0.4813460000000  0.5017290000000  0.5153050000000 1.0
C      1  0.5069500000000  0.4816770000000  0.5332900000000 1.0
C      1  0.5078660000000  0.4759120000000  0.4780830000000 1.0
C      1  0.5209110000000  0.5118150000000  0.4466480000000 1.0
C      1  0.5078990000000  0.5235430000000  0.5021600000000 1.0
C      1  0.5392010000000  0.5519420000000  0.4585070000000 1.0
C      1  0.5480610000000  0.5171090000000  0.4850530000000 1.0
C      1  0.4727980000000  0.5369830000000  0.5402940000000 1.0
C      1  0.4783260000000  0.5139180000000  0.5574170000000 1.0
C      1  0.4911500000000  0.4303920000000  0.4915470000000 1.0
C      1  0.5164460000000  0.4919690000000  0.5025980000000 1.0
C      1  0.4835790000000  0.5493510000000  0.4650370000000 1.0
C      1  0.4377650000000  0.4800740000000  0.4965650000000 1.0
C      1  0.5412230000000  0.5136540000000  0.5401420000000 1.0
C      1  0.5077490000000  0.5362180000000  0.4726890000000 1.0
C      1  0.5028250000000  0.5149460000000  0.5708190000000 1.0
C      1  0.4654450000000  0.4661990000000  0.5358260000000 1.0
C      1  0.4629740000000  0.4772490000000  0.5086640000000 1.0
C      1  0.5199120000000  0.4992780000000  0.5544560000000 1.0
END
