TITL C-951343-2256-38 0.130627532105455 125000 -158.252542468547 0 0 28 (C1) n - 1
REM
REM in /home/bkarasulu/work/CARBON/AIRSS/Generating-Clusters/EDIP-Nigel-Params/with-SteepDescent/Only-C1/SD-CG/HFTN-CG
REM
REM
REM
REM
REM
REM ./C.cell (11c1c37f851c82e70ff6c80c92926a4b)
REM
REM compiler GCC version 9.2.1 20190827 (Red Hat 9.2.1-1)
REM options -cpp -mtune=generic -march=x86-64 -g -O0 -fpre-include=/usr/include/finclude/math-vector-fortran.h
REM seed 170043542 1287280746 946219218 -556358918 1385028342 -307568328 -1290536855 1937100358 -1039153641 113345941 1237905463 1418945627 1574321267 959652368 -418469622 781481260 -1052021196 2050878907 -484162282 -1161757642 1857937544 -643663968 -366044254 1657946393 312232752 -1163899443 -1666460338 1969901380 761786550 170513509 1372484329 1318014555 1897700518
REM
CELL 1.54180   50.00000   50.00000   50.00000   90.00000   90.00000   90.00000
LATT -1
SFAC C  
C      1  0.5271290000000  0.4465790000000  0.4843350000000 1.0
C      1  0.5232810000000  0.5365090000000  0.4360540000000 1.0
C      1  0.4608810000000  0.4416370000000  0.5059860000000 1.0
C      1  0.4971320000000  0.4893090000000  0.5377300000000 1.0
C      1  0.4459420000000  0.5429640000000  0.5389200000000 1.0
C      1  0.5400770000000  0.5385450000000  0.5316740000000 1.0
C      1  0.5103750000000  0.4988310000000  0.4636910000000 1.0
C      1  0.4226960000000  0.5341550000000  0.5270700000000 1.0
C      1  0.4308550000000  0.5000750000000  0.5130660000000 1.0
C      1  0.5347890000000  0.5146970000000  0.5172370000000 1.0
C      1  0.4625000000000  0.4634660000000  0.5232430000000 1.0
C      1  0.4671110000000  0.4889610000000  0.4827600000000 1.0
C      1  0.5304770000000  0.5135030000000  0.4516670000000 1.0
C      1  0.5357560000000  0.4651490000000  0.5173630000000 1.0
C      1  0.4590210000000  0.4905270000000  0.5105900000000 1.0
C      1  0.4698370000000  0.5310800000000  0.5381910000000 1.0
C      1  0.4998960000000  0.4534840000000  0.4790060000000 1.0
C      1  0.5644880000000  0.5523440000000  0.4560840000000 1.0
C      1  0.4923800000000  0.4808510000000  0.4741130000000 1.0
C      1  0.4851240000000  0.4638130000000  0.5396560000000 1.0
C      1  0.5253520000000  0.4896330000000  0.5287300000000 1.0
C      1  0.4795070000000  0.4363610000000  0.4872490000000 1.0
C      1  0.5392640000000  0.5416510000000  0.4593650000000 1.0
C      1  0.5475970000000  0.4634710000000  0.4923410000000 1.0
C      1  0.5608470000000  0.5254320000000  0.5205250000000 1.0
C      1  0.4219500000000  0.5236550000000  0.5013740000000 1.0
C      1  0.5868320000000  0.5648110000000  0.4571210000000 1.0
C      1  0.4789010000000  0.5085080000000  0.5248580000000 1.0
END
