TITL C-950526-5686-336 -8.25089249003263e-07 125000 -810.922111991732 0 0 130 (C1) n - 1
REM
REM in /home/bkarasulu/work/CARBON/AIRSS/Generating-Clusters/EDIP-Nigel-Params/with-SteepDescent/Only-C1/SD-CG/HFTN-CG
REM
REM
REM
REM
REM
REM ./C.cell (11c1c37f851c82e70ff6c80c92926a4b)
REM
REM compiler GCC version 9.2.1 20190827 (Red Hat 9.2.1-1)
REM options -cpp -mtune=generic -march=x86-64 -g -O0 -fpre-include=/usr/include/finclude/math-vector-fortran.h
REM seed 617993731 -964258154 -332518337 385981130 1795373145 -1601840394 1182458546 1454477684 654102651 -230234477 409243508 85500766 -1989697155 802467480 1054650057 -1192674003 587185549 -106892422 -1272568249 657969072 -1507136800 -1079657081 341522079 -668921856 -323895648 1048373615 1993256893 -1884616621 1468063990 -1273851301 1117589024 1368384912 1418412894
REM
CELL 1.54180   50.00000   50.00000   50.00000   90.00000   90.00000   90.00000
LATT -1
SFAC C  
C      1  0.4134350000000  0.4662380000000  0.5052930000000 1.0
C      1  0.5298700000000  0.4776880000000  0.5389060000000 1.0
C      1  0.4679380000000  0.5983890000000  0.4672880000000 1.0
C      1  0.5749800000000  0.4927370000000  0.5573950000000 1.0
C      1  0.4178940000000  0.5191630000000  0.4967320000000 1.0
C      1  0.4538230000000  0.4420970000000  0.5219300000000 1.0
C      1  0.5859250000000  0.4519530000000  0.4922340000000 1.0
C      1  0.4882790000000  0.5803880000000  0.4392610000000 1.0
C      1  0.5050000000000  0.4247200000000  0.5545300000000 1.0
C      1  0.5540240000000  0.5267990000000  0.4358550000000 1.0
C      1  0.4117060000000  0.5066840000000  0.5232910000000 1.0
C      1  0.4410760000000  0.5276810000000  0.5600290000000 1.0
C      1  0.4166260000000  0.4721750000000  0.4775820000000 1.0
C      1  0.4576410000000  0.3874100000000  0.5027390000000 1.0
C      1  0.4476650000000  0.5442750000000  0.4283260000000 1.0
C      1  0.5077660000000  0.4200970000000  0.4741430000000 1.0
C      1  0.5390150000000  0.4883950000000  0.4738470000000 1.0
C      1  0.4906710000000  0.5516840000000  0.5332000000000 1.0
C      1  0.4596500000000  0.4103340000000  0.5541220000000 1.0
C      1  0.4367660000000  0.5189850000000  0.4192130000000 1.0
C      1  0.4671800000000  0.6042310000000  0.5198260000000 1.0
C      1  0.5216850000000  0.5576430000000  0.5857610000000 1.0
C      1  0.5823910000000  0.4945580000000  0.4663150000000 1.0
C      1  0.5497210000000  0.4446140000000  0.5604000000000 1.0
C      1  0.5078940000000  0.5378270000000  0.4538410000000 1.0
C      1  0.5644120000000  0.4307690000000  0.5397030000000 1.0
C      1  0.5030080000000  0.5525030000000  0.4898980000000 1.0
C      1  0.4692830000000  0.5469830000000  0.4089310000000 1.0
C      1  0.5727680000000  0.4504580000000  0.4653230000000 1.0
C      1  0.4563680000000  0.4095260000000  0.4839810000000 1.0
C      1  0.5872810000000  0.4820610000000  0.4935450000000 1.0
C      1  0.5444240000000  0.5828210000000  0.5342580000000 1.0
C      1  0.5641390000000  0.4377430000000  0.5103310000000 1.0
C      1  0.4596810000000  0.5101040000000  0.4025580000000 1.0
C      1  0.5015190000000  0.4633710000000  0.5842100000000 1.0
C      1  0.4415990000000  0.5608250000000  0.5196020000000 1.0
C      1  0.5553680000000  0.5034030000000  0.5753900000000 1.0
C      1  0.4972500000000  0.5227380000000  0.4937630000000 1.0
C      1  0.4262790000000  0.4401130000000  0.5114940000000 1.0
C      1  0.4786850000000  0.4154360000000  0.4650290000000 1.0
C      1  0.5434350000000  0.4578950000000  0.4721900000000 1.0
C      1  0.4475170000000  0.4491280000000  0.4437850000000 1.0
C      1  0.4365550000000  0.4760940000000  0.5563310000000 1.0
C      1  0.5439430000000  0.5066040000000  0.4984490000000 1.0
C      1  0.4337630000000  0.4506630000000  0.4687520000000 1.0
C      1  0.5660070000000  0.5765350000000  0.4647550000000 1.0
C      1  0.5089050000000  0.4381000000000  0.4999510000000 1.0
C      1  0.4786340000000  0.4272400000000  0.5668050000000 1.0
C      1  0.4335220000000  0.5622140000000  0.4730540000000 1.0
C      1  0.5545140000000  0.5328820000000  0.4860040000000 1.0
C      1  0.4325210000000  0.4272170000000  0.4851310000000 1.0
C      1  0.5376900000000  0.4466640000000  0.4992900000000 1.0
C      1  0.4868580000000  0.4743520000000  0.4692520000000 1.0
C      1  0.4998530000000  0.5733460000000  0.5730980000000 1.0
C      1  0.4857420000000  0.5082070000000  0.6036860000000 1.0
C      1  0.4363500000000  0.5039180000000  0.5410560000000 1.0
C      1  0.4821440000000  0.3766190000000  0.5094520000000 1.0
C      1  0.4834660000000  0.5576350000000  0.4593020000000 1.0
C      1  0.4232810000000  0.5484710000000  0.4978550000000 1.0
C      1  0.5470110000000  0.5583310000000  0.5729830000000 1.0
C      1  0.4915090000000  0.5652200000000  0.4131860000000 1.0
C      1  0.5162450000000  0.5485570000000  0.4114330000000 1.0
C      1  0.5069920000000  0.5776580000000  0.5258460000000 1.0
C      1  0.5382380000000  0.4565020000000  0.4219630000000 1.0
C      1  0.4601910000000  0.5016620000000  0.5225150000000 1.0
C      1  0.5323010000000  0.5485520000000  0.4369530000000 1.0
C      1  0.5106400000000  0.5151310000000  0.5627850000000 1.0
C      1  0.5280870000000  0.5007000000000  0.4003580000000 1.0
C      1  0.5810670000000  0.4722870000000  0.4469530000000 1.0
C      1  0.4932760000000  0.5949020000000  0.4807210000000 1.0
C      1  0.4500540000000  0.4669440000000  0.5813160000000 1.0
C      1  0.4946680000000  0.4556710000000  0.4452620000000 1.0
C      1  0.5057490000000  0.3909820000000  0.5130950000000 1.0
C      1  0.5812260000000  0.5124140000000  0.5342460000000 1.0
C      1  0.5149190000000  0.5106790000000  0.5128920000000 1.0
C      1  0.4854260000000  0.5003300000000  0.5660740000000 1.0
C      1  0.4979950000000  0.5118170000000  0.4424000000000 1.0
C      1  0.5183240000000  0.4724390000000  0.4055670000000 1.0
C      1  0.4985290000000  0.4183450000000  0.5242660000000 1.0
C      1  0.4791970000000  0.4860520000000  0.5380860000000 1.0
C      1  0.4734640000000  0.4347570000000  0.4435560000000 1.0
C      1  0.4765520000000  0.5551240000000  0.5605460000000 1.0
C      1  0.5172360000000  0.4945230000000  0.4563830000000 1.0
C      1  0.5450060000000  0.5805960000000  0.5040890000000 1.0
C      1  0.5107000000000  0.5290510000000  0.5362400000000 1.0
C      1  0.5200830000000  0.3949620000000  0.4873980000000 1.0
C      1  0.5756380000000  0.5468400000000  0.5022610000000 1.0
C      1  0.4192200000000  0.5007370000000  0.4701320000000 1.0
C      1  0.5043780000000  0.4826340000000  0.5208720000000 1.0
C      1  0.5177160000000  0.5857770000000  0.4640440000000 1.0
C      1  0.4613670000000  0.4613470000000  0.5444600000000 1.0
C      1  0.4434580000000  0.5893600000000  0.4809340000000 1.0
C      1  0.4408260000000  0.5555080000000  0.5495090000000 1.0
C      1  0.4952750000000  0.4645110000000  0.4975170000000 1.0
C      1  0.5118870000000  0.5309870000000  0.5881030000000 1.0
C      1  0.5475260000000  0.3960420000000  0.4919580000000 1.0
C      1  0.5051950000000  0.4855680000000  0.6032020000000 1.0
C      1  0.5120470000000  0.5901270000000  0.5525220000000 1.0
C      1  0.5325280000000  0.5572190000000  0.4865640000000 1.0
C      1  0.5684020000000  0.4935440000000  0.5134690000000 1.0
C      1  0.5531870000000  0.5040130000000  0.4162060000000 1.0
C      1  0.4711450000000  0.4997190000000  0.4554840000000 1.0
C      1  0.5304630000000  0.4943990000000  0.5630660000000 1.0
C      1  0.5592250000000  0.5616640000000  0.5481640000000 1.0
C      1  0.4934030000000  0.4733390000000  0.4206830000000 1.0
C      1  0.4685330000000  0.5214980000000  0.5011710000000 1.0
C      1  0.5670220000000  0.5207300000000  0.4613510000000 1.0
C      1  0.5568240000000  0.4987010000000  0.6031200000000 1.0
C      1  0.5721190000000  0.5755630000000  0.4928140000000 1.0
C      1  0.4548070000000  0.5187940000000  0.4733290000000 1.0
C      1  0.4676320000000  0.5264020000000  0.5741850000000 1.0
C      1  0.5246690000000  0.4443460000000  0.4494180000000 1.0
C      1  0.4672540000000  0.5477340000000  0.5144770000000 1.0
C      1  0.5076950000000  0.5205730000000  0.4073040000000 1.0
C      1  0.4922770000000  0.5975890000000  0.5095740000000 1.0
C      1  0.5211110000000  0.4452120000000  0.5676690000000 1.0
C      1  0.3973550000000  0.4823350000000  0.5217990000000 1.0
C      1  0.5596630000000  0.4733230000000  0.5364830000000 1.0
C      1  0.4345720000000  0.4989330000000  0.4406540000000 1.0
C      1  0.4543080000000  0.5457590000000  0.4581870000000 1.0
C      1  0.5316230000000  0.4916420000000  0.6107940000000 1.0
C      1  0.5659110000000  0.4086290000000  0.5080220000000 1.0
C      1  0.4448240000000  0.5899380000000  0.5109830000000 1.0
C      1  0.5421920000000  0.5755380000000  0.4486470000000 1.0
C      1  0.5699810000000  0.5401230000000  0.5307870000000 1.0
C      1  0.5607220000000  0.4763360000000  0.4252880000000 1.0
C      1  0.4749780000000  0.4508680000000  0.5839940000000 1.0
C      1  0.4671920000000  0.4821770000000  0.4098840000000 1.0
C      1  0.4468110000000  0.4744490000000  0.4293950000000 1.0
C      1  0.4669690000000  0.4158850000000  0.5261330000000 1.0
END
