TITL C-951337-3020-91 1.70441163172604e-06 125000 -561.254712816311 0 0 92 (C1) n - 1
REM
REM in /home/bkarasulu/work/CARBON/AIRSS/Generating-Clusters/EDIP-Nigel-Params/with-SteepDescent/Only-C1/SD-CG/HFTN-CG
REM
REM
REM
REM
REM
REM ./C.cell (11c1c37f851c82e70ff6c80c92926a4b)
REM
REM compiler GCC version 9.2.1 20190827 (Red Hat 9.2.1-1)
REM options -cpp -mtune=generic -march=x86-64 -g -O0 -fpre-include=/usr/include/finclude/math-vector-fortran.h
REM seed -225602994 1521697012 -938045202 -1427805599 -74036303 1665375886 1785500268 -654451541 229003716 1685399642 760723188 -267944363 -2080417267 887863606 -1113789443 294217779 -1233655439 -590069932 -790465384 877398658 -492313465 1988760336 1369827361 1799231008 -1294538925 -1511035573 -590130040 -19208289 -658143368 -932966 -931835839 169449724 65993181
REM
CELL 1.54180   50.00000   50.00000   50.00000   90.00000   90.00000   90.00000
LATT -1
SFAC C  
C      1  0.5834280000000  0.5372160000000  0.5071610000000 1.0
C      1  0.5526760000000  0.5101230000000  0.5432300000000 1.0
C      1  0.4845390000000  0.4897350000000  0.5004150000000 1.0
C      1  0.4799540000000  0.4758410000000  0.4148830000000 1.0
C      1  0.4372550000000  0.4641970000000  0.5156270000000 1.0
C      1  0.4233140000000  0.5197400000000  0.5098340000000 1.0
C      1  0.4649660000000  0.5660240000000  0.5143100000000 1.0
C      1  0.4646260000000  0.4579250000000  0.5262260000000 1.0
C      1  0.4348250000000  0.4938520000000  0.5221830000000 1.0
C      1  0.4549800000000  0.4816970000000  0.4287750000000 1.0
C      1  0.5092910000000  0.4347100000000  0.4606140000000 1.0
C      1  0.4940230000000  0.4033670000000  0.4877940000000 1.0
C      1  0.4747910000000  0.4192260000000  0.5033600000000 1.0
C      1  0.5728910000000  0.5217050000000  0.4857830000000 1.0
C      1  0.4352950000000  0.5045860000000  0.4650850000000 1.0
C      1  0.5676250000000  0.5607770000000  0.5065990000000 1.0
C      1  0.4807040000000  0.4185910000000  0.5337440000000 1.0
C      1  0.4827300000000  0.5744550000000  0.5592020000000 1.0
C      1  0.4576360000000  0.5406930000000  0.5283830000000 1.0
C      1  0.4492740000000  0.4340960000000  0.4598260000000 1.0
C      1  0.4921500000000  0.4920240000000  0.4735690000000 1.0
C      1  0.5609870000000  0.4581720000000  0.5092850000000 1.0
C      1  0.5215000000000  0.4754040000000  0.4315040000000 1.0
C      1  0.5389470000000  0.5184020000000  0.5179570000000 1.0
C      1  0.4936170000000  0.4109960000000  0.4605010000000 1.0
C      1  0.5093950000000  0.4493220000000  0.4349500000000 1.0
C      1  0.4956050000000  0.5710150000000  0.4277050000000 1.0
C      1  0.4287070000000  0.4938710000000  0.5522960000000 1.0
C      1  0.4385390000000  0.5271960000000  0.4839630000000 1.0
C      1  0.5539470000000  0.4438940000000  0.4843430000000 1.0
C      1  0.5507020000000  0.5699730000000  0.5283530000000 1.0
C      1  0.5447970000000  0.5900190000000  0.4750980000000 1.0
C      1  0.5011460000000  0.5111720000000  0.5906280000000 1.0
C      1  0.5609480000000  0.4998860000000  0.4353200000000 1.0
C      1  0.4872770000000  0.4481430000000  0.4172740000000 1.0
C      1  0.5044900000000  0.5232720000000  0.4200040000000 1.0
C      1  0.5133100000000  0.4864240000000  0.5563020000000 1.0
C      1  0.5354510000000  0.4378540000000  0.5646600000000 1.0
C      1  0.4857570000000  0.5183440000000  0.4627560000000 1.0
C      1  0.4309220000000  0.4525320000000  0.4895500000000 1.0
C      1  0.5399760000000  0.4819530000000  0.5443430000000 1.0
C      1  0.4581600000000  0.4284430000000  0.5504360000000 1.0
C      1  0.4456040000000  0.4608150000000  0.4484530000000 1.0
C      1  0.4343480000000  0.4755020000000  0.4696920000000 1.0
C      1  0.5076600000000  0.4338420000000  0.5385680000000 1.0
C      1  0.5099560000000  0.4462390000000  0.5744690000000 1.0
C      1  0.5274420000000  0.5366530000000  0.4361200000000 1.0
C      1  0.5541300000000  0.4565160000000  0.5532730000000 1.0
C      1  0.5557320000000  0.4603220000000  0.4617040000000 1.0
C      1  0.4843630000000  0.5450170000000  0.4272820000000 1.0
C      1  0.5030610000000  0.5454640000000  0.5061440000000 1.0
C      1  0.5004870000000  0.4942780000000  0.4250540000000 1.0
C      1  0.5133340000000  0.4517320000000  0.5121110000000 1.0
C      1  0.5367130000000  0.4741430000000  0.5152010000000 1.0
C      1  0.5257970000000  0.5208160000000  0.5817290000000 1.0
C      1  0.4983340000000  0.5113820000000  0.5482740000000 1.0
C      1  0.5251710000000  0.4348290000000  0.4877610000000 1.0
C      1  0.5228680000000  0.5740010000000  0.4674230000000 1.0
C      1  0.5095670000000  0.5199320000000  0.5208930000000 1.0
C      1  0.4861070000000  0.4619800000000  0.5056360000000 1.0
C      1  0.5213980000000  0.5666770000000  0.4385720000000 1.0
C      1  0.5054000000000  0.4740080000000  0.5807880000000 1.0
C      1  0.4627240000000  0.5205470000000  0.5615980000000 1.0
C      1  0.5212280000000  0.4067220000000  0.4966650000000 1.0
C      1  0.4569030000000  0.5396610000000  0.4381290000000 1.0
C      1  0.4491010000000  0.4498230000000  0.5664750000000 1.0
C      1  0.5293890000000  0.5001340000000  0.4715630000000 1.0
C      1  0.4683020000000  0.5610270000000  0.4842620000000 1.0
C      1  0.4490640000000  0.4261710000000  0.4879000000000 1.0
C      1  0.5439810000000  0.5310010000000  0.5628080000000 1.0
C      1  0.5493670000000  0.5034440000000  0.4943390000000 1.0
C      1  0.5123080000000  0.5679380000000  0.5236650000000 1.0
C      1  0.5204640000000  0.5485700000000  0.4821480000000 1.0
C      1  0.4281800000000  0.5382160000000  0.5327570000000 1.0
C      1  0.5379930000000  0.5568200000000  0.5504080000000 1.0
C      1  0.4794590000000  0.5299700000000  0.5837640000000 1.0
C      1  0.4503120000000  0.4782510000000  0.5657380000000 1.0
C      1  0.4721600000000  0.5306150000000  0.4880640000000 1.0
C      1  0.4864370000000  0.5565490000000  0.5789510000000 1.0
C      1  0.4717060000000  0.4817520000000  0.5450530000000 1.0
C      1  0.5698520000000  0.4453130000000  0.5326490000000 1.0
C      1  0.5572250000000  0.5274620000000  0.4368590000000 1.0
C      1  0.4533260000000  0.5092870000000  0.4427570000000 1.0
C      1  0.5428690000000  0.4833370000000  0.4498120000000 1.0
C      1  0.5819850000000  0.5642100000000  0.4606370000000 1.0
C      1  0.5685770000000  0.5766720000000  0.4820810000000 1.0
C      1  0.4653150000000  0.5033430000000  0.5213360000000 1.0
C      1  0.4863830000000  0.5785340000000  0.5317710000000 1.0
C      1  0.5713370000000  0.5378430000000  0.4607210000000 1.0
C      1  0.4472220000000  0.5558380000000  0.4625500000000 1.0
C      1  0.4314320000000  0.5227260000000  0.5588300000000 1.0
C      1  0.5167780000000  0.5272120000000  0.4627340000000 1.0
END
