TITL C-950536-5891-547 -4.68327006112185e-06 125000 -1068.80187367594 0 0 171 (C1) n - 1
REM
REM in /home/bkarasulu/work/CARBON/AIRSS/Generating-Clusters/EDIP-Nigel-Params/with-SteepDescent/Only-C1/SD-CG/HFTN-CG
REM
REM
REM
REM
REM
REM ./C.cell (11c1c37f851c82e70ff6c80c92926a4b)
REM
REM compiler GCC version 9.2.1 20190827 (Red Hat 9.2.1-1)
REM options -cpp -mtune=generic -march=x86-64 -g -O0 -fpre-include=/usr/include/finclude/math-vector-fortran.h
REM seed 327728638 -311967575 -369711731 326782854 1393514342 771655513 1024265166 -2027334658 -185068355 572719000 -1335754887 -1580507159 1214814482 -700918940 845190218 -465362563 1220686992 -1879772902 1668874642 -873477389 584310787 -387821414 -2034565741 -1093023480 1698024253 1677621631 -601176093 1454045524 775547668 -303692059 1459389188 -1597620368 -1915314838
REM
CELL 1.54180   50.00000   50.00000   50.00000   90.00000   90.00000   90.00000
LATT -1
SFAC C  
C      1  0.4060640000000  0.4609310000000  0.5247280000000 1.0
C      1  0.4299880000000  0.4524220000000  0.5759540000000 1.0
C      1  0.4421500000000  0.5281990000000  0.5801920000000 1.0
C      1  0.4220640000000  0.4790910000000  0.5705380000000 1.0
C      1  0.4643110000000  0.6104530000000  0.5433280000000 1.0
C      1  0.5787130000000  0.5394050000000  0.5370540000000 1.0
C      1  0.5717780000000  0.4774990000000  0.5816890000000 1.0
C      1  0.4819480000000  0.5583850000000  0.5948920000000 1.0
C      1  0.4550990000000  0.4773360000000  0.4537810000000 1.0
C      1  0.5144390000000  0.5149400000000  0.6169940000000 1.0
C      1  0.5133460000000  0.4349540000000  0.4139890000000 1.0
C      1  0.5083700000000  0.4385570000000  0.5683510000000 1.0
C      1  0.4627630000000  0.4055420000000  0.5313460000000 1.0
C      1  0.4870290000000  0.5119210000000  0.5514520000000 1.0
C      1  0.5925360000000  0.4484150000000  0.4816610000000 1.0
C      1  0.5719460000000  0.5154680000000  0.4314650000000 1.0
C      1  0.5299810000000  0.5808310000000  0.5662890000000 1.0
C      1  0.5826850000000  0.4809060000000  0.5539940000000 1.0
C      1  0.4743480000000  0.4840700000000  0.5033730000000 1.0
C      1  0.5447330000000  0.4038530000000  0.4567500000000 1.0
C      1  0.3998540000000  0.5064780000000  0.5350970000000 1.0
C      1  0.5542880000000  0.3946220000000  0.4827300000000 1.0
C      1  0.5283040000000  0.5933830000000  0.4527260000000 1.0
C      1  0.4192970000000  0.5356720000000  0.4756160000000 1.0
C      1  0.5818630000000  0.4680300000000  0.4353220000000 1.0
C      1  0.4902970000000  0.4479100000000  0.4009620000000 1.0
C      1  0.5444520000000  0.5452540000000  0.4029290000000 1.0
C      1  0.4869060000000  0.5732450000000  0.4345510000000 1.0
C      1  0.5396520000000  0.4486800000000  0.4076470000000 1.0
C      1  0.5637580000000  0.5255260000000  0.4791030000000 1.0
C      1  0.5103940000000  0.5144910000000  0.4795420000000 1.0
C      1  0.4203270000000  0.4352940000000  0.5284150000000 1.0
C      1  0.5604540000000  0.4924280000000  0.5377900000000 1.0
C      1  0.4588920000000  0.4967660000000  0.5542320000000 1.0
C      1  0.5161270000000  0.4137390000000  0.4582460000000 1.0
C      1  0.5227260000000  0.4700930000000  0.4550600000000 1.0
C      1  0.5758830000000  0.5601130000000  0.4404570000000 1.0
C      1  0.5874540000000  0.4534880000000  0.5414690000000 1.0
C      1  0.5181550000000  0.5583110000000  0.5177250000000 1.0
C      1  0.5530120000000  0.5517490000000  0.4605810000000 1.0
C      1  0.4246050000000  0.5729190000000  0.5226960000000 1.0
C      1  0.5951290000000  0.5038440000000  0.5018600000000 1.0
C      1  0.4810400000000  0.4418940000000  0.4522100000000 1.0
C      1  0.4201920000000  0.4394790000000  0.4333890000000 1.0
C      1  0.4599730000000  0.4220710000000  0.4422390000000 1.0
C      1  0.5746070000000  0.5673300000000  0.5371330000000 1.0
C      1  0.5365100000000  0.5872170000000  0.4266010000000 1.0
C      1  0.4552360000000  0.4424920000000  0.4940200000000 1.0
C      1  0.5104540000000  0.4126120000000  0.5530090000000 1.0
C      1  0.4917910000000  0.4142410000000  0.5292680000000 1.0
C      1  0.4563400000000  0.5880330000000  0.5607770000000 1.0
C      1  0.5139290000000  0.5642230000000  0.4876800000000 1.0
C      1  0.5358200000000  0.4732940000000  0.5441750000000 1.0
C      1  0.5346920000000  0.5643480000000  0.5897880000000 1.0
C      1  0.6003230000000  0.4979590000000  0.4727610000000 1.0
C      1  0.5192760000000  0.6057360000000  0.5175470000000 1.0
C      1  0.4429080000000  0.4171030000000  0.5091570000000 1.0
C      1  0.3974900000000  0.5346060000000  0.4960040000000 1.0
C      1  0.4455590000000  0.4350200000000  0.4205330000000 1.0
C      1  0.5436510000000  0.4185660000000  0.4926190000000 1.0
C      1  0.4445970000000  0.4008790000000  0.4825650000000 1.0
C      1  0.5562510000000  0.5443570000000  0.5862870000000 1.0
C      1  0.4692940000000  0.4166510000000  0.5803670000000 1.0
C      1  0.4459890000000  0.5078000000000  0.4495180000000 1.0
C      1  0.4195460000000  0.5524840000000  0.4499110000000 1.0
C      1  0.4945050000000  0.4089300000000  0.4808310000000 1.0
C      1  0.4802690000000  0.4623390000000  0.5935810000000 1.0
C      1  0.4519100000000  0.5008600000000  0.5180580000000 1.0
C      1  0.4526630000000  0.4138080000000  0.5578350000000 1.0
C      1  0.5293730000000  0.5174190000000  0.4038410000000 1.0
C      1  0.5099300000000  0.5475160000000  0.5982920000000 1.0
C      1  0.4936580000000  0.5133440000000  0.4359650000000 1.0
C      1  0.5279720000000  0.4781140000000  0.4044310000000 1.0
C      1  0.4907520000000  0.5847840000000  0.4830180000000 1.0
C      1  0.5306530000000  0.5300380000000  0.5223560000000 1.0
C      1  0.5651680000000  0.4230000000000  0.4458890000000 1.0
C      1  0.5065000000000  0.4775250000000  0.5944980000000 1.0
C      1  0.5747320000000  0.4340670000000  0.5603830000000 1.0
C      1  0.5422620000000  0.4690920000000  0.4783910000000 1.0
C      1  0.5610650000000  0.5837530000000  0.5203750000000 1.0
C      1  0.4182580000000  0.4686810000000  0.4307930000000 1.0
C      1  0.5608000000000  0.4492760000000  0.5819430000000 1.0
C      1  0.4372010000000  0.4636700000000  0.4774330000000 1.0
C      1  0.5245420000000  0.5072440000000  0.5029010000000 1.0
C      1  0.4601290000000  0.5411650000000  0.5971780000000 1.0
C      1  0.4779430000000  0.4806610000000  0.4724230000000 1.0
C      1  0.4353460000000  0.4359030000000  0.5535840000000 1.0
C      1  0.4374800000000  0.5690830000000  0.5488770000000 1.0
C      1  0.5274470000000  0.5608510000000  0.4222140000000 1.0
C      1  0.4985460000000  0.5919440000000  0.4547440000000 1.0
C      1  0.5601990000000  0.4475140000000  0.4304670000000 1.0
C      1  0.3994770000000  0.4629780000000  0.4745130000000 1.0
C      1  0.4086110000000  0.5330330000000  0.5424130000000 1.0
C      1  0.4316140000000  0.4822520000000  0.4079380000000 1.0
C      1  0.4635850000000  0.5254880000000  0.4661010000000 1.0
C      1  0.4350060000000  0.5009340000000  0.5846020000000 1.0
C      1  0.4811690000000  0.4977900000000  0.3964220000000 1.0
C      1  0.5833240000000  0.5496170000000  0.5801400000000 1.0
C      1  0.4812380000000  0.5334760000000  0.5306440000000 1.0
C      1  0.5014600000000  0.4936870000000  0.4602120000000 1.0
C      1  0.4254970000000  0.5335620000000  0.4286640000000 1.0
C      1  0.4369810000000  0.4170310000000  0.4597810000000 1.0
C      1  0.4918040000000  0.4589750000000  0.5508780000000 1.0
C      1  0.5908050000000  0.5591200000000  0.4881060000000 1.0
C      1  0.4102070000000  0.4819080000000  0.5445360000000 1.0
C      1  0.4368930000000  0.5858720000000  0.4996080000000 1.0
C      1  0.5042120000000  0.4858930000000  0.5130940000000 1.0
C      1  0.5346810000000  0.4519400000000  0.5225000000000 1.0
C      1  0.5030790000000  0.5862690000000  0.5601790000000 1.0
C      1  0.4644210000000  0.4667710000000  0.5659460000000 1.0
C      1  0.3911200000000  0.4719230000000  0.5009860000000 1.0
C      1  0.4585560000000  0.5751580000000  0.4293260000000 1.0
C      1  0.4409830000000  0.5734440000000  0.4523890000000 1.0
C      1  0.4541760000000  0.5711270000000  0.4802480000000 1.0
C      1  0.4884230000000  0.4446840000000  0.5254200000000 1.0
C      1  0.5615070000000  0.4109510000000  0.5516940000000 1.0
C      1  0.4213990000000  0.5056550000000  0.4670960000000 1.0
C      1  0.4910660000000  0.5615090000000  0.5328030000000 1.0
C      1  0.5499370000000  0.4967970000000  0.5883150000000 1.0
C      1  0.5823320000000  0.4913540000000  0.4194400000000 1.0
C      1  0.5431450000000  0.5215940000000  0.5721830000000 1.0
C      1  0.5903950000000  0.4717030000000  0.4638590000000 1.0
C      1  0.5671670000000  0.5796930000000  0.4922070000000 1.0
C      1  0.5100690000000  0.4558370000000  0.5061720000000 1.0
C      1  0.5878130000000  0.4489890000000  0.5112540000000 1.0
C      1  0.5723090000000  0.5422510000000  0.4160210000000 1.0
C      1  0.4646250000000  0.4583420000000  0.5152840000000 1.0
C      1  0.5093730000000  0.5403750000000  0.4678720000000 1.0
C      1  0.4801750000000  0.5763970000000  0.5727310000000 1.0
C      1  0.4275900000000  0.5444420000000  0.5613990000000 1.0
C      1  0.4983530000000  0.5056740000000  0.5938360000000 1.0
C      1  0.5099760000000  0.4393580000000  0.4437870000000 1.0
C      1  0.5050250000000  0.4025980000000  0.5065550000000 1.0
C      1  0.5412620000000  0.5132090000000  0.4336560000000 1.0
C      1  0.5307660000000  0.5410860000000  0.4455700000000 1.0
C      1  0.5329980000000  0.5832200000000  0.5285040000000 1.0
C      1  0.5526650000000  0.5221050000000  0.5422430000000 1.0
C      1  0.5499630000000  0.4965680000000  0.4897980000000 1.0
C      1  0.5062040000000  0.4859910000000  0.5426240000000 1.0
C      1  0.5701720000000  0.4893140000000  0.5098740000000 1.0
C      1  0.4682590000000  0.5802120000000  0.5194560000000 1.0
C      1  0.5357650000000  0.4845090000000  0.4329730000000 1.0
C      1  0.5361110000000  0.4028310000000  0.5495030000000 1.0
C      1  0.4731190000000  0.5456590000000  0.4097140000000 1.0
C      1  0.4050030000000  0.4826600000000  0.4536660000000 1.0
C      1  0.4709720000000  0.3921420000000  0.4765740000000 1.0
C      1  0.4478480000000  0.5292720000000  0.4113310000000 1.0
C      1  0.5964270000000  0.5359870000000  0.5601150000000 1.0
C      1  0.4886950000000  0.4341680000000  0.5907890000000 1.0
C      1  0.4729900000000  0.6177550000000  0.5167520000000 1.0
C      1  0.5116000000000  0.5257100000000  0.5743470000000 1.0
C      1  0.3948070000000  0.5043490000000  0.5061430000000 1.0
C      1  0.4493350000000  0.5410080000000  0.4865050000000 1.0
C      1  0.4963410000000  0.5213840000000  0.4071750000000 1.0
C      1  0.5516550000000  0.4466980000000  0.4983840000000 1.0
C      1  0.4533290000000  0.5015880000000  0.4065840000000 1.0
C      1  0.5407150000000  0.5758530000000  0.4749970000000 1.0
C      1  0.5326420000000  0.4594200000000  0.5725820000000 1.0
C      1  0.4839580000000  0.4378070000000  0.4816990000000 1.0
C      1  0.4610640000000  0.4608810000000  0.4212870000000 1.0
C      1  0.4296070000000  0.4911140000000  0.4952050000000 1.0
C      1  0.5359170000000  0.4952210000000  0.6136300000000 1.0
C      1  0.4580870000000  0.5291230000000  0.5136700000000 1.0
C      1  0.5891090000000  0.5337590000000  0.5077920000000 1.0
C      1  0.4982400000000  0.4749170000000  0.4019880000000 1.0
C      1  0.4047510000000  0.5507100000000  0.5198050000000 1.0
C      1  0.4962030000000  0.6083130000000  0.5018840000000 1.0
C      1  0.5845770000000  0.4265670000000  0.4660190000000 1.0
C      1  0.5861070000000  0.5205610000000  0.4591240000000 1.0
C      1  0.4850130000000  0.5379110000000  0.4508080000000 1.0
C      1  0.5972590000000  0.5497840000000  0.4596470000000 1.0
END
