TITL C-950524-1808-297 -2.14284342686449e-06 125000 -686.274289528238 0 0 112 (C1) n - 1
REM
REM in /home/bkarasulu/work/CARBON/AIRSS/Generating-Clusters/EDIP-Nigel-Params/with-SteepDescent/Only-C1/SD-CG/HFTN-CG
REM
REM
REM
REM
REM
REM ./C.cell (11c1c37f851c82e70ff6c80c92926a4b)
REM
REM compiler GCC version 9.2.1 20190827 (Red Hat 9.2.1-1)
REM options -cpp -mtune=generic -march=x86-64 -g -O0 -fpre-include=/usr/include/finclude/math-vector-fortran.h
REM seed 1389598287 1321137270 -373710575 823425367 147364416 1796017891 -1396132969 158952264 728980398 -2069834614 -658376883 1102705240 -683265270 144449668 1100790280 -1173208374 451316610 -542916746 -1920881348 -1980758145 1059490405 -643948005 -499665068 -383444302 1960596458 963271915 -68873642 8637945 -578609886 877906971 1751804756 -819925947 1337186092
REM
CELL 1.54180   50.00000   50.00000   50.00000   90.00000   90.00000   90.00000
LATT -1
SFAC C  
C      1  0.5008390000000  0.5252220000000  0.4037900000000 1.0
C      1  0.5541600000000  0.4522690000000  0.4885290000000 1.0
C      1  0.5890470000000  0.4835710000000  0.4961990000000 1.0
C      1  0.4508970000000  0.4606040000000  0.4476510000000 1.0
C      1  0.4883950000000  0.5547750000000  0.4645220000000 1.0
C      1  0.5329030000000  0.5542470000000  0.5688850000000 1.0
C      1  0.4124530000000  0.4751910000000  0.4797020000000 1.0
C      1  0.5583090000000  0.4622010000000  0.4290850000000 1.0
C      1  0.5791840000000  0.5519770000000  0.4912190000000 1.0
C      1  0.4133060000000  0.5176890000000  0.5050640000000 1.0
C      1  0.5249270000000  0.4142050000000  0.4897390000000 1.0
C      1  0.4392290000000  0.5514060000000  0.4763570000000 1.0
C      1  0.4945270000000  0.4617840000000  0.5236090000000 1.0
C      1  0.5132210000000  0.4297650000000  0.5624620000000 1.0
C      1  0.4837740000000  0.5575840000000  0.5619840000000 1.0
C      1  0.5710750000000  0.5062730000000  0.5001360000000 1.0
C      1  0.5750050000000  0.5498690000000  0.5418900000000 1.0
C      1  0.4610110000000  0.5090020000000  0.5251530000000 1.0
C      1  0.5357580000000  0.4726940000000  0.5038160000000 1.0
C      1  0.4998690000000  0.5254970000000  0.5884340000000 1.0
C      1  0.4969970000000  0.4086640000000  0.4934520000000 1.0
C      1  0.5453690000000  0.5127000000000  0.4169770000000 1.0
C      1  0.5273960000000  0.4894380000000  0.4418310000000 1.0
C      1  0.4796800000000  0.5432530000000  0.4907850000000 1.0
C      1  0.4291670000000  0.5120840000000  0.5482930000000 1.0
C      1  0.4993650000000  0.4876140000000  0.5616770000000 1.0
C      1  0.5079170000000  0.5136820000000  0.4401950000000 1.0
C      1  0.4223890000000  0.4616050000000  0.4558380000000 1.0
C      1  0.5123760000000  0.4787260000000  0.4019610000000 1.0
C      1  0.5530600000000  0.5150180000000  0.4769590000000 1.0
C      1  0.5135280000000  0.5386070000000  0.4598810000000 1.0
C      1  0.4848120000000  0.4879660000000  0.4682540000000 1.0
C      1  0.4921930000000  0.4894470000000  0.5132450000000 1.0
C      1  0.5124210000000  0.4496320000000  0.4529640000000 1.0
C      1  0.5272910000000  0.5267410000000  0.5778040000000 1.0
C      1  0.5263310000000  0.4785760000000  0.5693740000000 1.0
C      1  0.4243220000000  0.5641950000000  0.4967760000000 1.0
C      1  0.5504160000000  0.5383400000000  0.4300430000000 1.0
C      1  0.5043510000000  0.5066320000000  0.5355880000000 1.0
C      1  0.4945510000000  0.5841060000000  0.4666740000000 1.0
C      1  0.4328790000000  0.4559380000000  0.5334410000000 1.0
C      1  0.4608800000000  0.5208440000000  0.5840750000000 1.0
C      1  0.4225940000000  0.5435080000000  0.5160570000000 1.0
C      1  0.5639700000000  0.5647240000000  0.4705170000000 1.0
C      1  0.5230800000000  0.4538680000000  0.5249580000000 1.0
C      1  0.4702070000000  0.4551420000000  0.4242790000000 1.0
C      1  0.5344970000000  0.4348540000000  0.4701630000000 1.0
C      1  0.4850680000000  0.5291650000000  0.5351920000000 1.0
C      1  0.4749670000000  0.5494690000000  0.4374740000000 1.0
C      1  0.4362900000000  0.5407370000000  0.5431530000000 1.0
C      1  0.4591250000000  0.5234400000000  0.4375400000000 1.0
C      1  0.5256650000000  0.5541950000000  0.4359730000000 1.0
C      1  0.4608430000000  0.4963660000000  0.4828870000000 1.0
C      1  0.4665390000000  0.6110470000000  0.5029400000000 1.0
C      1  0.5228510000000  0.5071190000000  0.3994650000000 1.0
C      1  0.4532590000000  0.4752420000000  0.5467190000000 1.0
C      1  0.5149420000000  0.4120230000000  0.5379820000000 1.0
C      1  0.5213330000000  0.5903080000000  0.4705390000000 1.0
C      1  0.5586570000000  0.5610590000000  0.5609470000000 1.0
C      1  0.5721990000000  0.4505490000000  0.5364600000000 1.0
C      1  0.5691720000000  0.4765040000000  0.4513370000000 1.0
C      1  0.4963440000000  0.5463380000000  0.5137230000000 1.0
C      1  0.4852090000000  0.4389930000000  0.5673050000000 1.0
C      1  0.4503750000000  0.4372750000000  0.4674990000000 1.0
C      1  0.4286310000000  0.5422390000000  0.4518400000000 1.0
C      1  0.4653680000000  0.4191420000000  0.5629910000000 1.0
C      1  0.4651420000000  0.4166190000000  0.5347950000000 1.0
C      1  0.4132440000000  0.4714420000000  0.5171450000000 1.0
C      1  0.4765260000000  0.4240050000000  0.4577240000000 1.0
C      1  0.4811730000000  0.5007750000000  0.4396250000000 1.0
C      1  0.4248510000000  0.5147510000000  0.4532970000000 1.0
C      1  0.4830070000000  0.3992530000000  0.4713380000000 1.0
C      1  0.4738470000000  0.6034030000000  0.5284930000000 1.0
C      1  0.4896170000000  0.4584310000000  0.4691620000000 1.0
C      1  0.4760520000000  0.6001620000000  0.4795150000000 1.0
C      1  0.5797790000000  0.4638240000000  0.4761190000000 1.0
C      1  0.5433920000000  0.5022920000000  0.5671050000000 1.0
C      1  0.4982400000000  0.5961200000000  0.5175470000000 1.0
C      1  0.4374120000000  0.5035500000000  0.5756320000000 1.0
C      1  0.4995120000000  0.5504590000000  0.4179940000000 1.0
C      1  0.4138330000000  0.5041650000000  0.4781500000000 1.0
C      1  0.5391790000000  0.5731620000000  0.4831510000000 1.0
C      1  0.5103640000000  0.5672210000000  0.5546970000000 1.0
C      1  0.4920470000000  0.4349290000000  0.4325180000000 1.0
C      1  0.5121980000000  0.5706750000000  0.5243210000000 1.0
C      1  0.5403000000000  0.5713010000000  0.5118280000000 1.0
C      1  0.4107880000000  0.4990500000000  0.5270810000000 1.0
C      1  0.5247940000000  0.5224740000000  0.4892960000000 1.0
C      1  0.4821300000000  0.4643350000000  0.5505020000000 1.0
C      1  0.5496540000000  0.4958270000000  0.5182380000000 1.0
C      1  0.4456420000000  0.4328320000000  0.5186880000000 1.0
C      1  0.5636050000000  0.5538520000000  0.5154120000000 1.0
C      1  0.4527340000000  0.4749400000000  0.4985630000000 1.0
C      1  0.5329430000000  0.4614020000000  0.4158900000000 1.0
C      1  0.4558760000000  0.4470140000000  0.4952140000000 1.0
C      1  0.5101240000000  0.4939500000000  0.4876400000000 1.0
C      1  0.5289350000000  0.5172200000000  0.5210750000000 1.0
C      1  0.5322060000000  0.4527170000000  0.5556170000000 1.0
C      1  0.5366890000000  0.4186310000000  0.5165540000000 1.0
C      1  0.5717630000000  0.4997840000000  0.5553850000000 1.0
C      1  0.4579060000000  0.5447550000000  0.5652630000000 1.0
C      1  0.4858940000000  0.5020600000000  0.5839780000000 1.0
C      1  0.5837040000000  0.5246060000000  0.5499680000000 1.0
C      1  0.4902440000000  0.4069270000000  0.5221500000000 1.0
C      1  0.5809620000000  0.4788030000000  0.5334100000000 1.0
C      1  0.4558440000000  0.5244330000000  0.4946060000000 1.0
C      1  0.4831020000000  0.4806150000000  0.4154030000000 1.0
C      1  0.5658160000000  0.5370460000000  0.4574880000000 1.0
C      1  0.5617760000000  0.4360590000000  0.5129120000000 1.0
C      1  0.5469340000000  0.4903270000000  0.4627830000000 1.0
C      1  0.4439070000000  0.4769230000000  0.5741630000000 1.0
C      1  0.5595470000000  0.4439400000000  0.5603130000000 1.0
END
