TITL C-951345-2650-557 -4.99152951545335e-07 125000 -518.857173984353 0 0 84 (C1) n - 1
REM
REM in /home/bkarasulu/work/CARBON/AIRSS/Generating-Clusters/EDIP-Nigel-Params/with-SteepDescent/Only-C1/SD-CG/HFTN-CG
REM
REM
REM
REM
REM
REM ./C.cell (11c1c37f851c82e70ff6c80c92926a4b)
REM
REM compiler GCC version 9.2.1 20190827 (Red Hat 9.2.1-1)
REM options -cpp -mtune=generic -march=x86-64 -g -O0 -fpre-include=/usr/include/finclude/math-vector-fortran.h
REM seed -2081514274 1968310437 -641846385 1831366236 -14668319 -842307036 1867561083 366426455 -577100072 -954531306 698252023 -1597457530 214039226 -1464697446 -2049011520 -2065662642 -272184971 -896755613 1440155992 1997281448 -1568136715 1328529676 1586681809 -624457832 -539939067 987493252 -1889995776 687987404 208433227 -1886793830 1976763474 -1769870452 -566981464
REM
CELL 1.54180   50.00000   50.00000   50.00000   90.00000   90.00000   90.00000
LATT -1
SFAC C  
C      1  0.5104910000000  0.4881830000000  0.5765760000000 1.0
C      1  0.5151950000000  0.5299140000000  0.5281990000000 1.0
C      1  0.4402490000000  0.4347540000000  0.5519210000000 1.0
C      1  0.5283240000000  0.5758260000000  0.5204250000000 1.0
C      1  0.4940710000000  0.4858450000000  0.5351060000000 1.0
C      1  0.4743130000000  0.4880000000000  0.4919870000000 1.0
C      1  0.4758020000000  0.4160820000000  0.5262570000000 1.0
C      1  0.4600500000000  0.4971510000000  0.4382040000000 1.0
C      1  0.5139970000000  0.4713190000000  0.5522530000000 1.0
C      1  0.5022020000000  0.4446170000000  0.5554230000000 1.0
C      1  0.4499700000000  0.5404330000000  0.5553510000000 1.0
C      1  0.5028790000000  0.5137110000000  0.4185490000000 1.0
C      1  0.5499160000000  0.4974460000000  0.5508180000000 1.0
C      1  0.4296310000000  0.4786210000000  0.5355490000000 1.0
C      1  0.5678620000000  0.5709510000000  0.4899880000000 1.0
C      1  0.5222420000000  0.5324150000000  0.4560490000000 1.0
C      1  0.5348340000000  0.5056960000000  0.5752410000000 1.0
C      1  0.5309240000000  0.5159630000000  0.4313000000000 1.0
C      1  0.5009170000000  0.5537330000000  0.4463600000000 1.0
C      1  0.5104730000000  0.4210840000000  0.5086350000000 1.0
C      1  0.5686580000000  0.4921550000000  0.4552110000000 1.0
C      1  0.4954450000000  0.5564330000000  0.5584880000000 1.0
C      1  0.4823820000000  0.4983380000000  0.5758100000000 1.0
C      1  0.5289130000000  0.4483180000000  0.4726860000000 1.0
C      1  0.4261400000000  0.4682580000000  0.5082000000000 1.0
C      1  0.4304800000000  0.4820010000000  0.4589110000000 1.0
C      1  0.5387080000000  0.4214070000000  0.5140470000000 1.0
C      1  0.4451100000000  0.4622980000000  0.5540710000000 1.0
C      1  0.4850820000000  0.4451260000000  0.4422890000000 1.0
C      1  0.4860940000000  0.5373780000000  0.4254200000000 1.0
C      1  0.4382110000000  0.5053750000000  0.5341600000000 1.0
C      1  0.5369620000000  0.4712340000000  0.4920930000000 1.0
C      1  0.5068140000000  0.4297960000000  0.4810530000000 1.0
C      1  0.4229090000000  0.4897950000000  0.4868800000000 1.0
C      1  0.5148960000000  0.5170650000000  0.4810900000000 1.0
C      1  0.5301620000000  0.4649160000000  0.4328270000000 1.0
C      1  0.5641370000000  0.5348970000000  0.5180510000000 1.0
C      1  0.4957940000000  0.4752400000000  0.5081060000000 1.0
C      1  0.4471240000000  0.5577240000000  0.5110460000000 1.0
C      1  0.4318820000000  0.5489390000000  0.5349250000000 1.0
C      1  0.4523850000000  0.4382900000000  0.4767630000000 1.0
C      1  0.5442540000000  0.4698760000000  0.5429000000000 1.0
C      1  0.5569700000000  0.5676870000000  0.4646230000000 1.0
C      1  0.5009090000000  0.4668810000000  0.4348840000000 1.0
C      1  0.4176310000000  0.5238040000000  0.5248670000000 1.0
C      1  0.5709920000000  0.5145600000000  0.4972650000000 1.0
C      1  0.4938630000000  0.5753610000000  0.5360240000000 1.0
C      1  0.4772410000000  0.5308310000000  0.5579660000000 1.0
C      1  0.4808570000000  0.4348520000000  0.4679450000000 1.0
C      1  0.5609520000000  0.4365650000000  0.5063530000000 1.0
C      1  0.5706390000000  0.5189570000000  0.4678430000000 1.0
C      1  0.5373700000000  0.5093780000000  0.5249590000000 1.0
C      1  0.5146440000000  0.5394800000000  0.4993900000000 1.0
C      1  0.5572620000000  0.5638450000000  0.5150630000000 1.0
C      1  0.4693950000000  0.4713700000000  0.5690950000000 1.0
C      1  0.5206340000000  0.4928880000000  0.5002740000000 1.0
C      1  0.4444140000000  0.4453090000000  0.5040890000000 1.0
C      1  0.4474420000000  0.5335400000000  0.4930190000000 1.0
C      1  0.5168540000000  0.5691280000000  0.4927570000000 1.0
C      1  0.4199530000000  0.5193590000000  0.4944550000000 1.0
C      1  0.4620460000000  0.5268790000000  0.4406020000000 1.0
C      1  0.4881280000000  0.5742130000000  0.4901480000000 1.0
C      1  0.5423320000000  0.4422160000000  0.4463650000000 1.0
C      1  0.5309040000000  0.5795700000000  0.4664050000000 1.0
C      1  0.5438670000000  0.4900500000000  0.4386520000000 1.0
C      1  0.5225120000000  0.5469860000000  0.5536130000000 1.0
C      1  0.4656160000000  0.5123170000000  0.5084550000000 1.0
C      1  0.5783570000000  0.4713740000000  0.4754630000000 1.0
C      1  0.4590140000000  0.5406230000000  0.4662970000000 1.0
C      1  0.5311040000000  0.5333180000000  0.5763060000000 1.0
C      1  0.4833460000000  0.4474760000000  0.5763540000000 1.0
C      1  0.4745910000000  0.5686790000000  0.5149010000000 1.0
C      1  0.5666380000000  0.4426180000000  0.4763570000000 1.0
C      1  0.4501740000000  0.4277500000000  0.5265160000000 1.0
C      1  0.5164150000000  0.5779360000000  0.4416800000000 1.0
C      1  0.4378170000000  0.4537660000000  0.4573230000000 1.0
C      1  0.4928400000000  0.4406910000000  0.5266170000000 1.0
C      1  0.5530490000000  0.5394850000000  0.4538000000000 1.0
C      1  0.5776170000000  0.4853880000000  0.5028650000000 1.0
C      1  0.4687080000000  0.4769310000000  0.4632980000000 1.0
C      1  0.4794230000000  0.5605590000000  0.4659610000000 1.0
C      1  0.5559960000000  0.4652660000000  0.5142210000000 1.0
C      1  0.4878620000000  0.5156290000000  0.5326740000000 1.0
C      1  0.4867390000000  0.4898810000000  0.4250470000000 1.0
END
