TITL C-951342-2639-505 -5.97462036894914e-07 125000 -912.60035189938 0 0 146 (C1) n - 1
REM
REM in /home/bkarasulu/work/CARBON/AIRSS/Generating-Clusters/EDIP-Nigel-Params/with-SteepDescent/Only-C1/SD-CG/HFTN-CG
REM
REM
REM
REM
REM
REM ./C.cell (11c1c37f851c82e70ff6c80c92926a4b)
REM
REM compiler GCC version 9.2.1 20190827 (Red Hat 9.2.1-1)
REM options -cpp -mtune=generic -march=x86-64 -g -O0 -fpre-include=/usr/include/finclude/math-vector-fortran.h
REM seed 1613633409 545471531 -499701066 469271574 80170475 -1599015723 -1728827578 1282407715 -1977688051 -900055591 818792305 -171853352 1415437638 -418873415 -904977903 -244201862 1184323495 994857198 -343047724 -1479734400 -1239631984 1793331166 340473411 1534242300 986868976 -378997739 -2077352335 -281935322 -1744863514 1692728652 -1082061850 -1220289029 -1568430280
REM
CELL 1.54180   50.00000   50.00000   50.00000   90.00000   90.00000   90.00000
LATT -1
SFAC C  
C      1  0.4161030000000  0.5407040000000  0.5318340000000 1.0
C      1  0.4792080000000  0.4151160000000  0.4827980000000 1.0
C      1  0.4943820000000  0.5748140000000  0.5201410000000 1.0
C      1  0.4743310000000  0.5316690000000  0.4631750000000 1.0
C      1  0.6018700000000  0.4898790000000  0.4803730000000 1.0
C      1  0.4736480000000  0.5250870000000  0.3971900000000 1.0
C      1  0.4667860000000  0.4006570000000  0.5276010000000 1.0
C      1  0.4401830000000  0.4611650000000  0.5508310000000 1.0
C      1  0.5326290000000  0.5054670000000  0.5402970000000 1.0
C      1  0.4688150000000  0.4278210000000  0.4295520000000 1.0
C      1  0.4378290000000  0.5366330000000  0.4495990000000 1.0
C      1  0.5390740000000  0.4730990000000  0.5756120000000 1.0
C      1  0.5585310000000  0.5699410000000  0.4646060000000 1.0
C      1  0.5954030000000  0.4360050000000  0.5250960000000 1.0
C      1  0.5587460000000  0.5429210000000  0.5755160000000 1.0
C      1  0.4561670000000  0.5794080000000  0.4646910000000 1.0
C      1  0.5182430000000  0.4962040000000  0.4524500000000 1.0
C      1  0.4706400000000  0.5473730000000  0.5505320000000 1.0
C      1  0.5990910000000  0.5199900000000  0.4773440000000 1.0
C      1  0.4683630000000  0.4831360000000  0.5480790000000 1.0
C      1  0.4811880000000  0.5179190000000  0.5425730000000 1.0
C      1  0.4019510000000  0.4901330000000  0.4705030000000 1.0
C      1  0.4461240000000  0.4854730000000  0.3950020000000 1.0
C      1  0.5126640000000  0.4086300000000  0.5489730000000 1.0
C      1  0.5339690000000  0.5540160000000  0.5639940000000 1.0
C      1  0.4636180000000  0.4690460000000  0.4088310000000 1.0
C      1  0.5454780000000  0.5526820000000  0.4842160000000 1.0
C      1  0.6076420000000  0.5252370000000  0.5248730000000 1.0
C      1  0.5935810000000  0.5343890000000  0.5023350000000 1.0
C      1  0.4946610000000  0.5508330000000  0.4727930000000 1.0
C      1  0.5844980000000  0.4820490000000  0.5038970000000 1.0
C      1  0.4021560000000  0.5439950000000  0.5069470000000 1.0
C      1  0.5427450000000  0.4400690000000  0.4432030000000 1.0
C      1  0.4733410000000  0.4873900000000  0.4655720000000 1.0
C      1  0.5807800000000  0.5015170000000  0.4389820000000 1.0
C      1  0.5092790000000  0.4921860000000  0.4984700000000 1.0
C      1  0.4953400000000  0.4220220000000  0.4366140000000 1.0
C      1  0.4746610000000  0.3926690000000  0.5022300000000 1.0
C      1  0.4160430000000  0.4731040000000  0.5616350000000 1.0
C      1  0.4411150000000  0.5865240000000  0.5349700000000 1.0
C      1  0.4189780000000  0.5169280000000  0.5480370000000 1.0
C      1  0.3880500000000  0.4952640000000  0.4960600000000 1.0
C      1  0.5255160000000  0.4035230000000  0.4738500000000 1.0
C      1  0.5243890000000  0.4792420000000  0.4769550000000 1.0
C      1  0.5436720000000  0.5322940000000  0.4070300000000 1.0
C      1  0.5439100000000  0.4258880000000  0.5867620000000 1.0
C      1  0.4780840000000  0.5183750000000  0.5990440000000 1.0
C      1  0.5185630000000  0.4768980000000  0.5987250000000 1.0
C      1  0.5070960000000  0.5969090000000  0.4756450000000 1.0
C      1  0.5688100000000  0.5789970000000  0.5106290000000 1.0
C      1  0.5559810000000  0.4896070000000  0.4296480000000 1.0
C      1  0.4878180000000  0.5782420000000  0.4627150000000 1.0
C      1  0.5100430000000  0.5501440000000  0.5806070000000 1.0
C      1  0.5368360000000  0.4318580000000  0.4718660000000 1.0
C      1  0.4723110000000  0.5610170000000  0.4228090000000 1.0
C      1  0.5137580000000  0.4937170000000  0.4015050000000 1.0
C      1  0.5145410000000  0.5058500000000  0.6037920000000 1.0
C      1  0.4132370000000  0.5626840000000  0.4879030000000 1.0
C      1  0.4489530000000  0.5109730000000  0.4060650000000 1.0
C      1  0.4888840000000  0.4644860000000  0.3956010000000 1.0
C      1  0.4977940000000  0.4044360000000  0.4608320000000 1.0
C      1  0.4450270000000  0.5480480000000  0.5664500000000 1.0
C      1  0.4290650000000  0.5622980000000  0.5457220000000 1.0
C      1  0.4357360000000  0.4875610000000  0.5056220000000 1.0
C      1  0.5812820000000  0.4945750000000  0.5526980000000 1.0
C      1  0.4922410000000  0.4405670000000  0.4926620000000 1.0
C      1  0.5020240000000  0.5230240000000  0.5848360000000 1.0
C      1  0.5226460000000  0.3906020000000  0.5013730000000 1.0
C      1  0.5617460000000  0.4615850000000  0.4372000000000 1.0
C      1  0.5429650000000  0.5019370000000  0.4057680000000 1.0
C      1  0.5144770000000  0.4507000000000  0.4761800000000 1.0
C      1  0.4803010000000  0.4888710000000  0.4948050000000 1.0
C      1  0.5476270000000  0.5134320000000  0.5130350000000 1.0
C      1  0.4979120000000  0.3768420000000  0.5028240000000 1.0
C      1  0.4294020000000  0.5000870000000  0.4785940000000 1.0
C      1  0.4076720000000  0.4609960000000  0.4632900000000 1.0
C      1  0.5339390000000  0.5828720000000  0.4531650000000 1.0
C      1  0.4501330000000  0.5619800000000  0.4416620000000 1.0
C      1  0.5739740000000  0.5864480000000  0.4835790000000 1.0
C      1  0.5127900000000  0.5293940000000  0.5421980000000 1.0
C      1  0.5804560000000  0.5249510000000  0.4559060000000 1.0
C      1  0.4898660000000  0.5652080000000  0.5660650000000 1.0
C      1  0.4062660000000  0.4918310000000  0.5438180000000 1.0
C      1  0.4967180000000  0.5159210000000  0.4155150000000 1.0
C      1  0.4071030000000  0.4820780000000  0.5158940000000 1.0
C      1  0.5199710000000  0.5196840000000  0.4998990000000 1.0
C      1  0.4731030000000  0.4259790000000  0.5694830000000 1.0
C      1  0.4667750000000  0.5104420000000  0.5136810000000 1.0
C      1  0.5745910000000  0.5512450000000  0.4450040000000 1.0
C      1  0.4882180000000  0.5061360000000  0.4487440000000 1.0
C      1  0.4706530000000  0.5531250000000  0.3959740000000 1.0
C      1  0.5206870000000  0.5376570000000  0.4254260000000 1.0
C      1  0.5335020000000  0.5804580000000  0.5498940000000 1.0
C      1  0.5198270000000  0.4251650000000  0.5723620000000 1.0
C      1  0.5447300000000  0.4607760000000  0.5143210000000 1.0
C      1  0.5811510000000  0.4260890000000  0.5008170000000 1.0
C      1  0.4022610000000  0.4454360000000  0.4865880000000 1.0
C      1  0.4398570000000  0.5747480000000  0.4889490000000 1.0
C      1  0.5658030000000  0.5454050000000  0.4188510000000 1.0
C      1  0.5416550000000  0.5758110000000  0.5217400000000 1.0
C      1  0.5168170000000  0.4793860000000  0.5253730000000 1.0
C      1  0.5879310000000  0.4710920000000  0.5327990000000 1.0
C      1  0.4896690000000  0.4670330000000  0.5345900000000 1.0
C      1  0.5639860000000  0.5411860000000  0.5069510000000 1.0
C      1  0.5140440000000  0.4560860000000  0.4054810000000 1.0
C      1  0.4475630000000  0.4601290000000  0.5047260000000 1.0
C      1  0.4923970000000  0.4629490000000  0.5935770000000 1.0
C      1  0.4955660000000  0.4354030000000  0.5849600000000 1.0
C      1  0.5171050000000  0.4402250000000  0.4288640000000 1.0
C      1  0.5289740000000  0.5233600000000  0.4511210000000 1.0
C      1  0.4327760000000  0.4457950000000  0.5250830000000 1.0
C      1  0.4768920000000  0.4612850000000  0.5076540000000 1.0
C      1  0.5200960000000  0.5693030000000  0.4306100000000 1.0
C      1  0.4050950000000  0.4515710000000  0.5142170000000 1.0
C      1  0.4359360000000  0.4606320000000  0.4502060000000 1.0
C      1  0.4369970000000  0.5200710000000  0.5709590000000 1.0
C      1  0.4652430000000  0.4733910000000  0.5851540000000 1.0
C      1  0.4681930000000  0.6094220000000  0.5023360000000 1.0
C      1  0.4488340000000  0.4418120000000  0.5715160000000 1.0
C      1  0.5178020000000  0.5540790000000  0.5184560000000 1.0
C      1  0.4927850000000  0.5782820000000  0.4330740000000 1.0
C      1  0.5305500000000  0.4059240000000  0.5256370000000 1.0
C      1  0.5480520000000  0.4524620000000  0.5934240000000 1.0
C      1  0.5725620000000  0.4309010000000  0.5437740000000 1.0
C      1  0.5588380000000  0.4106290000000  0.5279100000000 1.0
C      1  0.5912410000000  0.4793940000000  0.4545610000000 1.0
C      1  0.4349610000000  0.5315300000000  0.4802060000000 1.0
C      1  0.5527130000000  0.4976130000000  0.5644650000000 1.0
C      1  0.4443490000000  0.5955650000000  0.5080930000000 1.0
C      1  0.4620630000000  0.5361310000000  0.4983910000000 1.0
C      1  0.4580620000000  0.5034060000000  0.5854820000000 1.0
C      1  0.5946190000000  0.5203560000000  0.5489740000000 1.0
C      1  0.4509130000000  0.4490610000000  0.4261560000000 1.0
C      1  0.5820530000000  0.5422840000000  0.5607160000000 1.0
C      1  0.5533330000000  0.5176680000000  0.5855810000000 1.0
C      1  0.5556710000000  0.4867250000000  0.4987310000000 1.0
C      1  0.3856680000000  0.5227850000000  0.4996490000000 1.0
C      1  0.4460620000000  0.5117260000000  0.4355310000000 1.0
C      1  0.4460140000000  0.4888210000000  0.4558910000000 1.0
C      1  0.5216930000000  0.5374460000000  0.4757740000000 1.0
C      1  0.5603790000000  0.4579740000000  0.5401020000000 1.0
C      1  0.4835110000000  0.4115870000000  0.5466900000000 1.0
C      1  0.5557090000000  0.4392040000000  0.4943050000000 1.0
C      1  0.4945440000000  0.5994910000000  0.5020950000000 1.0
C      1  0.5032320000000  0.5841730000000  0.5479180000000 1.0
C      1  0.4662530000000  0.5603810000000  0.5216380000000 1.0
END
