TITL C-950523-3027-263 -1.35377985242374e-07 125000 -163.891719493851 0 0 28 (C1) n - 1
REM
REM in /home/bkarasulu/work/CARBON/AIRSS/Generating-Clusters/EDIP-Nigel-Params/with-SteepDescent/Only-C1/SD-CG/HFTN-CG
REM
REM
REM
REM
REM
REM ./C.cell (11c1c37f851c82e70ff6c80c92926a4b)
REM
REM compiler GCC version 9.2.1 20190827 (Red Hat 9.2.1-1)
REM options -cpp -mtune=generic -march=x86-64 -g -O0 -fpre-include=/usr/include/finclude/math-vector-fortran.h
REM seed 233049191 706297854 -706134504 -359845802 -872258176 1767755451 115098883 2129086817 -1194657326 -21390430 1317132700 1191985414 -1832029815 1855966310 1237009817 752661194 -449436290 1340796951 -1214813329 -68587743 702932734 -806263756 2089413063 -1105793848 -1822625765 1978740957 98385776 -2007896507 -1302827970 630053906 -1579601660 -1576543832 -1266468954
REM
CELL 1.54180   50.00000   50.00000   50.00000   90.00000   90.00000   90.00000
LATT -1
SFAC C  
C      1  0.4924740000000  0.5220750000000  0.4667780000000 1.0
C      1  0.5076000000000  0.5084900000000  0.4465060000000 1.0
C      1  0.4699920000000  0.5075480000000  0.4775870000000 1.0
C      1  0.4538260000000  0.4822320000000  0.5243770000000 1.0
C      1  0.5523470000000  0.5270420000000  0.4929610000000 1.0
C      1  0.5271780000000  0.4831130000000  0.4854820000000 1.0
C      1  0.4345240000000  0.4982740000000  0.5111130000000 1.0
C      1  0.4974130000000  0.5418180000000  0.5231740000000 1.0
C      1  0.5257660000000  0.5149040000000  0.4946460000000 1.0
C      1  0.4673620000000  0.5258350000000  0.5414120000000 1.0
C      1  0.4770520000000  0.4648790000000  0.4876860000000 1.0
C      1  0.5642190000000  0.5041570000000  0.5020350000000 1.0
C      1  0.5026740000000  0.5600230000000  0.5018250000000 1.0
C      1  0.5019820000000  0.5454650000000  0.4788650000000 1.0
C      1  0.5144840000000  0.5180120000000  0.5217890000000 1.0
C      1  0.5177520000000  0.4583850000000  0.5346400000000 1.0
C      1  0.4596410000000  0.5371520000000  0.5164350000000 1.0
C      1  0.4742220000000  0.4973100000000  0.5408340000000 1.0
C      1  0.5056210000000  0.4621920000000  0.4921450000000 1.0
C      1  0.5115890000000  0.4434630000000  0.5122240000000 1.0
C      1  0.5045550000000  0.4934900000000  0.5356700000000 1.0
C      1  0.5392880000000  0.4763300000000  0.5315000000000 1.0
C      1  0.5349640000000  0.5069910000000  0.4427300000000 1.0
C      1  0.4615710000000  0.4588160000000  0.5104760000000 1.0
C      1  0.5503200000000  0.4795850000000  0.5050610000000 1.0
C      1  0.5346610000000  0.4832010000000  0.4569260000000 1.0
C      1  0.4664100000000  0.4816880000000  0.4675830000000 1.0
C      1  0.4505130000000  0.5175290000000  0.4975410000000 1.0
END
