TITL C-951338-5626-270 -4.29445278734685e-06 125000 -1060.53677198626 0 0 168 (C1) n - 1
REM
REM in /home/bkarasulu/work/CARBON/AIRSS/Generating-Clusters/EDIP-Nigel-Params/with-SteepDescent/Only-C1/SD-CG/HFTN-CG
REM
REM
REM
REM
REM
REM ./C.cell (11c1c37f851c82e70ff6c80c92926a4b)
REM
REM compiler GCC version 9.2.1 20190827 (Red Hat 9.2.1-1)
REM options -cpp -mtune=generic -march=x86-64 -g -O0 -fpre-include=/usr/include/finclude/math-vector-fortran.h
REM seed -1299233862 439813878 1168793314 1477813356 -1929832824 996342364 -479956221 1504720467 1990514147 470689480 394109487 415231990 1233811991 1512903383 256682962 807931894 1850226662 -2121924984 -481756373 -1828573324 1954632323 -1469615404 1521449648 2090903963 1382225868 -134062383 245029582 139723162 -691248823 -1301324184 -1890745358 -228095296 -373042753
REM
CELL 1.54180   50.00000   50.00000   50.00000   90.00000   90.00000   90.00000
LATT -1
SFAC C  
C      1  0.4755130000000  0.5184770000000  0.5375310000000 1.0
C      1  0.5494090000000  0.4523980000000  0.4773240000000 1.0
C      1  0.4717310000000  0.4517420000000  0.6003030000000 1.0
C      1  0.5446390000000  0.5051220000000  0.4002980000000 1.0
C      1  0.4770260000000  0.5836000000000  0.4939040000000 1.0
C      1  0.4961270000000  0.5176050000000  0.3980640000000 1.0
C      1  0.4615540000000  0.4031150000000  0.5121410000000 1.0
C      1  0.4409090000000  0.4726300000000  0.4180770000000 1.0
C      1  0.5716490000000  0.4773050000000  0.5794230000000 1.0
C      1  0.5932430000000  0.5401830000000  0.5492540000000 1.0
C      1  0.4591530000000  0.4423640000000  0.5360570000000 1.0
C      1  0.6050750000000  0.5214630000000  0.5286740000000 1.0
C      1  0.5863820000000  0.4699400000000  0.4523230000000 1.0
C      1  0.5155650000000  0.5848770000000  0.5182470000000 1.0
C      1  0.5269340000000  0.4386750000000  0.4627670000000 1.0
C      1  0.5748220000000  0.4373230000000  0.5483200000000 1.0
C      1  0.4875140000000  0.5415600000000  0.5937370000000 1.0
C      1  0.5479460000000  0.4025330000000  0.4981180000000 1.0
C      1  0.5523420000000  0.4155940000000  0.5474200000000 1.0
C      1  0.4184450000000  0.5716180000000  0.4676570000000 1.0
C      1  0.6105760000000  0.5049170000000  0.4714130000000 1.0
C      1  0.5072710000000  0.5595920000000  0.5360110000000 1.0
C      1  0.5978750000000  0.5352650000000  0.5035200000000 1.0
C      1  0.4736310000000  0.6062920000000  0.5142450000000 1.0
C      1  0.5119350000000  0.5534010000000  0.5866070000000 1.0
C      1  0.5089540000000  0.4290250000000  0.5680620000000 1.0
C      1  0.4628910000000  0.4469870000000  0.5054870000000 1.0
C      1  0.5682840000000  0.5375520000000  0.4586290000000 1.0
C      1  0.4923760000000  0.5670950000000  0.4139580000000 1.0
C      1  0.5652980000000  0.4830480000000  0.4348510000000 1.0
C      1  0.5464710000000  0.4450360000000  0.5067420000000 1.0
C      1  0.4205580000000  0.4412110000000  0.4844350000000 1.0
C      1  0.5398730000000  0.5711980000000  0.4384550000000 1.0
C      1  0.4509470000000  0.4439500000000  0.5828400000000 1.0
C      1  0.4420560000000  0.4876700000000  0.5632550000000 1.0
C      1  0.4658700000000  0.4899860000000  0.4578400000000 1.0
C      1  0.5494990000000  0.4801880000000  0.5411590000000 1.0
C      1  0.4196660000000  0.4889570000000  0.4114230000000 1.0
C      1  0.4461850000000  0.4248260000000  0.4911770000000 1.0
C      1  0.5702740000000  0.5357360000000  0.4284520000000 1.0
C      1  0.5177650000000  0.5091450000000  0.4172260000000 1.0
C      1  0.5074050000000  0.4544190000000  0.3907660000000 1.0
C      1  0.4660240000000  0.5559100000000  0.5035110000000 1.0
C      1  0.4271700000000  0.5886900000000  0.4883480000000 1.0
C      1  0.4868260000000  0.5094260000000  0.5646660000000 1.0
C      1  0.4036710000000  0.5071980000000  0.4225140000000 1.0
C      1  0.5542010000000  0.5786990000000  0.4888530000000 1.0
C      1  0.4383550000000  0.5295180000000  0.4368830000000 1.0
C      1  0.4727750000000  0.4814800000000  0.6008770000000 1.0
C      1  0.4568540000000  0.5027730000000  0.4858020000000 1.0
C      1  0.5358980000000  0.4065680000000  0.5245090000000 1.0
C      1  0.5407880000000  0.5815960000000  0.5608670000000 1.0
C      1  0.4928630000000  0.5976290000000  0.5587780000000 1.0
C      1  0.5599900000000  0.5239120000000  0.5912110000000 1.0
C      1  0.5153460000000  0.4867930000000  0.4393670000000 1.0
C      1  0.4963680000000  0.4804090000000  0.4621090000000 1.0
C      1  0.4333090000000  0.4592130000000  0.5671750000000 1.0
C      1  0.5940890000000  0.5274740000000  0.4761210000000 1.0
C      1  0.5529770000000  0.4334080000000  0.5913950000000 1.0
C      1  0.3938400000000  0.5609770000000  0.4781910000000 1.0
C      1  0.4661180000000  0.5638780000000  0.4506350000000 1.0
C      1  0.4910250000000  0.4074880000000  0.5037510000000 1.0
C      1  0.5483370000000  0.5443950000000  0.5131960000000 1.0
C      1  0.4639210000000  0.5591710000000  0.5608100000000 1.0
C      1  0.4716560000000  0.5027600000000  0.3910950000000 1.0
C      1  0.4223190000000  0.4472720000000  0.5444700000000 1.0
C      1  0.5458860000000  0.4765240000000  0.3921410000000 1.0
C      1  0.5465900000000  0.5505580000000  0.4195560000000 1.0
C      1  0.4711100000000  0.4848450000000  0.5709440000000 1.0
C      1  0.3997340000000  0.5061550000000  0.5723130000000 1.0
C      1  0.4996070000000  0.4433720000000  0.5944150000000 1.0
C      1  0.4376210000000  0.5465250000000  0.5672110000000 1.0
C      1  0.4853450000000  0.5389790000000  0.4836790000000 1.0
C      1  0.4824930000000  0.5130650000000  0.4941200000000 1.0
C      1  0.4635170000000  0.5687030000000  0.4213210000000 1.0
C      1  0.5167440000000  0.5013160000000  0.5673550000000 1.0
C      1  0.5419650000000  0.4919450000000  0.4525010000000 1.0
C      1  0.5259690000000  0.4660290000000  0.3754620000000 1.0
C      1  0.4686780000000  0.5202220000000  0.5976660000000 1.0
C      1  0.5547510000000  0.4951040000000  0.5981340000000 1.0
C      1  0.5568550000000  0.5659340000000  0.4633760000000 1.0
C      1  0.5579860000000  0.5085730000000  0.5420380000000 1.0
C      1  0.4921590000000  0.4384960000000  0.4973050000000 1.0
C      1  0.5487950000000  0.4355600000000  0.4216840000000 1.0
C      1  0.4767580000000  0.5492420000000  0.5337240000000 1.0
C      1  0.5928550000000  0.4830680000000  0.4786880000000 1.0
C      1  0.4507070000000  0.5181130000000  0.3808640000000 1.0
C      1  0.4517450000000  0.5959290000000  0.5309320000000 1.0
C      1  0.5070280000000  0.4795790000000  0.5105980000000 1.0
C      1  0.5132240000000  0.5730930000000  0.5634360000000 1.0
C      1  0.5769890000000  0.5198510000000  0.5648420000000 1.0
C      1  0.5294320000000  0.5221490000000  0.4877390000000 1.0
C      1  0.4236010000000  0.5360450000000  0.5423660000000 1.0
C      1  0.4651740000000  0.4132930000000  0.5406560000000 1.0
C      1  0.5723230000000  0.4477140000000  0.5768230000000 1.0
C      1  0.5645300000000  0.5180750000000  0.5124320000000 1.0
C      1  0.4659530000000  0.4762280000000  0.4032050000000 1.0
C      1  0.5363450000000  0.5401030000000  0.5922910000000 1.0
C      1  0.5772140000000  0.5592680000000  0.5344410000000 1.0
C      1  0.4799920000000  0.4623720000000  0.5483070000000 1.0
C      1  0.4015760000000  0.4465140000000  0.5040670000000 1.0
C      1  0.5250450000000  0.4917070000000  0.5962620000000 1.0
C      1  0.4394630000000  0.5502170000000  0.4609320000000 1.0
C      1  0.5553400000000  0.4621340000000  0.4156610000000 1.0
C      1  0.5150120000000  0.4508450000000  0.5151020000000 1.0
C      1  0.4406490000000  0.5268050000000  0.5894490000000 1.0
C      1  0.5923950000000  0.4942280000000  0.5665180000000 1.0
C      1  0.4070880000000  0.4874590000000  0.4693290000000 1.0
C      1  0.4816320000000  0.4815710000000  0.5252210000000 1.0
C      1  0.6025880000000  0.4600210000000  0.4973150000000 1.0
C      1  0.5407720000000  0.5215440000000  0.4596540000000 1.0
C      1  0.5117580000000  0.5476190000000  0.4892040000000 1.0
C      1  0.4460480000000  0.5048210000000  0.5353340000000 1.0
C      1  0.5675080000000  0.4950340000000  0.4909860000000 1.0
C      1  0.5193720000000  0.5327680000000  0.4383480000000 1.0
C      1  0.4525770000000  0.4843860000000  0.5098910000000 1.0
C      1  0.5348980000000  0.4211490000000  0.4406700000000 1.0
C      1  0.4391130000000  0.5418950000000  0.3856140000000 1.0
C      1  0.5009640000000  0.5937470000000  0.4566090000000 1.0
C      1  0.5006430000000  0.3938780000000  0.4791680000000 1.0
C      1  0.4255030000000  0.5027440000000  0.5828190000000 1.0
C      1  0.5375450000000  0.4202100000000  0.5719540000000 1.0
C      1  0.5454960000000  0.4809010000000  0.4788670000000 1.0
C      1  0.4982590000000  0.4485650000000  0.4662390000000 1.0
C      1  0.5078320000000  0.4005480000000  0.5273010000000 1.0
C      1  0.4967570000000  0.5455680000000  0.3961810000000 1.0
C      1  0.4738230000000  0.5889610000000  0.4649770000000 1.0
C      1  0.4102720000000  0.5272470000000  0.4885130000000 1.0
C      1  0.5753180000000  0.4447160000000  0.4629460000000 1.0
C      1  0.6014570000000  0.4912360000000  0.5382420000000 1.0
C      1  0.4030230000000  0.4993170000000  0.4961080000000 1.0
C      1  0.5643840000000  0.4586100000000  0.5280570000000 1.0
C      1  0.5446710000000  0.5883360000000  0.5140070000000 1.0
C      1  0.4656220000000  0.5158880000000  0.4421160000000 1.0
C      1  0.4040340000000  0.5122490000000  0.5452010000000 1.0
C      1  0.4466230000000  0.4658270000000  0.4468390000000 1.0
C      1  0.4637980000000  0.5886600000000  0.5580570000000 1.0
C      1  0.5106860000000  0.5757480000000  0.4367490000000 1.0
C      1  0.5077270000000  0.5777780000000  0.4906830000000 1.0
C      1  0.5576250000000  0.5797500000000  0.5383870000000 1.0
C      1  0.4410130000000  0.5317510000000  0.4865870000000 1.0
C      1  0.4038650000000  0.4612240000000  0.5276270000000 1.0
C      1  0.5732460000000  0.4171770000000  0.5008580000000 1.0
C      1  0.4874400000000  0.4576010000000  0.4094730000000 1.0
C      1  0.4139090000000  0.5589290000000  0.5248490000000 1.0
C      1  0.4087110000000  0.5089720000000  0.4495670000000 1.0
C      1  0.3947290000000  0.5482960000000  0.5049300000000 1.0
C      1  0.4848540000000  0.4394680000000  0.4314010000000 1.0
C      1  0.5163290000000  0.4651000000000  0.6020200000000 1.0
C      1  0.4795400000000  0.3990240000000  0.4614870000000 1.0
C      1  0.5340480000000  0.5217010000000  0.5523880000000 1.0
C      1  0.4855680000000  0.5376930000000  0.4519440000000 1.0
C      1  0.5250590000000  0.4752310000000  0.5550980000000 1.0
C      1  0.4987320000000  0.6073460000000  0.5305200000000 1.0
C      1  0.4314950000000  0.5805840000000  0.5149020000000 1.0
C      1  0.5909770000000  0.4346640000000  0.4853940000000 1.0
C      1  0.5953810000000  0.4628070000000  0.5265680000000 1.0
C      1  0.4607490000000  0.4396760000000  0.4457520000000 1.0
C      1  0.4060060000000  0.4904890000000  0.5239920000000 1.0
C      1  0.5054790000000  0.4972120000000  0.4877430000000 1.0
C      1  0.4596080000000  0.4187080000000  0.4649920000000 1.0
C      1  0.5292440000000  0.4015210000000  0.4734330000000 1.0
C      1  0.4930200000000  0.4078270000000  0.5516730000000 1.0
C      1  0.4232590000000  0.4634340000000  0.4656010000000 1.0
C      1  0.5085220000000  0.4520630000000  0.5475490000000 1.0
C      1  0.4434530000000  0.5481480000000  0.4127010000000 1.0
C      1  0.5696800000000  0.5083240000000  0.4170980000000 1.0
C      1  0.5251540000000  0.5375510000000  0.5303890000000 1.0
END
