TITL C-951344-124-137 -2.96925910366822e-06 125000 -339.23919998315 0 0 57 (C1) n - 1
REM
REM in /home/bkarasulu/work/CARBON/AIRSS/Generating-Clusters/EDIP-Nigel-Params/with-SteepDescent/Only-C1/SD-CG/HFTN-CG
REM
REM
REM
REM
REM
REM ./C.cell (11c1c37f851c82e70ff6c80c92926a4b)
REM
REM compiler GCC version 9.2.1 20190827 (Red Hat 9.2.1-1)
REM options -cpp -mtune=generic -march=x86-64 -g -O0 -fpre-include=/usr/include/finclude/math-vector-fortran.h
REM seed -303318040 -1417672875 1313765921 1186566935 2049333247 -851906929 1192049228 1398991445 1392822887 169384831 -302728201 168538750 786927156 -497627849 -733491217 646849682 -1431447287 -417267074 -2044389006 778657252 2068366431 -917320475 -1894193465 -79804413 -1529066509 1555810752 -1895311662 -875122266 -1171294668 -1284702964 1515468834 1041529724 -939460497
REM
CELL 1.54180   50.00000   50.00000   50.00000   90.00000   90.00000   90.00000
LATT -1
SFAC C  
C      1  0.5567260000000  0.4590790000000  0.4534040000000 1.0
C      1  0.5120180000000  0.4689600000000  0.4751600000000 1.0
C      1  0.4721780000000  0.4841560000000  0.4519980000000 1.0
C      1  0.5498220000000  0.5171190000000  0.4730500000000 1.0
C      1  0.4933660000000  0.4965830000000  0.5738120000000 1.0
C      1  0.4597970000000  0.4644110000000  0.5486680000000 1.0
C      1  0.4692740000000  0.4909350000000  0.5598890000000 1.0
C      1  0.5135150000000  0.4709290000000  0.4282750000000 1.0
C      1  0.4671780000000  0.5708100000000  0.4867710000000 1.0
C      1  0.4340440000000  0.4927170000000  0.5097170000000 1.0
C      1  0.5313370000000  0.4744670000000  0.4523920000000 1.0
C      1  0.4890030000000  0.5406660000000  0.4559100000000 1.0
C      1  0.5266100000000  0.5550360000000  0.5387610000000 1.0
C      1  0.4651060000000  0.5052120000000  0.4327410000000 1.0
C      1  0.4814450000000  0.5467360000000  0.5309010000000 1.0
C      1  0.4828320000000  0.4501450000000  0.5392710000000 1.0
C      1  0.4494810000000  0.4696450000000  0.4677670000000 1.0
C      1  0.4904620000000  0.5799800000000  0.5024330000000 1.0
C      1  0.5785850000000  0.4643520000000  0.4693880000000 1.0
C      1  0.4829410000000  0.4365480000000  0.5133010000000 1.0
C      1  0.5341730000000  0.5037500000000  0.4515540000000 1.0
C      1  0.5206970000000  0.4608370000000  0.5027260000000 1.0
C      1  0.5103720000000  0.5166760000000  0.5621850000000 1.0
C      1  0.4696180000000  0.5040590000000  0.5329470000000 1.0
C      1  0.5074520000000  0.5288660000000  0.4754230000000 1.0
C      1  0.5029070000000  0.5440480000000  0.5519070000000 1.0
C      1  0.5402400000000  0.5154440000000  0.5645000000000 1.0
C      1  0.4950620000000  0.5264980000000  0.5051270000000 1.0
C      1  0.5608330000000  0.4726870000000  0.4889010000000 1.0
C      1  0.4711930000000  0.4526510000000  0.4881860000000 1.0
C      1  0.4761960000000  0.4831430000000  0.5008040000000 1.0
C      1  0.4319490000000  0.4895920000000  0.4798740000000 1.0
C      1  0.5575220000000  0.5004640000000  0.4957340000000 1.0
C      1  0.5252550000000  0.4256940000000  0.5336620000000 1.0
C      1  0.5516350000000  0.4918570000000  0.5488430000000 1.0
C      1  0.5008720000000  0.4770140000000  0.5188410000000 1.0
C      1  0.4913760000000  0.4940980000000  0.4756600000000 1.0
C      1  0.5125300000000  0.4330850000000  0.5097370000000 1.0
C      1  0.4426230000000  0.4713640000000  0.5268110000000 1.0
C      1  0.4399710000000  0.5152340000000  0.4678530000000 1.0
C      1  0.4882160000000  0.5218190000000  0.4332870000000 1.0
C      1  0.5479830000000  0.5354680000000  0.5420610000000 1.0
C      1  0.4407300000000  0.5231360000000  0.5131500000000 1.0
C      1  0.5156990000000  0.5648630000000  0.5046840000000 1.0
C      1  0.5435440000000  0.4665480000000  0.5569060000000 1.0
C      1  0.5418590000000  0.5070700000000  0.5214650000000 1.0
C      1  0.4570650000000  0.5310590000000  0.5371600000000 1.0
C      1  0.4928810000000  0.4472040000000  0.4656450000000 1.0
C      1  0.4602590000000  0.5222790000000  0.4891130000000 1.0
C      1  0.5143570000000  0.5087170000000  0.4294720000000 1.0
C      1  0.4633830000000  0.5467180000000  0.4698040000000 1.0
C      1  0.4877870000000  0.4610020000000  0.4386370000000 1.0
C      1  0.5244710000000  0.5525510000000  0.4800820000000 1.0
C      1  0.4738480000000  0.5748820000000  0.5249720000000 1.0
C      1  0.5114020000000  0.5049330000000  0.5195070000000 1.0
C      1  0.5372510000000  0.4411070000000  0.5520840000000 1.0
C      1  0.5510660000000  0.5450980000000  0.4770870000000 1.0
END
