TITL C-950525-1983-675 -1.25078570928996e-06 125000 -592.095126424754 0 0 95 (C1) n - 1
REM
REM in /home/bkarasulu/work/CARBON/AIRSS/Generating-Clusters/EDIP-Nigel-Params/with-SteepDescent/Only-C1/SD-CG/HFTN-CG
REM
REM
REM
REM
REM
REM ./C.cell (11c1c37f851c82e70ff6c80c92926a4b)
REM
REM compiler GCC version 9.2.1 20190827 (Red Hat 9.2.1-1)
REM options -cpp -mtune=generic -march=x86-64 -g -O0 -fpre-include=/usr/include/finclude/math-vector-fortran.h
REM seed -231755478 -265163137 -493301448 -755542438 90314876 998986259 462334737 481067893 -1672626513 -2014976524 1221745785 -725317672 -1987620312 1722078646 -227469824 1633519258 -1354515312 -911529832 1262345695 943384521 306387354 -1999962135 -1638065780 592666264 -1141132 1220656046 -419745412 -673663763 -1018133944 -2121391127 460826455 2009581565 477044658
REM
CELL 1.54180   50.00000   50.00000   50.00000   90.00000   90.00000   90.00000
LATT -1
SFAC C  
C      1  0.5044480000000  0.4137410000000  0.4795930000000 1.0
C      1  0.4234570000000  0.5018890000000  0.5374290000000 1.0
C      1  0.5492840000000  0.4680440000000  0.5626010000000 1.0
C      1  0.4727580000000  0.5587870000000  0.4984390000000 1.0
C      1  0.4862470000000  0.4423880000000  0.5204230000000 1.0
C      1  0.4749300000000  0.5112490000000  0.5101550000000 1.0
C      1  0.5374220000000  0.5560540000000  0.4301120000000 1.0
C      1  0.4334240000000  0.4921380000000  0.4895470000000 1.0
C      1  0.4377270000000  0.5075340000000  0.4635720000000 1.0
C      1  0.5288980000000  0.4423670000000  0.5119900000000 1.0
C      1  0.5137930000000  0.4925510000000  0.5875390000000 1.0
C      1  0.4524240000000  0.4183690000000  0.4578290000000 1.0
C      1  0.5688530000000  0.5037040000000  0.4888230000000 1.0
C      1  0.5337980000000  0.4722570000000  0.5073320000000 1.0
C      1  0.4811820000000  0.4205830000000  0.4986560000000 1.0
C      1  0.4789700000000  0.4833580000000  0.4117890000000 1.0
C      1  0.4669510000000  0.4559660000000  0.5633980000000 1.0
C      1  0.5160010000000  0.5157460000000  0.5346380000000 1.0
C      1  0.5167770000000  0.4549180000000  0.4180970000000 1.0
C      1  0.5344330000000  0.4889420000000  0.5334170000000 1.0
C      1  0.5209740000000  0.5039610000000  0.4230180000000 1.0
C      1  0.4737850000000  0.4318710000000  0.4453440000000 1.0
C      1  0.4472300000000  0.4833940000000  0.5358430000000 1.0
C      1  0.4308710000000  0.5260320000000  0.5531350000000 1.0
C      1  0.5083300000000  0.4428110000000  0.5506700000000 1.0
C      1  0.4791560000000  0.4589720000000  0.4517820000000 1.0
C      1  0.5411970000000  0.4921530000000  0.5770200000000 1.0
C      1  0.4549900000000  0.4247990000000  0.4850410000000 1.0
C      1  0.4314850000000  0.5367410000000  0.5073240000000 1.0
C      1  0.5071240000000  0.4804680000000  0.4115000000000 1.0
C      1  0.4994480000000  0.4182080000000  0.4490550000000 1.0
C      1  0.4924280000000  0.4495010000000  0.5734450000000 1.0
C      1  0.4563200000000  0.5676750000000  0.5387660000000 1.0
C      1  0.4986990000000  0.5243380000000  0.4289310000000 1.0
C      1  0.5831060000000  0.4470700000000  0.4753190000000 1.0
C      1  0.5201400000000  0.5319800000000  0.4820650000000 1.0
C      1  0.5280900000000  0.4307700000000  0.4852880000000 1.0
C      1  0.5373230000000  0.4425070000000  0.5554200000000 1.0
C      1  0.5079070000000  0.5404750000000  0.5756320000000 1.0
C      1  0.5093180000000  0.4769900000000  0.4883840000000 1.0
C      1  0.5583310000000  0.5167360000000  0.4648010000000 1.0
C      1  0.4600770000000  0.4867820000000  0.5078410000000 1.0
C      1  0.5069290000000  0.5546620000000  0.4654620000000 1.0
C      1  0.5412530000000  0.4679900000000  0.4525530000000 1.0
C      1  0.5601960000000  0.4758220000000  0.4915460000000 1.0
C      1  0.4679450000000  0.5119020000000  0.5900810000000 1.0
C      1  0.4839210000000  0.4681150000000  0.5035330000000 1.0
C      1  0.4960380000000  0.5153260000000  0.5843700000000 1.0
C      1  0.5293330000000  0.5348620000000  0.5558220000000 1.0
C      1  0.4373210000000  0.4484040000000  0.5261090000000 1.0
C      1  0.4355800000000  0.5483680000000  0.5345330000000 1.0
C      1  0.4699330000000  0.4930530000000  0.5564010000000 1.0
C      1  0.4177630000000  0.5100190000000  0.5091370000000 1.0
C      1  0.4273060000000  0.4634340000000  0.4529600000000 1.0
C      1  0.4978830000000  0.5931520000000  0.5311940000000 1.0
C      1  0.4353490000000  0.4433600000000  0.4975650000000 1.0
C      1  0.4595130000000  0.5330250000000  0.4957760000000 1.0
C      1  0.4632800000000  0.5509020000000  0.4244100000000 1.0
C      1  0.4414390000000  0.4864730000000  0.4438570000000 1.0
C      1  0.4605950000000  0.5262420000000  0.4657320000000 1.0
C      1  0.5355750000000  0.4982120000000  0.4506020000000 1.0
C      1  0.5407720000000  0.5723590000000  0.5191440000000 1.0
C      1  0.4620230000000  0.4418780000000  0.5388410000000 1.0
C      1  0.5341410000000  0.5879230000000  0.4645930000000 1.0
C      1  0.5825110000000  0.4576430000000  0.5019820000000 1.0
C      1  0.4853150000000  0.5094660000000  0.4530900000000 1.0
C      1  0.4772510000000  0.5319530000000  0.4102670000000 1.0
C      1  0.4863780000000  0.5107870000000  0.5374620000000 1.0
C      1  0.4797270000000  0.5680340000000  0.4712970000000 1.0
C      1  0.5495710000000  0.4315920000000  0.5305250000000 1.0
C      1  0.5180280000000  0.5899420000000  0.5107180000000 1.0
C      1  0.5523490000000  0.5166820000000  0.5637910000000 1.0
C      1  0.5604920000000  0.5593620000000  0.5007490000000 1.0
C      1  0.5483070000000  0.5659430000000  0.4541200000000 1.0
C      1  0.4595570000000  0.5531210000000  0.4520690000000 1.0
C      1  0.4943100000000  0.5528670000000  0.5151930000000 1.0
C      1  0.5110190000000  0.5498070000000  0.4370430000000 1.0
C      1  0.5495980000000  0.5445940000000  0.4753380000000 1.0
C      1  0.4231260000000  0.4648950000000  0.4810450000000 1.0
C      1  0.5135760000000  0.5333960000000  0.5105840000000 1.0
C      1  0.5616950000000  0.5027890000000  0.5379920000000 1.0
C      1  0.5110100000000  0.5899070000000  0.4814160000000 1.0
C      1  0.5391270000000  0.5598700000000  0.5444530000000 1.0
C      1  0.4804900000000  0.5785180000000  0.5488740000000 1.0
C      1  0.4922250000000  0.5626460000000  0.5688020000000 1.0
C      1  0.5671900000000  0.4569270000000  0.4549310000000 1.0
C      1  0.4467210000000  0.5226660000000  0.5761830000000 1.0
C      1  0.5186610000000  0.4539010000000  0.4673170000000 1.0
C      1  0.5748470000000  0.4418380000000  0.5235470000000 1.0
C      1  0.5796050000000  0.5441430000000  0.5151560000000 1.0
C      1  0.4713850000000  0.4840040000000  0.4399230000000 1.0
C      1  0.5115060000000  0.5038660000000  0.4702550000000 1.0
C      1  0.5028770000000  0.4673900000000  0.5919310000000 1.0
C      1  0.5205130000000  0.4329600000000  0.4346690000000 1.0
C      1  0.5688340000000  0.5181890000000  0.5140540000000 1.0
END
