TITL C-950526-5686-515 2.29642611162705e-06 125000 -734.369595919809 0 0 119 (C1) n - 1
REM
REM in /home/bkarasulu/work/CARBON/AIRSS/Generating-Clusters/EDIP-Nigel-Params/with-SteepDescent/Only-C1/SD-CG/HFTN-CG
REM
REM
REM
REM
REM
REM ./C.cell (11c1c37f851c82e70ff6c80c92926a4b)
REM
REM compiler GCC version 9.2.1 20190827 (Red Hat 9.2.1-1)
REM options -cpp -mtune=generic -march=x86-64 -g -O0 -fpre-include=/usr/include/finclude/math-vector-fortran.h
REM seed 1953067463 -1701973395 1868019283 -1633536475 -1699334484 1975013492 -1008817059 -1482793900 -253350724 168672167 1783430882 1732837091 -1722023695 -156361088 1372902618 957568687 568557735 530699479 -773263570 -207166359 -373973755 -213376859 -2134782374 -380044978 1628043058 607454770 1430254104 -1909758126 -1522213294 698701357 -1981754280 -843635886 677759375
REM
CELL 1.54180   50.00000   50.00000   50.00000   90.00000   90.00000   90.00000
LATT -1
SFAC C  
C      1  0.5524640000000  0.4675290000000  0.4920470000000 1.0
C      1  0.5322450000000  0.5085070000000  0.4717840000000 1.0
C      1  0.4902810000000  0.5348880000000  0.4810140000000 1.0
C      1  0.4824470000000  0.5215340000000  0.4040600000000 1.0
C      1  0.5172990000000  0.5588810000000  0.5441020000000 1.0
C      1  0.4647340000000  0.4525200000000  0.5682040000000 1.0
C      1  0.4933290000000  0.4887170000000  0.5880290000000 1.0
C      1  0.5559420000000  0.4254610000000  0.4609810000000 1.0
C      1  0.5237350000000  0.5298100000000  0.4910920000000 1.0
C      1  0.5415270000000  0.4958520000000  0.5766130000000 1.0
C      1  0.5704430000000  0.4415810000000  0.5326460000000 1.0
C      1  0.4158210000000  0.5141720000000  0.5339650000000 1.0
C      1  0.5377840000000  0.4746900000000  0.4204120000000 1.0
C      1  0.5199260000000  0.4990210000000  0.4226840000000 1.0
C      1  0.4767970000000  0.5165280000000  0.4339610000000 1.0
C      1  0.4051360000000  0.5210570000000  0.4884940000000 1.0
C      1  0.4341630000000  0.5197070000000  0.4262680000000 1.0
C      1  0.5340310000000  0.5266930000000  0.4247530000000 1.0
C      1  0.5791760000000  0.5483030000000  0.4871460000000 1.0
C      1  0.4864110000000  0.5806220000000  0.5081610000000 1.0
C      1  0.5583110000000  0.5160890000000  0.5656600000000 1.0
C      1  0.5535380000000  0.4818660000000  0.5255060000000 1.0
C      1  0.5404390000000  0.4804520000000  0.4683600000000 1.0
C      1  0.4578000000000  0.4967910000000  0.5037550000000 1.0
C      1  0.4434570000000  0.5677800000000  0.5288770000000 1.0
C      1  0.4222430000000  0.4820780000000  0.4611400000000 1.0
C      1  0.5687710000000  0.4467750000000  0.4464660000000 1.0
C      1  0.4454120000000  0.5204590000000  0.5222840000000 1.0
C      1  0.4859540000000  0.5115160000000  0.5380860000000 1.0
C      1  0.4524740000000  0.5006250000000  0.5647990000000 1.0
C      1  0.5181410000000  0.4522700000000  0.4211430000000 1.0
C      1  0.4503950000000  0.4738780000000  0.4276200000000 1.0
C      1  0.4155230000000  0.4742170000000  0.5097710000000 1.0
C      1  0.5330810000000  0.4523500000000  0.5119630000000 1.0
C      1  0.4750730000000  0.5532630000000  0.4995000000000 1.0
C      1  0.4806200000000  0.5339070000000  0.5857920000000 1.0
C      1  0.5244090000000  0.5748670000000  0.4446550000000 1.0
C      1  0.4632950000000  0.5644270000000  0.5504690000000 1.0
C      1  0.5094740000000  0.5113140000000  0.3982830000000 1.0
C      1  0.4314300000000  0.5205230000000  0.5588440000000 1.0
C      1  0.5836490000000  0.4984300000000  0.4973920000000 1.0
C      1  0.4588570000000  0.5994540000000  0.4799470000000 1.0
C      1  0.4917020000000  0.4190700000000  0.5384810000000 1.0
C      1  0.5177080000000  0.4518680000000  0.5676060000000 1.0
C      1  0.5186090000000  0.5537720000000  0.5722090000000 1.0
C      1  0.4388390000000  0.4949500000000  0.4409530000000 1.0
C      1  0.5562040000000  0.4738990000000  0.4438130000000 1.0
C      1  0.5164670000000  0.4263480000000  0.5541090000000 1.0
C      1  0.5071550000000  0.5745740000000  0.4697260000000 1.0
C      1  0.4074690000000  0.4852690000000  0.5348030000000 1.0
C      1  0.5096860000000  0.5338100000000  0.5900400000000 1.0
C      1  0.4173980000000  0.4690620000000  0.5556050000000 1.0
C      1  0.4698180000000  0.5064140000000  0.5883460000000 1.0
C      1  0.4821500000000  0.4406190000000  0.4517860000000 1.0
C      1  0.5322170000000  0.5599650000000  0.4843290000000 1.0
C      1  0.5394610000000  0.4106050000000  0.5537240000000 1.0
C      1  0.4471360000000  0.4305740000000  0.5233950000000 1.0
C      1  0.5659460000000  0.5468070000000  0.4601210000000 1.0
C      1  0.5909690000000  0.5302130000000  0.5324160000000 1.0
C      1  0.4785760000000  0.5899290000000  0.5499470000000 1.0
C      1  0.5378000000000  0.5066590000000  0.5342610000000 1.0
C      1  0.4818130000000  0.4566450000000  0.5300960000000 1.0
C      1  0.4834130000000  0.5396330000000  0.5551210000000 1.0
C      1  0.4979550000000  0.4913610000000  0.4710330000000 1.0
C      1  0.4177350000000  0.4942380000000  0.4873960000000 1.0
C      1  0.5111460000000  0.4383980000000  0.4466660000000 1.0
C      1  0.4474420000000  0.5986150000000  0.5080530000000 1.0
C      1  0.4528160000000  0.5234080000000  0.4040990000000 1.0
C      1  0.5424560000000  0.4686000000000  0.5662120000000 1.0
C      1  0.4406740000000  0.4577800000000  0.5142460000000 1.0
C      1  0.5747320000000  0.5734410000000  0.4993840000000 1.0
C      1  0.5892160000000  0.4973000000000  0.4699230000000 1.0
C      1  0.5156950000000  0.5060030000000  0.5836520000000 1.0
C      1  0.5875110000000  0.4832710000000  0.5447380000000 1.0
C      1  0.4431050000000  0.4728750000000  0.5658720000000 1.0
C      1  0.4222420000000  0.5480130000000  0.4893010000000 1.0
C      1  0.4265050000000  0.5426410000000  0.4401970000000 1.0
C      1  0.4465030000000  0.5809280000000  0.4625100000000 1.0
C      1  0.5410260000000  0.4114080000000  0.5068150000000 1.0
C      1  0.5459060000000  0.5286570000000  0.5159970000000 1.0
C      1  0.5746210000000  0.4979630000000  0.4458510000000 1.0
C      1  0.5830170000000  0.5117280000000  0.5521370000000 1.0
C      1  0.4715140000000  0.4561760000000  0.4281970000000 1.0
C      1  0.4636910000000  0.4280310000000  0.5487310000000 1.0
C      1  0.5605040000000  0.5241470000000  0.4416460000000 1.0
C      1  0.5040850000000  0.5835420000000  0.5352130000000 1.0
C      1  0.4774400000000  0.5083440000000  0.4833710000000 1.0
C      1  0.4468930000000  0.5472190000000  0.5087200000000 1.0
C      1  0.4673720000000  0.4153070000000  0.4533160000000 1.0
C      1  0.4915230000000  0.4116170000000  0.5085310000000 1.0
C      1  0.4918310000000  0.4645330000000  0.5722770000000 1.0
C      1  0.4793680000000  0.4531790000000  0.4799200000000 1.0
C      1  0.5752890000000  0.4493800000000  0.4844660000000 1.0
C      1  0.5102550000000  0.5028470000000  0.5237910000000 1.0
C      1  0.5475130000000  0.5728480000000  0.5069840000000 1.0
C      1  0.4986160000000  0.4549940000000  0.5045070000000 1.0
C      1  0.4293530000000  0.5589790000000  0.4623670000000 1.0
C      1  0.4692690000000  0.4859910000000  0.5326900000000 1.0
C      1  0.5761450000000  0.5257900000000  0.5077750000000 1.0
C      1  0.4623460000000  0.4181740000000  0.5009760000000 1.0
C      1  0.3992410000000  0.5304280000000  0.5153110000000 1.0
C      1  0.5533850000000  0.4180700000000  0.5309140000000 1.0
C      1  0.4654200000000  0.6061570000000  0.5293860000000 1.0
C      1  0.5141550000000  0.5486450000000  0.4343790000000 1.0
C      1  0.5428750000000  0.5549480000000  0.5298530000000 1.0
C      1  0.5891560000000  0.4500880000000  0.5109250000000 1.0
C      1  0.5274880000000  0.4237240000000  0.4652660000000 1.0
C      1  0.5523920000000  0.5712210000000  0.4529840000000 1.0
C      1  0.5961380000000  0.4788160000000  0.5159710000000 1.0
C      1  0.5115580000000  0.4828230000000  0.5008230000000 1.0
C      1  0.4495350000000  0.4211510000000  0.4744430000000 1.0
C      1  0.5697340000000  0.4598000000000  0.5563590000000 1.0
C      1  0.4940600000000  0.4920240000000  0.4390910000000 1.0
C      1  0.5173790000000  0.4164790000000  0.4925580000000 1.0
C      1  0.4891080000000  0.5397580000000  0.4493530000000 1.0
C      1  0.4909060000000  0.5968540000000  0.4818840000000 1.0
C      1  0.4933170000000  0.4640120000000  0.4125610000000 1.0
C      1  0.4520940000000  0.4627100000000  0.4868430000000 1.0
C      1  0.4321780000000  0.4544800000000  0.4659230000000 1.0
END
