TITL C-951339-9237-544 1.70178760162502e-06 125000 -897.972435592613 0 0 145 (C1) n - 1
REM
REM in /home/bkarasulu/work/CARBON/AIRSS/Generating-Clusters/EDIP-Nigel-Params/with-SteepDescent/Only-C1/SD-CG/HFTN-CG
REM
REM
REM
REM
REM
REM ./C.cell (11c1c37f851c82e70ff6c80c92926a4b)
REM
REM compiler GCC version 9.2.1 20190827 (Red Hat 9.2.1-1)
REM options -cpp -mtune=generic -march=x86-64 -g -O0 -fpre-include=/usr/include/finclude/math-vector-fortran.h
REM seed -1118320219 -747810155 -705691050 -1780602375 -1227563877 -1497343699 1088676074 1367186452 -900680043 1940110671 757401617 1514234180 1464746396 -772723172 1860307312 -1331996229 -1811797501 989131901 638240128 -333419539 -1504098706 1855643354 -787832538 -1353731749 -926726101 -1615951378 -1171584212 -1786429304 -2066798884 -1783446417 -1692124457 -1906786978 2029696315
REM
CELL 1.54180   50.00000   50.00000   50.00000   90.00000   90.00000   90.00000
LATT -1
SFAC C  
C      1  0.5154440000000  0.5935000000000  0.4881200000000 1.0
C      1  0.5179350000000  0.5493180000000  0.4435830000000 1.0
C      1  0.5850120000000  0.5276350000000  0.4567190000000 1.0
C      1  0.3989230000000  0.5369490000000  0.5190070000000 1.0
C      1  0.4061470000000  0.4480370000000  0.4692510000000 1.0
C      1  0.4629620000000  0.5673230000000  0.4466580000000 1.0
C      1  0.5790650000000  0.4820130000000  0.5469950000000 1.0
C      1  0.3901990000000  0.4908510000000  0.4967370000000 1.0
C      1  0.4672520000000  0.4914000000000  0.5475880000000 1.0
C      1  0.4113310000000  0.5199040000000  0.4690490000000 1.0
C      1  0.4532010000000  0.4231270000000  0.5234180000000 1.0
C      1  0.5156230000000  0.5564340000000  0.5781600000000 1.0
C      1  0.5956570000000  0.4441550000000  0.4702440000000 1.0
C      1  0.4215880000000  0.5424030000000  0.4547690000000 1.0
C      1  0.5397080000000  0.4875020000000  0.5666250000000 1.0
C      1  0.5944970000000  0.5322050000000  0.5470230000000 1.0
C      1  0.5525050000000  0.5218520000000  0.5371360000000 1.0
C      1  0.5079930000000  0.4454400000000  0.5703020000000 1.0
C      1  0.4559330000000  0.5315690000000  0.5737360000000 1.0
C      1  0.4664590000000  0.4236110000000  0.5524000000000 1.0
C      1  0.5432530000000  0.5440700000000  0.5802510000000 1.0
C      1  0.4093890000000  0.4945850000000  0.4546420000000 1.0
C      1  0.5514930000000  0.5609140000000  0.4737540000000 1.0
C      1  0.4278290000000  0.4486930000000  0.4483870000000 1.0
C      1  0.5292900000000  0.4757210000000  0.4473490000000 1.0
C      1  0.4968220000000  0.5203240000000  0.4747480000000 1.0
C      1  0.4614150000000  0.5142110000000  0.4414050000000 1.0
C      1  0.4487380000000  0.4926280000000  0.4242350000000 1.0
C      1  0.5411230000000  0.4628030000000  0.4231560000000 1.0
C      1  0.4427920000000  0.4657660000000  0.5812110000000 1.0
C      1  0.3952250000000  0.5202240000000  0.4939090000000 1.0
C      1  0.5425560000000  0.4168300000000  0.5329880000000 1.0
C      1  0.5529780000000  0.5528130000000  0.4283200000000 1.0
C      1  0.5428670000000  0.4997130000000  0.4537290000000 1.0
C      1  0.4919110000000  0.5522540000000  0.5965130000000 1.0
C      1  0.5830660000000  0.4847780000000  0.4341530000000 1.0
C      1  0.5966150000000  0.4898620000000  0.4899760000000 1.0
C      1  0.4128140000000  0.5191410000000  0.5481860000000 1.0
C      1  0.4323280000000  0.4127950000000  0.4993510000000 1.0
C      1  0.4347200000000  0.4793390000000  0.4496600000000 1.0
C      1  0.5193930000000  0.5738310000000  0.5544450000000 1.0
C      1  0.5091640000000  0.5026660000000  0.5263530000000 1.0
C      1  0.4452970000000  0.5429160000000  0.4848950000000 1.0
C      1  0.4494050000000  0.4555740000000  0.4933440000000 1.0
C      1  0.4719570000000  0.5216200000000  0.5491490000000 1.0
C      1  0.4418540000000  0.4411530000000  0.5623640000000 1.0
C      1  0.5356000000000  0.4782260000000  0.6089180000000 1.0
C      1  0.4835850000000  0.4846230000000  0.5226240000000 1.0
C      1  0.4687380000000  0.4821750000000  0.5779070000000 1.0
C      1  0.3939910000000  0.4760700000000  0.4710090000000 1.0
C      1  0.5279960000000  0.5023470000000  0.4123280000000 1.0
C      1  0.5813030000000  0.5720190000000  0.5048760000000 1.0
C      1  0.5703050000000  0.4578500000000  0.4317130000000 1.0
C      1  0.5537040000000  0.5821140000000  0.5160580000000 1.0
C      1  0.4902170000000  0.5225850000000  0.6029620000000 1.0
C      1  0.4606780000000  0.5802080000000  0.5652910000000 1.0
C      1  0.4842680000000  0.4140320000000  0.4858850000000 1.0
C      1  0.5713040000000  0.5010980000000  0.5248550000000 1.0
C      1  0.4851270000000  0.5752270000000  0.5262680000000 1.0
C      1  0.4472030000000  0.5415790000000  0.4409190000000 1.0
C      1  0.5153510000000  0.5053960000000  0.4930730000000 1.0
C      1  0.5745090000000  0.4465000000000  0.5123030000000 1.0
C      1  0.5748370000000  0.5810170000000  0.4773150000000 1.0
C      1  0.4082970000000  0.4509980000000  0.5210960000000 1.0
C      1  0.5737900000000  0.4389870000000  0.4538160000000 1.0
C      1  0.4214950000000  0.4414560000000  0.4946830000000 1.0
C      1  0.4926650000000  0.4539370000000  0.5198180000000 1.0
C      1  0.5597420000000  0.5041950000000  0.4281320000000 1.0
C      1  0.5950900000000  0.4992450000000  0.4602730000000 1.0
C      1  0.3957300000000  0.4766690000000  0.5206750000000 1.0
C      1  0.5085010000000  0.5550970000000  0.5324850000000 1.0
C      1  0.5252060000000  0.4228780000000  0.4472590000000 1.0
C      1  0.5165360000000  0.4872870000000  0.5877900000000 1.0
C      1  0.4809470000000  0.4860750000000  0.3934270000000 1.0
C      1  0.5611710000000  0.4187040000000  0.5099410000000 1.0
C      1  0.4675250000000  0.4961450000000  0.4968620000000 1.0
C      1  0.5074690000000  0.5136070000000  0.5816900000000 1.0
C      1  0.4496260000000  0.4076020000000  0.4762860000000 1.0
C      1  0.4657470000000  0.5576630000000  0.5840810000000 1.0
C      1  0.5100720000000  0.5778280000000  0.4364770000000 1.0
C      1  0.4704180000000  0.5123980000000  0.3981320000000 1.0
C      1  0.5393470000000  0.6053900000000  0.5034520000000 1.0
C      1  0.4242680000000  0.4871360000000  0.5671360000000 1.0
C      1  0.5273210000000  0.3910250000000  0.4905550000000 1.0
C      1  0.4720830000000  0.4381320000000  0.5039510000000 1.0
C      1  0.4376060000000  0.5657410000000  0.5034130000000 1.0
C      1  0.5062530000000  0.4514430000000  0.4087580000000 1.0
C      1  0.5685010000000  0.5479400000000  0.5393860000000 1.0
C      1  0.5502600000000  0.4066070000000  0.4858430000000 1.0
C      1  0.4647310000000  0.5093300000000  0.5936580000000 1.0
C      1  0.5521210000000  0.4616510000000  0.5925510000000 1.0
C      1  0.4974140000000  0.4215560000000  0.4589750000000 1.0
C      1  0.5080910000000  0.5234950000000  0.4252120000000 1.0
C      1  0.4900180000000  0.5322200000000  0.4031760000000 1.0
C      1  0.5531300000000  0.5741700000000  0.4465690000000 1.0
C      1  0.4350610000000  0.4536840000000  0.5352250000000 1.0
C      1  0.5958010000000  0.5182180000000  0.5168330000000 1.0
C      1  0.5536120000000  0.5161390000000  0.5670700000000 1.0
C      1  0.4368850000000  0.5662820000000  0.5477760000000 1.0
C      1  0.5135920000000  0.5949090000000  0.4589570000000 1.0
C      1  0.5839460000000  0.5132910000000  0.5675170000000 1.0
C      1  0.5597770000000  0.4864700000000  0.5001920000000 1.0
C      1  0.5411930000000  0.4663760000000  0.5169690000000 1.0
C      1  0.4998790000000  0.4778600000000  0.4515570000000 1.0
C      1  0.4764750000000  0.4324490000000  0.4430070000000 1.0
C      1  0.5290270000000  0.4351420000000  0.4206920000000 1.0
C      1  0.4829540000000  0.5753530000000  0.4255970000000 1.0
C      1  0.4857380000000  0.4574680000000  0.4303350000000 1.0
C      1  0.4573120000000  0.5607730000000  0.5252420000000 1.0
C      1  0.4486170000000  0.5174990000000  0.5051770000000 1.0
C      1  0.5316680000000  0.5679370000000  0.4970670000000 1.0
C      1  0.4540800000000  0.4788070000000  0.4768060000000 1.0
C      1  0.4951150000000  0.4679570000000  0.5833900000000 1.0
C      1  0.5028690000000  0.5475500000000  0.4708800000000 1.0
C      1  0.5291250000000  0.4841280000000  0.5381540000000 1.0
C      1  0.4508910000000  0.4305350000000  0.4567320000000 1.0
C      1  0.4730090000000  0.5578270000000  0.4733390000000 1.0
C      1  0.5552560000000  0.5636690000000  0.5606960000000 1.0
C      1  0.4294070000000  0.5399720000000  0.5622310000000 1.0
C      1  0.5053770000000  0.4777640000000  0.4842270000000 1.0
C      1  0.5755090000000  0.4535140000000  0.5413620000000 1.0
C      1  0.5376060000000  0.4441180000000  0.5744350000000 1.0
C      1  0.4246650000000  0.5026600000000  0.5215700000000 1.0
C      1  0.4950950000000  0.4335190000000  0.5454690000000 1.0
C      1  0.4704250000000  0.5854650000000  0.4808310000000 1.0
C      1  0.5656870000000  0.5340150000000  0.4781340000000 1.0
C      1  0.5045890000000  0.3997930000000  0.5043230000000 1.0
C      1  0.5452740000000  0.5076030000000  0.4828100000000 1.0
C      1  0.5170420000000  0.4565560000000  0.5015080000000 1.0
C      1  0.5128860000000  0.4122740000000  0.5304730000000 1.0
C      1  0.4820540000000  0.5586640000000  0.4033460000000 1.0
C      1  0.4887360000000  0.5926640000000  0.5015150000000 1.0
C      1  0.4386050000000  0.4838650000000  0.5409670000000 1.0
C      1  0.5114500000000  0.4807380000000  0.3965510000000 1.0
C      1  0.5941800000000  0.4595840000000  0.4933170000000 1.0
C      1  0.4124250000000  0.5626560000000  0.5177880000000 1.0
C      1  0.5025450000000  0.5266420000000  0.5478640000000 1.0
C      1  0.5504390000000  0.4230430000000  0.4622250000000 1.0
C      1  0.4911500000000  0.5087210000000  0.4471670000000 1.0
C      1  0.4627390000000  0.5328610000000  0.5248780000000 1.0
C      1  0.5716770000000  0.5313290000000  0.4303370000000 1.0
C      1  0.5507950000000  0.4392380000000  0.5494970000000 1.0
C      1  0.4851770000000  0.5903660000000  0.5519180000000 1.0
C      1  0.4658690000000  0.4708010000000  0.4130740000000 1.0
C      1  0.5850990000000  0.5411310000000  0.4991160000000 1.0
END
