TITL C-951335-1172-67 -1.56555025233305e-06 125000 -480.959044419736 0 0 79 (C1) n - 1
REM
REM in /home/bkarasulu/work/CARBON/AIRSS/Generating-Clusters/EDIP-Nigel-Params/with-SteepDescent/Only-C1/SD-CG/HFTN-CG
REM
REM
REM
REM
REM
REM ./C.cell (11c1c37f851c82e70ff6c80c92926a4b)
REM
REM compiler GCC version 9.2.1 20190827 (Red Hat 9.2.1-1)
REM options -cpp -mtune=generic -march=x86-64 -g -O0 -fpre-include=/usr/include/finclude/math-vector-fortran.h
REM seed 128581917 955806276 -241332966 109060797 907020735 -541700514 243027365 962121075 -798822805 -2030099683 -6759875 573059081 -1876123604 -1229139266 -1709937310 553631235 -388947363 127196055 1322540978 1815053665 384769599 1582728377 -1194171491 1038550404 -1431894339 -1643223535 -1905171969 -1846149701 -220160010 26517771 192544329 1308710086 277554116
REM
CELL 1.54180   50.00000   50.00000   50.00000   90.00000   90.00000   90.00000
LATT -1
SFAC C  
C      1  0.5497200000000  0.5511310000000  0.4308450000000 1.0
C      1  0.4376980000000  0.5219620000000  0.4916860000000 1.0
C      1  0.5371590000000  0.5240280000000  0.5386290000000 1.0
C      1  0.5162610000000  0.5652930000000  0.5167390000000 1.0
C      1  0.4911930000000  0.5398710000000  0.5541910000000 1.0
C      1  0.4825000000000  0.4278060000000  0.5111060000000 1.0
C      1  0.4939400000000  0.4397590000000  0.4627150000000 1.0
C      1  0.4888310000000  0.4884950000000  0.5889830000000 1.0
C      1  0.5325840000000  0.5548140000000  0.4734580000000 1.0
C      1  0.5121140000000  0.4793950000000  0.4030850000000 1.0
C      1  0.5196930000000  0.5301200000000  0.5627510000000 1.0
C      1  0.4874000000000  0.4537850000000  0.5537460000000 1.0
C      1  0.4496290000000  0.5635190000000  0.4829590000000 1.0
C      1  0.5267620000000  0.4287770000000  0.5386920000000 1.0
C      1  0.4179710000000  0.4778660000000  0.4946060000000 1.0
C      1  0.5265390000000  0.4803850000000  0.5674860000000 1.0
C      1  0.5712160000000  0.4961530000000  0.5272710000000 1.0
C      1  0.4955900000000  0.5805350000000  0.4719520000000 1.0
C      1  0.5179350000000  0.4798720000000  0.4611670000000 1.0
C      1  0.5659840000000  0.5366220000000  0.4497870000000 1.0
C      1  0.4640790000000  0.5241450000000  0.5620650000000 1.0
C      1  0.5339500000000  0.5432920000000  0.5166310000000 1.0
C      1  0.5337620000000  0.4882710000000  0.4167910000000 1.0
C      1  0.4420490000000  0.5261340000000  0.5419930000000 1.0
C      1  0.5196070000000  0.5757930000000  0.4888520000000 1.0
C      1  0.5005890000000  0.5718950000000  0.4426030000000 1.0
C      1  0.4563640000000  0.4400000000000  0.4847530000000 1.0
C      1  0.4676120000000  0.4843280000000  0.4966140000000 1.0
C      1  0.5429180000000  0.4376200000000  0.4685330000000 1.0
C      1  0.4970010000000  0.4296190000000  0.5380530000000 1.0
C      1  0.5250460000000  0.4987110000000  0.5274550000000 1.0
C      1  0.4600490000000  0.4549350000000  0.4596660000000 1.0
C      1  0.5432370000000  0.4265250000000  0.5144950000000 1.0
C      1  0.5553200000000  0.5124560000000  0.4854390000000 1.0
C      1  0.4499520000000  0.4828140000000  0.4562010000000 1.0
C      1  0.4943460000000  0.5046440000000  0.5376450000000 1.0
C      1  0.5244680000000  0.5520170000000  0.4453990000000 1.0
C      1  0.4494220000000  0.4754300000000  0.5620240000000 1.0
C      1  0.4906520000000  0.4899950000000  0.4719100000000 1.0
C      1  0.4701230000000  0.5784500000000  0.5256840000000 1.0
C      1  0.4198850000000  0.5085820000000  0.5429200000000 1.0
C      1  0.4596970000000  0.4494340000000  0.5618360000000 1.0
C      1  0.5618960000000  0.4491240000000  0.5102730000000 1.0
C      1  0.5584970000000  0.4704960000000  0.5306860000000 1.0
C      1  0.5207690000000  0.5066670000000  0.5800110000000 1.0
C      1  0.4517740000000  0.5622640000000  0.5120100000000 1.0
C      1  0.4324210000000  0.5429290000000  0.4737060000000 1.0
C      1  0.4538460000000  0.5323190000000  0.5152390000000 1.0
C      1  0.5480430000000  0.4632020000000  0.5572460000000 1.0
C      1  0.5648080000000  0.5174720000000  0.5444590000000 1.0
C      1  0.5628850000000  0.4535550000000  0.4820470000000 1.0
C      1  0.5036210000000  0.4654140000000  0.5774850000000 1.0
C      1  0.5064450000000  0.4732090000000  0.5029920000000 1.0
C      1  0.5249230000000  0.5045150000000  0.4968630000000 1.0
C      1  0.4913710000000  0.5613470000000  0.5318150000000 1.0
C      1  0.5773770000000  0.5026740000000  0.5011230000000 1.0
C      1  0.5046060000000  0.5285860000000  0.4951800000000 1.0
C      1  0.5316420000000  0.4996830000000  0.4432300000000 1.0
C      1  0.4776770000000  0.5561320000000  0.4764710000000 1.0
C      1  0.5012930000000  0.4317390000000  0.4892460000000 1.0
C      1  0.4964980000000  0.5222030000000  0.4170060000000 1.0
C      1  0.5285430000000  0.4222610000000  0.4894410000000 1.0
C      1  0.5583280000000  0.5070700000000  0.4546970000000 1.0
C      1  0.5196260000000  0.4516910000000  0.4539410000000 1.0
C      1  0.5122470000000  0.5242490000000  0.4428010000000 1.0
C      1  0.5414140000000  0.4361030000000  0.5614850000000 1.0
C      1  0.4894030000000  0.4751910000000  0.5309690000000 1.0
C      1  0.4828260000000  0.5212080000000  0.5150060000000 1.0
C      1  0.4405440000000  0.4932630000000  0.4837330000000 1.0
C      1  0.4646140000000  0.5008670000000  0.4382850000000 1.0
C      1  0.4672360000000  0.4964100000000  0.5715430000000 1.0
C      1  0.4312680000000  0.4830440000000  0.5409600000000 1.0
C      1  0.5584690000000  0.5433420000000  0.4796690000000 1.0
C      1  0.4745710000000  0.5576570000000  0.4384460000000 1.0
C      1  0.4571350000000  0.4571490000000  0.5084980000000 1.0
C      1  0.4920220000000  0.5212990000000  0.4665560000000 1.0
C      1  0.4705650000000  0.5302590000000  0.4285760000000 1.0
C      1  0.4901930000000  0.4942380000000  0.4118100000000 1.0
C      1  0.4297520000000  0.4658890000000  0.5170790000000 1.0
END
