TITL C-950530-3293-662 1.33533539195821e-07 125000 -901.703998851187 0 0 146 (C1) n - 1
REM
REM in /home/bkarasulu/work/CARBON/AIRSS/Generating-Clusters/EDIP-Nigel-Params/with-SteepDescent/Only-C1/SD-CG/HFTN-CG
REM
REM
REM
REM
REM
REM ./C.cell (11c1c37f851c82e70ff6c80c92926a4b)
REM
REM compiler GCC version 9.2.1 20190827 (Red Hat 9.2.1-1)
REM options -cpp -mtune=generic -march=x86-64 -g -O0 -fpre-include=/usr/include/finclude/math-vector-fortran.h
REM seed 1330960047 808790580 -372508645 -998522844 -24005518 719206027 2038080650 917734545 53187101 -269978018 -251439929 -1708912332 -1571565792 1930955306 -1708884109 -339288197 1537881044 -740927156 626492573 918949564 -489665242 74747229 189656927 1495292928 954180648 222272870 -97955325 -2064461059 -1188759751 -199140360 1675102265 -1694082106 1461366290
REM
CELL 1.54180   50.00000   50.00000   50.00000   90.00000   90.00000   90.00000
LATT -1
SFAC C  
C      1  0.5474790000000  0.5730170000000  0.5535740000000 1.0
C      1  0.4833090000000  0.5217770000000  0.6087620000000 1.0
C      1  0.5863200000000  0.4702330000000  0.5142420000000 1.0
C      1  0.3902790000000  0.5083220000000  0.4791130000000 1.0
C      1  0.4582840000000  0.4833680000000  0.4727420000000 1.0
C      1  0.5866910000000  0.4966640000000  0.5290040000000 1.0
C      1  0.4281960000000  0.4820360000000  0.4827350000000 1.0
C      1  0.5842990000000  0.4675610000000  0.4843190000000 1.0
C      1  0.4849700000000  0.5295530000000  0.4414840000000 1.0
C      1  0.4876350000000  0.4582080000000  0.4506390000000 1.0
C      1  0.4688490000000  0.5643260000000  0.4153210000000 1.0
C      1  0.4311600000000  0.5009400000000  0.5712280000000 1.0
C      1  0.5088660000000  0.5180920000000  0.5957100000000 1.0
C      1  0.4868110000000  0.4960420000000  0.5551690000000 1.0
C      1  0.5809110000000  0.5423600000000  0.4429450000000 1.0
C      1  0.5758890000000  0.5269680000000  0.4685660000000 1.0
C      1  0.4221090000000  0.4507720000000  0.5527300000000 1.0
C      1  0.4848920000000  0.5466330000000  0.5691850000000 1.0
C      1  0.4346540000000  0.5462320000000  0.5283460000000 1.0
C      1  0.5063630000000  0.5936610000000  0.5166130000000 1.0
C      1  0.4997930000000  0.4811940000000  0.3951540000000 1.0
C      1  0.4709830000000  0.4886150000000  0.5010310000000 1.0
C      1  0.5414050000000  0.4817370000000  0.4190030000000 1.0
C      1  0.5680270000000  0.4967110000000  0.4300380000000 1.0
C      1  0.4305090000000  0.5120330000000  0.4415130000000 1.0
C      1  0.4832260000000  0.4543140000000  0.5441060000000 1.0
C      1  0.5249840000000  0.5245490000000  0.3988020000000 1.0
C      1  0.4460640000000  0.5262620000000  0.5736050000000 1.0
C      1  0.5271930000000  0.5420600000000  0.5974520000000 1.0
C      1  0.4518900000000  0.4172430000000  0.4865240000000 1.0
C      1  0.5232390000000  0.4158540000000  0.5317080000000 1.0
C      1  0.5046270000000  0.4538180000000  0.4033390000000 1.0
C      1  0.4149820000000  0.5473910000000  0.4669030000000 1.0
C      1  0.4690530000000  0.4374880000000  0.5651090000000 1.0
C      1  0.5127480000000  0.5267700000000  0.5168580000000 1.0
C      1  0.4597770000000  0.4679720000000  0.5257200000000 1.0
C      1  0.5721390000000  0.4414230000000  0.4786410000000 1.0
C      1  0.5194010000000  0.5728120000000  0.5588530000000 1.0
C      1  0.5674240000000  0.5128490000000  0.5996760000000 1.0
C      1  0.4396230000000  0.5342730000000  0.4619140000000 1.0
C      1  0.5485320000000  0.4921900000000  0.5074100000000 1.0
C      1  0.5284650000000  0.3952650000000  0.4747900000000 1.0
C      1  0.4754140000000  0.4777720000000  0.5934390000000 1.0
C      1  0.5134350000000  0.4774060000000  0.4841230000000 1.0
C      1  0.5619050000000  0.4734620000000  0.5671760000000 1.0
C      1  0.4572410000000  0.4594830000000  0.5829620000000 1.0
C      1  0.5600330000000  0.4021170000000  0.5037440000000 1.0
C      1  0.4275650000000  0.4958950000000  0.5137210000000 1.0
C      1  0.4382380000000  0.4347390000000  0.4696490000000 1.0
C      1  0.4460220000000  0.4383150000000  0.4418160000000 1.0
C      1  0.5336690000000  0.5872950000000  0.5081180000000 1.0
C      1  0.4935370000000  0.4192790000000  0.5710140000000 1.0
C      1  0.4600140000000  0.5906970000000  0.5032500000000 1.0
C      1  0.4348570000000  0.4614090000000  0.4304180000000 1.0
C      1  0.4347180000000  0.4717110000000  0.5697120000000 1.0
C      1  0.4669070000000  0.4920250000000  0.4110600000000 1.0
C      1  0.5812040000000  0.5716810000000  0.5211190000000 1.0
C      1  0.4007560000000  0.4860470000000  0.5224850000000 1.0
C      1  0.4614720000000  0.5341680000000  0.5966160000000 1.0
C      1  0.4559690000000  0.4979790000000  0.5415080000000 1.0
C      1  0.5726100000000  0.4466170000000  0.5256450000000 1.0
C      1  0.4157290000000  0.4413900000000  0.5098640000000 1.0
C      1  0.4584020000000  0.5188760000000  0.4022610000000 1.0
C      1  0.5180350000000  0.4105310000000  0.4518150000000 1.0
C      1  0.4826960000000  0.4372630000000  0.4088720000000 1.0
C      1  0.4971080000000  0.4062790000000  0.5446810000000 1.0
C      1  0.4998210000000  0.4865410000000  0.5274230000000 1.0
C      1  0.5529020000000  0.5324220000000  0.5833560000000 1.0
C      1  0.5091580000000  0.4633040000000  0.5616890000000 1.0
C      1  0.4434700000000  0.4405060000000  0.5217550000000 1.0
C      1  0.5180020000000  0.5825380000000  0.4369410000000 1.0
C      1  0.4396420000000  0.5493070000000  0.5568870000000 1.0
C      1  0.5012420000000  0.5371380000000  0.3936980000000 1.0
C      1  0.5016790000000  0.5481680000000  0.4568850000000 1.0
C      1  0.4340740000000  0.5300020000000  0.4152600000000 1.0
C      1  0.5443990000000  0.5132980000000  0.5613490000000 1.0
C      1  0.5024350000000  0.5209890000000  0.5650480000000 1.0
C      1  0.5471980000000  0.5338630000000  0.4801650000000 1.0
C      1  0.5235100000000  0.5245150000000  0.4631250000000 1.0
C      1  0.5044830000000  0.5059460000000  0.4784670000000 1.0
C      1  0.5089680000000  0.5618260000000  0.5830640000000 1.0
C      1  0.4040320000000  0.5327320000000  0.4886850000000 1.0
C      1  0.4581020000000  0.5435710000000  0.4850480000000 1.0
C      1  0.4487900000000  0.4861340000000  0.4350840000000 1.0
C      1  0.5613320000000  0.5700810000000  0.4742710000000 1.0
C      1  0.4832610000000  0.5036190000000  0.4567160000000 1.0
C      1  0.5594270000000  0.4841780000000  0.4796350000000 1.0
C      1  0.5337560000000  0.3947590000000  0.5131880000000 1.0
C      1  0.5399640000000  0.4268630000000  0.5549820000000 1.0
C      1  0.4900650000000  0.4111240000000  0.4468350000000 1.0
C      1  0.4748930000000  0.4168110000000  0.5022980000000 1.0
C      1  0.4773680000000  0.5548790000000  0.5360240000000 1.0
C      1  0.5185610000000  0.4355260000000  0.5729220000000 1.0
C      1  0.5654240000000  0.5674080000000  0.4449290000000 1.0
C      1  0.4522220000000  0.5745700000000  0.5627740000000 1.0
C      1  0.4487560000000  0.4224090000000  0.5469880000000 1.0
C      1  0.5307900000000  0.5340500000000  0.5417530000000 1.0
C      1  0.5420940000000  0.5911650000000  0.4809600000000 1.0
C      1  0.5772250000000  0.4984280000000  0.4597920000000 1.0
C      1  0.5252490000000  0.4956580000000  0.3979310000000 1.0
C      1  0.5589160000000  0.4317760000000  0.5034820000000 1.0
C      1  0.4022240000000  0.4576680000000  0.5307770000000 1.0
C      1  0.4795500000000  0.5368470000000  0.4123280000000 1.0
C      1  0.5867430000000  0.5249310000000  0.5192240000000 1.0
C      1  0.5218190000000  0.4916070000000  0.6003730000000 1.0
C      1  0.5933340000000  0.5354820000000  0.4920550000000 1.0
C      1  0.5568960000000  0.4501670000000  0.5494630000000 1.0
C      1  0.4713890000000  0.4071040000000  0.5299200000000 1.0
C      1  0.5258880000000  0.4908110000000  0.4430350000000 1.0
C      1  0.4407280000000  0.5581210000000  0.4186230000000 1.0
C      1  0.4292930000000  0.5714230000000  0.5169620000000 1.0
C      1  0.5656300000000  0.5518780000000  0.5622240000000 1.0
C      1  0.4841110000000  0.5278130000000  0.5252790000000 1.0
C      1  0.4864460000000  0.5553270000000  0.4821630000000 1.0
C      1  0.4839640000000  0.5745160000000  0.5085070000000 1.0
C      1  0.4427760000000  0.5706910000000  0.4920800000000 1.0
C      1  0.4105940000000  0.4954180000000  0.4615950000000 1.0
C      1  0.5334050000000  0.4340990000000  0.4421020000000 1.0
C      1  0.5570460000000  0.3920230000000  0.4767990000000 1.0
C      1  0.5431770000000  0.5377790000000  0.4163540000000 1.0
C      1  0.5856510000000  0.5647960000000  0.4923970000000 1.0
C      1  0.5236770000000  0.4739750000000  0.5125500000000 1.0
C      1  0.4978600000000  0.4340430000000  0.4947150000000 1.0
C      1  0.5548600000000  0.5836990000000  0.5279070000000 1.0
C      1  0.4625580000000  0.5189610000000  0.5072750000000 1.0
C      1  0.4950760000000  0.4838380000000  0.4372090000000 1.0
C      1  0.5297710000000  0.4520490000000  0.4186520000000 1.0
C      1  0.5687790000000  0.5253270000000  0.4217510000000 1.0
C      1  0.3828510000000  0.4921270000000  0.5013780000000 1.0
C      1  0.5242890000000  0.5970610000000  0.4601860000000 1.0
C      1  0.4759200000000  0.4347150000000  0.4366930000000 1.0
C      1  0.5850760000000  0.5476260000000  0.5387210000000 1.0
C      1  0.4197540000000  0.5252770000000  0.5133680000000 1.0
C      1  0.4892230000000  0.5764080000000  0.4334710000000 1.0
C      1  0.5405280000000  0.5641250000000  0.4292020000000 1.0
C      1  0.5580500000000  0.4409310000000  0.4539450000000 1.0
C      1  0.4930230000000  0.4574420000000  0.4787410000000 1.0
C      1  0.5512380000000  0.4889630000000  0.5923330000000 1.0
C      1  0.5024990000000  0.4731610000000  0.5892330000000 1.0
C      1  0.4192500000000  0.4528330000000  0.4828990000000 1.0
C      1  0.5774550000000  0.4948930000000  0.5558980000000 1.0
C      1  0.5215250000000  0.4400410000000  0.5120520000000 1.0
C      1  0.5363360000000  0.4716610000000  0.4646220000000 1.0
C      1  0.5011330000000  0.5911520000000  0.5459340000000 1.0
C      1  0.5443330000000  0.5218630000000  0.5090400000000 1.0
C      1  0.4734760000000  0.5911970000000  0.5549110000000 1.0
END
