TITL C-950535-5962-520 -9.95253481085953e-07 125000 -942.330874786923 0 0 152 (C1) n - 1
REM
REM in /home/bkarasulu/work/CARBON/AIRSS/Generating-Clusters/EDIP-Nigel-Params/with-SteepDescent/Only-C1/SD-CG/HFTN-CG
REM
REM
REM
REM
REM
REM ./C.cell (11c1c37f851c82e70ff6c80c92926a4b)
REM
REM compiler GCC version 9.2.1 20190827 (Red Hat 9.2.1-1)
REM options -cpp -mtune=generic -march=x86-64 -g -O0 -fpre-include=/usr/include/finclude/math-vector-fortran.h
REM seed -424849368 1961051144 1600202431 -2039499594 957561835 -1454405800 -721626336 -315372975 1656750970 -1900391629 -809488402 -851364072 1896412101 -1898736016 1748212602 -948598885 -1625843757 -1480374325 -1152642289 1800640954 -1347280580 -864603958 -605413955 -1989517607 -1466113542 13026657 -437219065 -1148174705 -378390501 -205409403 -859644314 2140618319 16772210
REM
CELL 1.54180   50.00000   50.00000   50.00000   90.00000   90.00000   90.00000
LATT -1
SFAC C  
C      1  0.5330130000000  0.4498540000000  0.5750170000000 1.0
C      1  0.5445640000000  0.4994470000000  0.4621960000000 1.0
C      1  0.5662850000000  0.5087670000000  0.4996310000000 1.0
C      1  0.5728860000000  0.4606030000000  0.5471400000000 1.0
C      1  0.4369130000000  0.4209700000000  0.5384160000000 1.0
C      1  0.6003390000000  0.4902150000000  0.5209380000000 1.0
C      1  0.5038360000000  0.5098220000000  0.5168170000000 1.0
C      1  0.5103940000000  0.5774620000000  0.5862550000000 1.0
C      1  0.5906980000000  0.5425810000000  0.4759800000000 1.0
C      1  0.4063480000000  0.4479190000000  0.5204210000000 1.0
C      1  0.4175360000000  0.4396920000000  0.4696420000000 1.0
C      1  0.4818950000000  0.4069800000000  0.5175830000000 1.0
C      1  0.6046190000000  0.4718930000000  0.4683640000000 1.0
C      1  0.4627700000000  0.4717850000000  0.5091980000000 1.0
C      1  0.4983270000000  0.4720090000000  0.4491380000000 1.0
C      1  0.4070240000000  0.5305440000000  0.5122690000000 1.0
C      1  0.4845690000000  0.5171220000000  0.4114640000000 1.0
C      1  0.5036980000000  0.5082380000000  0.3923820000000 1.0
C      1  0.4821150000000  0.5535830000000  0.5022900000000 1.0
C      1  0.5289380000000  0.5641820000000  0.5685680000000 1.0
C      1  0.4805420000000  0.4503150000000  0.5463360000000 1.0
C      1  0.5488720000000  0.4133390000000  0.5084180000000 1.0
C      1  0.5668970000000  0.4283490000000  0.4918830000000 1.0
C      1  0.5478530000000  0.5464130000000  0.5841850000000 1.0
C      1  0.4368150000000  0.5021320000000  0.5274380000000 1.0
C      1  0.4823220000000  0.5148140000000  0.5406190000000 1.0
C      1  0.5324890000000  0.4784380000000  0.5835300000000 1.0
C      1  0.4868490000000  0.4937610000000  0.5993200000000 1.0
C      1  0.4635440000000  0.5791870000000  0.5002410000000 1.0
C      1  0.5953610000000  0.5443230000000  0.5041120000000 1.0
C      1  0.3948370000000  0.5191130000000  0.5384770000000 1.0
C      1  0.3985590000000  0.5126300000000  0.4868490000000 1.0
C      1  0.4907320000000  0.4300680000000  0.4256150000000 1.0
C      1  0.4735050000000  0.4733410000000  0.5831910000000 1.0
C      1  0.4243930000000  0.5566020000000  0.5159510000000 1.0
C      1  0.5565240000000  0.4954680000000  0.5795140000000 1.0
C      1  0.5176770000000  0.5955530000000  0.5035160000000 1.0
C      1  0.5080720000000  0.3958530000000  0.5196380000000 1.0
C      1  0.4102680000000  0.5016380000000  0.4379960000000 1.0
C      1  0.4802670000000  0.4185360000000  0.5458620000000 1.0
C      1  0.4933310000000  0.5801190000000  0.4443190000000 1.0
C      1  0.5157600000000  0.4898360000000  0.6050430000000 1.0
C      1  0.5718920000000  0.5323760000000  0.5172530000000 1.0
C      1  0.4822790000000  0.5212860000000  0.5912020000000 1.0
C      1  0.5435220000000  0.4201720000000  0.5368450000000 1.0
C      1  0.4849930000000  0.4962910000000  0.4658070000000 1.0
C      1  0.5571860000000  0.5240220000000  0.5661950000000 1.0
C      1  0.5583370000000  0.5393090000000  0.4184050000000 1.0
C      1  0.6059200000000  0.4458990000000  0.4810420000000 1.0
C      1  0.4997840000000  0.4816230000000  0.3847470000000 1.0
C      1  0.4394710000000  0.5123460000000  0.5000880000000 1.0
C      1  0.4641100000000  0.4236090000000  0.4658650000000 1.0
C      1  0.5414690000000  0.4739050000000  0.4782000000000 1.0
C      1  0.5841130000000  0.4754330000000  0.4480090000000 1.0
C      1  0.4057200000000  0.5283590000000  0.5649650000000 1.0
C      1  0.5285500000000  0.5172310000000  0.4059990000000 1.0
C      1  0.4165230000000  0.5430550000000  0.4529850000000 1.0
C      1  0.5500870000000  0.4953350000000  0.4077110000000 1.0
C      1  0.5774780000000  0.4848610000000  0.5623210000000 1.0
C      1  0.5508680000000  0.5551060000000  0.5131570000000 1.0
C      1  0.4325760000000  0.5361130000000  0.5535580000000 1.0
C      1  0.4501240000000  0.4663360000000  0.4414240000000 1.0
C      1  0.4844250000000  0.4459540000000  0.5843310000000 1.0
C      1  0.5116020000000  0.4300320000000  0.4738340000000 1.0
C      1  0.5072770000000  0.4532840000000  0.5110510000000 1.0
C      1  0.4624280000000  0.5881200000000  0.5287630000000 1.0
C      1  0.4722860000000  0.5999820000000  0.4819690000000 1.0
C      1  0.4561020000000  0.4868100000000  0.4624920000000 1.0
C      1  0.4029370000000  0.4842540000000  0.4913910000000 1.0
C      1  0.4649780000000  0.5279670000000  0.4945960000000 1.0
C      1  0.5198570000000  0.5877460000000  0.4534960000000 1.0
C      1  0.4406190000000  0.5566400000000  0.4639660000000 1.0
C      1  0.5796450000000  0.4678130000000  0.5193750000000 1.0
C      1  0.4843690000000  0.4443430000000  0.4738780000000 1.0
C      1  0.4135930000000  0.5259100000000  0.4203350000000 1.0
C      1  0.4174420000000  0.4853580000000  0.5676670000000 1.0
C      1  0.5267590000000  0.5135440000000  0.6153460000000 1.0
C      1  0.4790460000000  0.4593600000000  0.4283290000000 1.0
C      1  0.5943920000000  0.5154450000000  0.4659950000000 1.0
C      1  0.5726000000000  0.5021940000000  0.4486160000000 1.0
C      1  0.5533420000000  0.4829690000000  0.5082960000000 1.0
C      1  0.4943400000000  0.5272600000000  0.5640840000000 1.0
C      1  0.5318350000000  0.4484520000000  0.4049110000000 1.0
C      1  0.4793370000000  0.4481410000000  0.5020350000000 1.0
C      1  0.5496240000000  0.4668570000000  0.4161990000000 1.0
C      1  0.3976070000000  0.4749000000000  0.5177790000000 1.0
C      1  0.5152310000000  0.5955270000000  0.5318780000000 1.0
C      1  0.5659870000000  0.5546970000000  0.4658200000000 1.0
C      1  0.4550310000000  0.4091610000000  0.5565360000000 1.0
C      1  0.5925980000000  0.5327320000000  0.5554930000000 1.0
C      1  0.5286700000000  0.4927700000000  0.5300350000000 1.0
C      1  0.5012460000000  0.5356730000000  0.4274970000000 1.0
C      1  0.5805620000000  0.4212720000000  0.4667620000000 1.0
C      1  0.4540450000000  0.5102290000000  0.5498240000000 1.0
C      1  0.5798130000000  0.5577930000000  0.5505350000000 1.0
C      1  0.5088550000000  0.4327270000000  0.5737350000000 1.0
C      1  0.5163040000000  0.5429880000000  0.5497070000000 1.0
C      1  0.5137650000000  0.4732780000000  0.4907650000000 1.0
C      1  0.4897660000000  0.5625970000000  0.4210960000000 1.0
C      1  0.5732250000000  0.4298290000000  0.4413530000000 1.0
C      1  0.4960670000000  0.5554920000000  0.5297890000000 1.0
C      1  0.4490450000000  0.4821250000000  0.5650710000000 1.0
C      1  0.5058350000000  0.5502210000000  0.4831970000000 1.0
C      1  0.5598390000000  0.5603770000000  0.4378220000000 1.0
C      1  0.4148680000000  0.5163930000000  0.4633760000000 1.0
C      1  0.5237500000000  0.5774830000000  0.4814940000000 1.0
C      1  0.5500980000000  0.4439730000000  0.5523780000000 1.0
C      1  0.4609830000000  0.5314270000000  0.4032090000000 1.0
C      1  0.5880970000000  0.4433420000000  0.5042450000000 1.0
C      1  0.4408900000000  0.4834500000000  0.4878140000000 1.0
C      1  0.5911480000000  0.5046830000000  0.5455040000000 1.0
C      1  0.4080530000000  0.5068390000000  0.5831350000000 1.0
C      1  0.5061670000000  0.4664660000000  0.5364690000000 1.0
C      1  0.5715880000000  0.4559000000000  0.4316950000000 1.0
C      1  0.4367580000000  0.5158010000000  0.4057990000000 1.0
C      1  0.5612980000000  0.5729690000000  0.5346940000000 1.0
C      1  0.5250880000000  0.4010580000000  0.4961360000000 1.0
C      1  0.6061890000000  0.4961830000000  0.4848510000000 1.0
C      1  0.5396440000000  0.5232970000000  0.5401540000000 1.0
C      1  0.5520770000000  0.5694850000000  0.4864910000000 1.0
C      1  0.4198040000000  0.4364180000000  0.4972890000000 1.0
C      1  0.4933190000000  0.5304720000000  0.4582030000000 1.0
C      1  0.4368080000000  0.5683630000000  0.4920530000000 1.0
C      1  0.4306000000000  0.4835490000000  0.4249020000000 1.0
C      1  0.4903750000000  0.4912780000000  0.4959610000000 1.0
C      1  0.4406300000000  0.4398370000000  0.4539950000000 1.0
C      1  0.5221170000000  0.5317570000000  0.5009290000000 1.0
C      1  0.5448410000000  0.5201440000000  0.4831530000000 1.0
C      1  0.4439900000000  0.5592710000000  0.5675610000000 1.0
C      1  0.5388190000000  0.5851780000000  0.5488950000000 1.0
C      1  0.4607060000000  0.4085290000000  0.4954250000000 1.0
C      1  0.4520990000000  0.4626050000000  0.5403150000000 1.0
C      1  0.5696710000000  0.5128510000000  0.4209420000000 1.0
C      1  0.4870750000000  0.5788890000000  0.5715600000000 1.0
C      1  0.4629940000000  0.5582980000000  0.4121790000000 1.0
C      1  0.4830600000000  0.4097020000000  0.4464240000000 1.0
C      1  0.4634760000000  0.5352570000000  0.4657910000000 1.0
C      1  0.4710190000000  0.5557600000000  0.5774570000000 1.0
C      1  0.4894440000000  0.5818100000000  0.5416150000000 1.0
C      1  0.4471050000000  0.5796170000000  0.4475170000000 1.0
C      1  0.4820490000000  0.4710180000000  0.4023720000000 1.0
C      1  0.4199310000000  0.4423940000000  0.5450910000000 1.0
C      1  0.4702770000000  0.5931010000000  0.4550640000000 1.0
C      1  0.4103600000000  0.4930960000000  0.5381370000000 1.0
C      1  0.4369300000000  0.4172990000000  0.5095120000000 1.0
C      1  0.5203870000000  0.4353620000000  0.4271460000000 1.0
C      1  0.4381900000000  0.5726410000000  0.5395680000000 1.0
C      1  0.5076510000000  0.4030220000000  0.4615980000000 1.0
C      1  0.5186850000000  0.4075710000000  0.5462410000000 1.0
C      1  0.5384660000000  0.5366390000000  0.6082860000000 1.0
C      1  0.5227290000000  0.4508010000000  0.4539330000000 1.0
C      1  0.5401340000000  0.5797330000000  0.4362460000000 1.0
END
