TITL C-950522-5749-366 0.885132681309033 125000 -94.4930335073948 0 0 17 (C1) n - 1
REM
REM in /home/bkarasulu/work/CARBON/AIRSS/Generating-Clusters/EDIP-Nigel-Params/with-SteepDescent/Only-C1/SD-CG/HFTN-CG
REM
REM
REM
REM
REM
REM ./C.cell (11c1c37f851c82e70ff6c80c92926a4b)
REM
REM compiler GCC version 9.2.1 20190827 (Red Hat 9.2.1-1)
REM options -cpp -mtune=generic -march=x86-64 -g -O0 -fpre-include=/usr/include/finclude/math-vector-fortran.h
REM seed 1196818046 1015704678 -1843401760 439770250 -1681516435 2146526502 -1141174933 880580978 -1198137076 289947287 1454311753 -686016524 762279937 567287924 -130838358 -1798208069 -1816459508 477619764 -2138114325 -745085109 950618284 -951050737 -711720261 575416288 -161456929 -856185353 -106538225 475243410 -1701657193 -391316675 -369845209 -1212244967 -226487265
REM
CELL 1.54180   50.00000   50.00000   50.00000   90.00000   90.00000   90.00000
LATT -1
SFAC C  
C      1  0.5273580000000  0.4665130000000  0.5348840000000 1.0
C      1  0.5246440000000  0.4651460000000  0.4582000000000 1.0
C      1  0.5472200000000  0.4467870000000  0.5286160000000 1.0
C      1  0.5416860000000  0.4224920000000  0.5162350000000 1.0
C      1  0.5103720000000  0.5117140000000  0.5193220000000 1.0
C      1  0.5311410000000  0.4857640000000  0.5559800000000 1.0
C      1  0.4429130000000  0.5781420000000  0.4967810000000 1.0
C      1  0.4927670000000  0.4951520000000  0.4787720000000 1.0
C      1  0.4989260000000  0.4718240000000  0.4659260000000 1.0
C      1  0.4758200000000  0.5357340000000  0.4969970000000 1.0
C      1  0.4179030000000  0.5790960000000  0.4834650000000 1.0
C      1  0.4590290000000  0.5560640000000  0.4946860000000 1.0
C      1  0.4929210000000  0.5144150000000  0.4982920000000 1.0
C      1  0.5232380000000  0.4441000000000  0.4761000000000 1.0
C      1  0.5309890000000  0.4960300000000  0.5290920000000 1.0
C      1  0.5451370000000  0.4364340000000  0.4924170000000 1.0
C      1  0.4379360000000  0.5945950000000  0.4742360000000 1.0
END
