TITL C-951340-9809-76 3.03782480065617e-06 125000 -723.401997834766 0 0 116 (C1) n - 1
REM
REM in /home/bkarasulu/work/CARBON/AIRSS/Generating-Clusters/EDIP-Nigel-Params/with-SteepDescent/Only-C1/SD-CG/HFTN-CG
REM
REM
REM
REM
REM
REM ./C.cell (11c1c37f851c82e70ff6c80c92926a4b)
REM
REM compiler GCC version 9.2.1 20190827 (Red Hat 9.2.1-1)
REM options -cpp -mtune=generic -march=x86-64 -g -O0 -fpre-include=/usr/include/finclude/math-vector-fortran.h
REM seed 513555817 1777555100 -565001166 1860647792 -619509018 -1791410920 481624150 -516403873 -926153653 -680037483 1193963733 -1849997507 1802673078 1464292498 -538908429 156833122 -923181040 2055668071 -76385788 -1441451406 -1569205011 -271895256 -1399513909 -1969260370 1390125544 1348856646 1891282187 340671262 -1582544857 -1817210334 1757228816 -550964487 -1800484110
REM
CELL 1.54180   50.00000   50.00000   50.00000   90.00000   90.00000   90.00000
LATT -1
SFAC C  
C      1  0.5612690000000  0.5446450000000  0.5385900000000 1.0
C      1  0.4125270000000  0.5266770000000  0.5225680000000 1.0
C      1  0.4878450000000  0.4107630000000  0.4867370000000 1.0
C      1  0.4704690000000  0.4123180000000  0.5100520000000 1.0
C      1  0.5347570000000  0.5817990000000  0.4629920000000 1.0
C      1  0.4664130000000  0.5833740000000  0.4893930000000 1.0
C      1  0.5076460000000  0.4415020000000  0.5637280000000 1.0
C      1  0.4735670000000  0.5266850000000  0.5484650000000 1.0
C      1  0.4339100000000  0.4423350000000  0.4901220000000 1.0
C      1  0.5350130000000  0.5661830000000  0.4369600000000 1.0
C      1  0.4696830000000  0.4662840000000  0.5822710000000 1.0
C      1  0.4628470000000  0.5766920000000  0.5467300000000 1.0
C      1  0.5110410000000  0.4607140000000  0.4297060000000 1.0
C      1  0.4832720000000  0.4107220000000  0.5364980000000 1.0
C      1  0.4937970000000  0.4795360000000  0.4701910000000 1.0
C      1  0.4569280000000  0.4620990000000  0.4933130000000 1.0
C      1  0.4431350000000  0.5043900000000  0.4295120000000 1.0
C      1  0.5220880000000  0.4710790000000  0.5111110000000 1.0
C      1  0.4491270000000  0.4372990000000  0.5307710000000 1.0
C      1  0.5546000000000  0.4463750000000  0.4441760000000 1.0
C      1  0.5366850000000  0.4271220000000  0.4560150000000 1.0
C      1  0.4932600000000  0.5009380000000  0.5474890000000 1.0
C      1  0.4614480000000  0.4221130000000  0.5543150000000 1.0
C      1  0.5033510000000  0.4485880000000  0.5145510000000 1.0
C      1  0.4454380000000  0.4582360000000  0.4397380000000 1.0
C      1  0.4520640000000  0.5604800000000  0.5020130000000 1.0
C      1  0.4153610000000  0.4571780000000  0.5092210000000 1.0
C      1  0.4223710000000  0.4877450000000  0.5055120000000 1.0
C      1  0.4525150000000  0.4357010000000  0.4579550000000 1.0
C      1  0.4444630000000  0.4899350000000  0.4821090000000 1.0
C      1  0.5197750000000  0.5343690000000  0.5303810000000 1.0
C      1  0.4464540000000  0.4827930000000  0.5742810000000 1.0
C      1  0.4230710000000  0.4712200000000  0.5596040000000 1.0
C      1  0.6066610000000  0.4986600000000  0.4902420000000 1.0
C      1  0.5719560000000  0.4892590000000  0.4509190000000 1.0
C      1  0.5371960000000  0.4224600000000  0.5313290000000 1.0
C      1  0.5357170000000  0.4118650000000  0.5035940000000 1.0
C      1  0.4962910000000  0.5873070000000  0.4979780000000 1.0
C      1  0.5736010000000  0.5370350000000  0.5124290000000 1.0
C      1  0.5212540000000  0.4646650000000  0.5725120000000 1.0
C      1  0.4322680000000  0.5475320000000  0.4832810000000 1.0
C      1  0.4380880000000  0.4843540000000  0.4517420000000 1.0
C      1  0.5514920000000  0.4250860000000  0.4828610000000 1.0
C      1  0.4871180000000  0.4951480000000  0.4933440000000 1.0
C      1  0.5220690000000  0.4812000000000  0.4612550000000 1.0
C      1  0.5802130000000  0.4506920000000  0.4888480000000 1.0
C      1  0.5104390000000  0.5527470000000  0.5768520000000 1.0
C      1  0.5764710000000  0.4876180000000  0.5269470000000 1.0
C      1  0.5513610000000  0.5037020000000  0.4945800000000 1.0
C      1  0.4692250000000  0.5416190000000  0.4143950000000 1.0
C      1  0.5392080000000  0.5677010000000  0.5367340000000 1.0
C      1  0.4525630000000  0.4601110000000  0.4124230000000 1.0
C      1  0.5868760000000  0.5088550000000  0.5098380000000 1.0
C      1  0.4176350000000  0.5248220000000  0.4944980000000 1.0
C      1  0.5659270000000  0.5524410000000  0.4874460000000 1.0
C      1  0.5016160000000  0.5069380000000  0.5906970000000 1.0
C      1  0.4914250000000  0.4890160000000  0.4214870000000 1.0
C      1  0.4414270000000  0.4876530000000  0.5305160000000 1.0
C      1  0.4614000000000  0.4871900000000  0.4103550000000 1.0
C      1  0.5292450000000  0.5105470000000  0.4530710000000 1.0
C      1  0.4680160000000  0.5157290000000  0.4865100000000 1.0
C      1  0.4785080000000  0.5212560000000  0.4579990000000 1.0
C      1  0.4482370000000  0.5174760000000  0.5326230000000 1.0
C      1  0.5542930000000  0.5440580000000  0.4352450000000 1.0
C      1  0.4633210000000  0.5755110000000  0.4608430000000 1.0
C      1  0.5141400000000  0.5715190000000  0.5537530000000 1.0
C      1  0.5215070000000  0.5127850000000  0.5513900000000 1.0
C      1  0.4822660000000  0.4199830000000  0.4580510000000 1.0
C      1  0.5630230000000  0.4645930000000  0.4663740000000 1.0
C      1  0.4212320000000  0.4490660000000  0.5385830000000 1.0
C      1  0.4887970000000  0.4685570000000  0.5432140000000 1.0
C      1  0.4596670000000  0.5570580000000  0.5692490000000 1.0
C      1  0.4813140000000  0.4937770000000  0.4490580000000 1.0
C      1  0.4824690000000  0.5486930000000  0.5855800000000 1.0
C      1  0.5077170000000  0.5326080000000  0.4592170000000 1.0
C      1  0.4901940000000  0.5735920000000  0.5338890000000 1.0
C      1  0.5083830000000  0.4355730000000  0.4485130000000 1.0
C      1  0.5408090000000  0.4638470000000  0.4248530000000 1.0
C      1  0.4496720000000  0.5118120000000  0.5811350000000 1.0
C      1  0.4629280000000  0.4645420000000  0.5246090000000 1.0
C      1  0.5175610000000  0.5410170000000  0.4855500000000 1.0
C      1  0.4729000000000  0.5397820000000  0.5042050000000 1.0
C      1  0.5072360000000  0.5549690000000  0.4382590000000 1.0
C      1  0.4897510000000  0.5433930000000  0.5284380000000 1.0
C      1  0.5726760000000  0.4602660000000  0.5169130000000 1.0
C      1  0.6050610000000  0.4705210000000  0.4796530000000 1.0
C      1  0.5243820000000  0.5255850000000  0.5793010000000 1.0
C      1  0.5611720000000  0.4939480000000  0.5507650000000 1.0
C      1  0.5255080000000  0.5194280000000  0.5047160000000 1.0
C      1  0.4241020000000  0.5464070000000  0.5416910000000 1.0
C      1  0.5071240000000  0.5921490000000  0.4685040000000 1.0
C      1  0.4437180000000  0.5526130000000  0.4557590000000 1.0
C      1  0.4970230000000  0.5406000000000  0.4139400000000 1.0
C      1  0.5081320000000  0.4287170000000  0.5380960000000 1.0
C      1  0.4363940000000  0.5373110000000  0.5695110000000 1.0
C      1  0.4901150000000  0.5780990000000  0.4485000000000 1.0
C      1  0.5092200000000  0.5134880000000  0.4120300000000 1.0
C      1  0.5562700000000  0.4894700000000  0.4235830000000 1.0
C      1  0.4569150000000  0.5310140000000  0.4382410000000 1.0
C      1  0.4809960000000  0.4536770000000  0.4775520000000 1.0
C      1  0.4408570000000  0.5682050000000  0.5288650000000 1.0
C      1  0.5522950000000  0.4488460000000  0.5347490000000 1.0
C      1  0.6011690000000  0.4866940000000  0.4544750000000 1.0
C      1  0.5705580000000  0.5385470000000  0.4609940000000 1.0
C      1  0.5378320000000  0.5634840000000  0.4866170000000 1.0
C      1  0.4763910000000  0.5211470000000  0.5922340000000 1.0
C      1  0.4667160000000  0.4387190000000  0.5765800000000 1.0
C      1  0.5379640000000  0.5144690000000  0.4240350000000 1.0
C      1  0.5397720000000  0.4751050000000  0.4860440000000 1.0
C      1  0.5578740000000  0.5120930000000  0.4660950000000 1.0
C      1  0.5451690000000  0.4693180000000  0.5554460000000 1.0
C      1  0.4977370000000  0.4787330000000  0.5850910000000 1.0
C      1  0.5116540000000  0.4279360000000  0.4915240000000 1.0
C      1  0.5065660000000  0.4958730000000  0.5132210000000 1.0
C      1  0.5578740000000  0.5229660000000  0.5603740000000 1.0
C      1  0.5318950000000  0.5792630000000  0.5105150000000 1.0
END
