TITL C-950535-5962-239 -1.31148348244461e-06 125000 -832.50369865519 0 0 134 (C1) n - 1
REM
REM in /home/bkarasulu/work/CARBON/AIRSS/Generating-Clusters/EDIP-Nigel-Params/with-SteepDescent/Only-C1/SD-CG/HFTN-CG
REM
REM
REM
REM
REM
REM ./C.cell (11c1c37f851c82e70ff6c80c92926a4b)
REM
REM compiler GCC version 9.2.1 20190827 (Red Hat 9.2.1-1)
REM options -cpp -mtune=generic -march=x86-64 -g -O0 -fpre-include=/usr/include/finclude/math-vector-fortran.h
REM seed -800548196 801557912 -2054110925 1857973735 2134281441 1869212828 1759959458 -353200778 -1497139360 818083638 -1362814974 1817615223 1506927985 510702108 -1634578520 -2113629967 -575021527 -228830261 1616004143 -284383282 349008859 63461655 419669721 334761760 -2079612578 -85947532 2115587910 -529141769 -1350079435 1956492032 716176822 899187782 -955213224
REM
CELL 1.54180   50.00000   50.00000   50.00000   90.00000   90.00000   90.00000
LATT -1
SFAC C  
C      1  0.5434900000000  0.5948500000000  0.4952840000000 1.0
C      1  0.5428790000000  0.5821340000000  0.5444630000000 1.0
C      1  0.5700910000000  0.5292220000000  0.4567190000000 1.0
C      1  0.5703280000000  0.4472350000000  0.4913050000000 1.0
C      1  0.4707040000000  0.5090830000000  0.5334050000000 1.0
C      1  0.5518550000000  0.4787380000000  0.5829140000000 1.0
C      1  0.5184710000000  0.5094530000000  0.4926120000000 1.0
C      1  0.5705200000000  0.4999410000000  0.4939400000000 1.0
C      1  0.5386290000000  0.5050180000000  0.5897890000000 1.0
C      1  0.5528220000000  0.5767640000000  0.4517330000000 1.0
C      1  0.5489210000000  0.5619050000000  0.4267140000000 1.0
C      1  0.4811840000000  0.4954900000000  0.4109140000000 1.0
C      1  0.5351270000000  0.4126710000000  0.5166590000000 1.0
C      1  0.5765900000000  0.4524410000000  0.4628510000000 1.0
C      1  0.5205270000000  0.5593710000000  0.4204590000000 1.0
C      1  0.5038020000000  0.5677170000000  0.4425220000000 1.0
C      1  0.4332610000000  0.5517050000000  0.4795250000000 1.0
C      1  0.4702110000000  0.5391080000000  0.4614680000000 1.0
C      1  0.4463080000000  0.5787340000000  0.4790890000000 1.0
C      1  0.4967720000000  0.4912550000000  0.4924920000000 1.0
C      1  0.4819800000000  0.4602710000000  0.5380820000000 1.0
C      1  0.5625540000000  0.5348810000000  0.4271160000000 1.0
C      1  0.5234320000000  0.5823050000000  0.5207880000000 1.0
C      1  0.4702640000000  0.4603710000000  0.5673130000000 1.0
C      1  0.5304960000000  0.4852050000000  0.4109980000000 1.0
C      1  0.5498490000000  0.5471950000000  0.4979900000000 1.0
C      1  0.4622230000000  0.4489820000000  0.5092070000000 1.0
C      1  0.4939810000000  0.5866670000000  0.5301700000000 1.0
C      1  0.5627140000000  0.5005500000000  0.4662780000000 1.0
C      1  0.4789980000000  0.5336840000000  0.5468390000000 1.0
C      1  0.4528670000000  0.4348410000000  0.5602900000000 1.0
C      1  0.4923250000000  0.4878730000000  0.5360390000000 1.0
C      1  0.4359270000000  0.4785470000000  0.5683560000000 1.0
C      1  0.5338530000000  0.4716620000000  0.5594750000000 1.0
C      1  0.4301960000000  0.4218030000000  0.5153340000000 1.0
C      1  0.5241740000000  0.5535970000000  0.5104920000000 1.0
C      1  0.5994920000000  0.4970120000000  0.4968900000000 1.0
C      1  0.4213390000000  0.4474840000000  0.5255420000000 1.0
C      1  0.4875290000000  0.4436140000000  0.4919610000000 1.0
C      1  0.5475010000000  0.5097010000000  0.5337630000000 1.0
C      1  0.5315960000000  0.5829140000000  0.5696820000000 1.0
C      1  0.4312760000000  0.4861240000000  0.4368860000000 1.0
C      1  0.5081920000000  0.4037840000000  0.5138910000000 1.0
C      1  0.4024110000000  0.4934300000000  0.5162360000000 1.0
C      1  0.4277620000000  0.4355780000000  0.4682210000000 1.0
C      1  0.5475570000000  0.4786230000000  0.5323260000000 1.0
C      1  0.5036090000000  0.5554370000000  0.5965220000000 1.0
C      1  0.5207420000000  0.4162110000000  0.4397150000000 1.0
C      1  0.4856150000000  0.4513990000000  0.4632950000000 1.0
C      1  0.5090690000000  0.4891280000000  0.5610450000000 1.0
C      1  0.5483690000000  0.4266120000000  0.5597040000000 1.0
C      1  0.5054110000000  0.4646890000000  0.5006580000000 1.0
C      1  0.4914740000000  0.4780830000000  0.5837250000000 1.0
C      1  0.4198990000000  0.4627830000000  0.4795820000000 1.0
C      1  0.5069160000000  0.4994040000000  0.3975480000000 1.0
C      1  0.4778160000000  0.5437450000000  0.4938870000000 1.0
C      1  0.4285790000000  0.5310000000000  0.4562040000000 1.0
C      1  0.4525540000000  0.5080150000000  0.4811980000000 1.0
C      1  0.5767070000000  0.4789040000000  0.4540000000000 1.0
C      1  0.4627420000000  0.4204400000000  0.5357640000000 1.0
C      1  0.4986600000000  0.4146650000000  0.4876420000000 1.0
C      1  0.5190010000000  0.4672070000000  0.4579120000000 1.0
C      1  0.4126290000000  0.4893100000000  0.5823550000000 1.0
C      1  0.5368390000000  0.5180750000000  0.4236810000000 1.0
C      1  0.4121560000000  0.4831900000000  0.4587180000000 1.0
C      1  0.4474060000000  0.5029500000000  0.5531240000000 1.0
C      1  0.4735550000000  0.4259820000000  0.4506110000000 1.0
C      1  0.5229480000000  0.4605690000000  0.4273610000000 1.0
C      1  0.5066950000000  0.5366350000000  0.4956610000000 1.0
C      1  0.5614030000000  0.5597760000000  0.5414250000000 1.0
C      1  0.5909340000000  0.5322430000000  0.5226660000000 1.0
C      1  0.4050540000000  0.5101180000000  0.5648650000000 1.0
C      1  0.5803850000000  0.4705100000000  0.5381100000000 1.0
C      1  0.5446510000000  0.5430510000000  0.4670110000000 1.0
C      1  0.5929910000000  0.5432920000000  0.4730350000000 1.0
C      1  0.5070830000000  0.4410290000000  0.5375680000000 1.0
C      1  0.4966520000000  0.4501380000000  0.4170980000000 1.0
C      1  0.5353250000000  0.4461340000000  0.4755030000000 1.0
C      1  0.5320340000000  0.4554030000000  0.5112860000000 1.0
C      1  0.4291120000000  0.4518860000000  0.5538140000000 1.0
C      1  0.4073250000000  0.4658120000000  0.5072140000000 1.0
C      1  0.4646280000000  0.5177020000000  0.4182710000000 1.0
C      1  0.5731920000000  0.4444260000000  0.5206970000000 1.0
C      1  0.5697330000000  0.5436580000000  0.5637320000000 1.0
C      1  0.4762430000000  0.4028470000000  0.4705190000000 1.0
C      1  0.3936840000000  0.4999270000000  0.5417970000000 1.0
C      1  0.4105740000000  0.5105570000000  0.4690210000000 1.0
C      1  0.5550360000000  0.4244930000000  0.5326160000000 1.0
C      1  0.5758380000000  0.4874300000000  0.5663180000000 1.0
C      1  0.6007210000000  0.4844830000000  0.5222930000000 1.0
C      1  0.4931890000000  0.4234940000000  0.4287700000000 1.0
C      1  0.6056740000000  0.5271720000000  0.4966250000000 1.0
C      1  0.4592740000000  0.5227660000000  0.5069740000000 1.0
C      1  0.4789990000000  0.4963560000000  0.4693340000000 1.0
C      1  0.4600640000000  0.5554640000000  0.5366340000000 1.0
C      1  0.4292300000000  0.5274140000000  0.5579410000000 1.0
C      1  0.5083620000000  0.5043310000000  0.5967460000000 1.0
C      1  0.4646140000000  0.4713410000000  0.4616310000000 1.0
C      1  0.4723290000000  0.5718600000000  0.5142390000000 1.0
C      1  0.4467190000000  0.4617440000000  0.4281250000000 1.0
C      1  0.4575570000000  0.5755460000000  0.5676630000000 1.0
C      1  0.4514580000000  0.5896210000000  0.5042610000000 1.0
C      1  0.5892280000000  0.5588230000000  0.5336180000000 1.0
C      1  0.5260120000000  0.4433420000000  0.5603880000000 1.0
C      1  0.4450290000000  0.4355420000000  0.4439690000000 1.0
C      1  0.4694820000000  0.5281280000000  0.5748470000000 1.0
C      1  0.5638620000000  0.4364330000000  0.4440270000000 1.0
C      1  0.4522960000000  0.3947440000000  0.4819320000000 1.0
C      1  0.5864470000000  0.5704690000000  0.4797680000000 1.0
C      1  0.4861260000000  0.5826750000000  0.5598090000000 1.0
C      1  0.4927680000000  0.4147760000000  0.5363440000000 1.0
C      1  0.4442260000000  0.5123530000000  0.4378790000000 1.0
C      1  0.4195450000000  0.5407890000000  0.5036080000000 1.0
C      1  0.4474620000000  0.4710910000000  0.4885150000000 1.0
C      1  0.4677010000000  0.5854840000000  0.4608360000000 1.0
C      1  0.5315260000000  0.4977740000000  0.4658770000000 1.0
C      1  0.5175560000000  0.5275820000000  0.4005500000000 1.0
C      1  0.5408710000000  0.4355560000000  0.4279790000000 1.0
C      1  0.4754670000000  0.5631400000000  0.4448400000000 1.0
C      1  0.4326590000000  0.5423880000000  0.5307090000000 1.0
C      1  0.4925560000000  0.5299080000000  0.5942270000000 1.0
C      1  0.4888940000000  0.5170570000000  0.4483000000000 1.0
C      1  0.5656320000000  0.5733190000000  0.4993210000000 1.0
C      1  0.5230270000000  0.4192190000000  0.4699010000000 1.0
C      1  0.4743070000000  0.4686070000000  0.4184760000000 1.0
C      1  0.5344850000000  0.5940520000000  0.4667220000000 1.0
C      1  0.4486580000000  0.5495870000000  0.5794090000000 1.0
C      1  0.5067240000000  0.5775250000000  0.5798470000000 1.0
C      1  0.5215710000000  0.5215810000000  0.4499320000000 1.0
C      1  0.5637330000000  0.5225460000000  0.5122110000000 1.0
C      1  0.5584340000000  0.5159980000000  0.5612190000000 1.0
C      1  0.4066240000000  0.5151910000000  0.4972570000000 1.0
C      1  0.4384250000000  0.4179330000000  0.4884720000000 1.0
C      1  0.5062260000000  0.5903960000000  0.4604720000000 1.0
END
