TITL C-951335-1172-711 -1.45375498647981e-06 125000 -575.97184741401 0 0 93 (C1) n - 1
REM
REM in /home/bkarasulu/work/CARBON/AIRSS/Generating-Clusters/EDIP-Nigel-Params/with-SteepDescent/Only-C1/SD-CG/HFTN-CG
REM
REM
REM
REM
REM
REM ./C.cell (11c1c37f851c82e70ff6c80c92926a4b)
REM
REM compiler GCC version 9.2.1 20190827 (Red Hat 9.2.1-1)
REM options -cpp -mtune=generic -march=x86-64 -g -O0 -fpre-include=/usr/include/finclude/math-vector-fortran.h
REM seed -184653131 181231247 -97176430 2029704136 2013333271 797393016 189754867 1045335950 456445846 1495517910 1874434898 1172984962 -1488074980 962167569 1213218990 1109176835 1584437540 65794656 -1288569932 37027435 589454072 2047165349 1035664615 -1400452672 -773611419 -52041592 -327061002 1230869458 -1682790481 -2105215958 405464663 -325022655 -1467176918
REM
CELL 1.54180   50.00000   50.00000   50.00000   90.00000   90.00000   90.00000
LATT -1
SFAC C  
C      1  0.5348200000000  0.5687300000000  0.4404920000000 1.0
C      1  0.5340800000000  0.4799950000000  0.5025460000000 1.0
C      1  0.4334190000000  0.4735470000000  0.4824210000000 1.0
C      1  0.5269970000000  0.4598130000000  0.4805170000000 1.0
C      1  0.5225340000000  0.4721000000000  0.4510370000000 1.0
C      1  0.5415670000000  0.5751050000000  0.5041370000000 1.0
C      1  0.4415400000000  0.4956970000000  0.4431100000000 1.0
C      1  0.4989720000000  0.5151850000000  0.5770180000000 1.0
C      1  0.4046770000000  0.4921350000000  0.5148700000000 1.0
C      1  0.4931850000000  0.5604370000000  0.5340240000000 1.0
C      1  0.5438780000000  0.5099720000000  0.5652310000000 1.0
C      1  0.5370040000000  0.4174400000000  0.4815550000000 1.0
C      1  0.4656160000000  0.4123310000000  0.5204720000000 1.0
C      1  0.5842360000000  0.5214400000000  0.5049020000000 1.0
C      1  0.5835240000000  0.4641990000000  0.5257460000000 1.0
C      1  0.5022580000000  0.4496630000000  0.4916690000000 1.0
C      1  0.4814260000000  0.4707910000000  0.4874540000000 1.0
C      1  0.5829640000000  0.5472110000000  0.4939890000000 1.0
C      1  0.4639000000000  0.4328430000000  0.5424720000000 1.0
C      1  0.5161720000000  0.5862560000000  0.4902060000000 1.0
C      1  0.5169380000000  0.5009370000000  0.4584830000000 1.0
C      1  0.4911660000000  0.4448580000000  0.5455790000000 1.0
C      1  0.5650010000000  0.4610190000000  0.5030720000000 1.0
C      1  0.5752380000000  0.5219850000000  0.5322240000000 1.0
C      1  0.4882630000000  0.5627760000000  0.4479070000000 1.0
C      1  0.4433800000000  0.4783510000000  0.5439430000000 1.0
C      1  0.4471480000000  0.4293120000000  0.5013670000000 1.0
C      1  0.4390590000000  0.4500040000000  0.5398230000000 1.0
C      1  0.4813350000000  0.5239930000000  0.4781180000000 1.0
C      1  0.5613110000000  0.5076000000000  0.4705580000000 1.0
C      1  0.5364750000000  0.4876600000000  0.5809800000000 1.0
C      1  0.4715580000000  0.4975360000000  0.4393830000000 1.0
C      1  0.5092300000000  0.5173030000000  0.5293070000000 1.0
C      1  0.4667660000000  0.5149340000000  0.5040040000000 1.0
C      1  0.4292190000000  0.5178480000000  0.4614530000000 1.0
C      1  0.4545810000000  0.4480300000000  0.4472990000000 1.0
C      1  0.5240570000000  0.5267240000000  0.5038890000000 1.0
C      1  0.5655210000000  0.5476260000000  0.5387610000000 1.0
C      1  0.5825200000000  0.4717070000000  0.4810200000000 1.0
C      1  0.5600690000000  0.5277100000000  0.4490520000000 1.0
C      1  0.5546470000000  0.4511950000000  0.4452990000000 1.0
C      1  0.4980320000000  0.4619400000000  0.4356940000000 1.0
C      1  0.4987100000000  0.4282700000000  0.4704850000000 1.0
C      1  0.5114990000000  0.5638480000000  0.4709240000000 1.0
C      1  0.5442480000000  0.5184830000000  0.4280950000000 1.0
C      1  0.5620160000000  0.5635690000000  0.4845820000000 1.0
C      1  0.4373370000000  0.5266370000000  0.5350400000000 1.0
C      1  0.4955560000000  0.4080850000000  0.5142110000000 1.0
C      1  0.4670150000000  0.5894360000000  0.5128300000000 1.0
C      1  0.5460740000000  0.4527830000000  0.5468590000000 1.0
C      1  0.5362330000000  0.4337230000000  0.5284200000000 1.0
C      1  0.4250450000000  0.4993390000000  0.5355280000000 1.0
C      1  0.4472850000000  0.5701020000000  0.5488090000000 1.0
C      1  0.5050970000000  0.5392540000000  0.4863350000000 1.0
C      1  0.4808930000000  0.4884710000000  0.5096830000000 1.0
C      1  0.4715940000000  0.5117920000000  0.5676650000000 1.0
C      1  0.5191820000000  0.5580820000000  0.5494650000000 1.0
C      1  0.4946780000000  0.4739750000000  0.5531550000000 1.0
C      1  0.5522480000000  0.5541240000000  0.4582510000000 1.0
C      1  0.5085670000000  0.4866570000000  0.5782670000000 1.0
C      1  0.5520690000000  0.4320020000000  0.5037080000000 1.0
C      1  0.4386120000000  0.5640900000000  0.4784300000000 1.0
C      1  0.5597450000000  0.5006740000000  0.5438250000000 1.0
C      1  0.5069950000000  0.4349850000000  0.5216600000000 1.0
C      1  0.4806680000000  0.5318410000000  0.5297400000000 1.0
C      1  0.5370630000000  0.4304580000000  0.4551400000000 1.0
C      1  0.5936360000000  0.4980720000000  0.4897540000000 1.0
C      1  0.4348640000000  0.4681100000000  0.4530030000000 1.0
C      1  0.5175520000000  0.5256670000000  0.4299790000000 1.0
C      1  0.5437770000000  0.5651380000000  0.5334610000000 1.0
C      1  0.4107780000000  0.5137230000000  0.4957730000000 1.0
C      1  0.5662710000000  0.4723950000000  0.5457120000000 1.0
C      1  0.4827590000000  0.4799060000000  0.4204080000000 1.0
C      1  0.4489560000000  0.5673140000000  0.5040290000000 1.0
C      1  0.4340240000000  0.5558330000000  0.5266660000000 1.0
C      1  0.4673620000000  0.4850450000000  0.5585390000000 1.0
C      1  0.5032380000000  0.4025620000000  0.4863930000000 1.0
C      1  0.5115910000000  0.5547390000000  0.4288190000000 1.0
C      1  0.4373730000000  0.5040330000000  0.4874850000000 1.0
C      1  0.4099930000000  0.4650650000000  0.5001820000000 1.0
C      1  0.5197980000000  0.5265500000000  0.5572790000000 1.0
C      1  0.4217440000000  0.4411650000000  0.5163030000000 1.0
C      1  0.4420540000000  0.5450060000000  0.4582160000000 1.0
C      1  0.4544420000000  0.5333900000000  0.5586970000000 1.0
C      1  0.4875720000000  0.4977990000000  0.4651740000000 1.0
C      1  0.4702970000000  0.5394220000000  0.4539410000000 1.0
C      1  0.5341730000000  0.5051220000000  0.4850040000000 1.0
C      1  0.5665980000000  0.4750640000000  0.4564430000000 1.0
C      1  0.4556620000000  0.4571120000000  0.4907400000000 1.0
C      1  0.4727110000000  0.5818690000000  0.5407160000000 1.0
C      1  0.5056010000000  0.4874170000000  0.5258890000000 1.0
C      1  0.4821740000000  0.4405540000000  0.4472150000000 1.0
C      1  0.4922910000000  0.5953060000000  0.5019950000000 1.0
END
