TITL C-951333-8791-519 1.27813994844295e-07 125000 -802.552192362002 0 0 131 (C1) n - 1
REM
REM in /home/bkarasulu/work/CARBON/AIRSS/Generating-Clusters/EDIP-Nigel-Params/with-SteepDescent/Only-C1/SD-CG/HFTN-CG
REM
REM
REM
REM
REM
REM ./C.cell (11c1c37f851c82e70ff6c80c92926a4b)
REM
REM compiler GCC version 9.2.1 20190827 (Red Hat 9.2.1-1)
REM options -cpp -mtune=generic -march=x86-64 -g -O0 -fpre-include=/usr/include/finclude/math-vector-fortran.h
REM seed 794659079 225903990 703875535 -171238486 1867790153 -1069497122 2106862405 -1383918833 615787567 -854947707 1687797374 -1022029407 732928904 -1403765191 -1717123472 2008175446 -404528519 -119127985 2057352180 -1989958391 1790010241 -1660391216 -1998854165 -1282354263 -1604405967 -2125228204 786111396 34377452 -1992140845 1730659065 629349273 -867421022 -1314742234
REM
CELL 1.54180   50.00000   50.00000   50.00000   90.00000   90.00000   90.00000
LATT -1
SFAC C  
C      1  0.4800480000000  0.4493650000000  0.5329330000000 1.0
C      1  0.5257380000000  0.4664740000000  0.4099400000000 1.0
C      1  0.4855280000000  0.4772120000000  0.5426410000000 1.0
C      1  0.5250980000000  0.5785940000000  0.4585350000000 1.0
C      1  0.4135230000000  0.5177910000000  0.4778500000000 1.0
C      1  0.5270420000000  0.4732060000000  0.5200250000000 1.0
C      1  0.5071740000000  0.4853490000000  0.5950130000000 1.0
C      1  0.5334610000000  0.5243000000000  0.5286250000000 1.0
C      1  0.4094240000000  0.5141260000000  0.5078120000000 1.0
C      1  0.4754740000000  0.5551590000000  0.4240190000000 1.0
C      1  0.5549990000000  0.5022350000000  0.4892160000000 1.0
C      1  0.4691580000000  0.5166190000000  0.5857860000000 1.0
C      1  0.4678880000000  0.4385670000000  0.4296310000000 1.0
C      1  0.4346750000000  0.5902900000000  0.4770730000000 1.0
C      1  0.4643860000000  0.4340890000000  0.5562200000000 1.0
C      1  0.4783580000000  0.6033490000000  0.4817710000000 1.0
C      1  0.5866950000000  0.5223930000000  0.5149560000000 1.0
C      1  0.5740680000000  0.5176210000000  0.4315840000000 1.0
C      1  0.5361910000000  0.4321060000000  0.5433250000000 1.0
C      1  0.5606220000000  0.4659350000000  0.4664490000000 1.0
C      1  0.5742750000000  0.4888930000000  0.4256740000000 1.0
C      1  0.5042560000000  0.4282710000000  0.5812640000000 1.0
C      1  0.5223980000000  0.5459050000000  0.5092870000000 1.0
C      1  0.5782760000000  0.5605290000000  0.5146340000000 1.0
C      1  0.5210690000000  0.4485580000000  0.5018860000000 1.0
C      1  0.5289770000000  0.4368990000000  0.5720820000000 1.0
C      1  0.5648610000000  0.4401670000000  0.5375800000000 1.0
C      1  0.4317790000000  0.5605110000000  0.5140030000000 1.0
C      1  0.5390350000000  0.4980920000000  0.4626040000000 1.0
C      1  0.4997890000000  0.5925580000000  0.5317360000000 1.0
C      1  0.4745480000000  0.5592160000000  0.5579300000000 1.0
C      1  0.5302500000000  0.5444520000000  0.4074850000000 1.0
C      1  0.4831210000000  0.4116970000000  0.4650300000000 1.0
C      1  0.4804520000000  0.4693270000000  0.5929950000000 1.0
C      1  0.4978750000000  0.4472040000000  0.4292740000000 1.0
C      1  0.4761120000000  0.5149280000000  0.3999310000000 1.0
C      1  0.4524500000000  0.5000470000000  0.5185560000000 1.0
C      1  0.5974820000000  0.4981380000000  0.4999470000000 1.0
C      1  0.4607190000000  0.4250500000000  0.4536290000000 1.0
C      1  0.5608140000000  0.5775400000000  0.4959820000000 1.0
C      1  0.4175240000000  0.4943360000000  0.4576480000000 1.0
C      1  0.5016510000000  0.5609040000000  0.5694320000000 1.0
C      1  0.4117760000000  0.4787980000000  0.5465920000000 1.0
C      1  0.5430650000000  0.5341460000000  0.5760920000000 1.0
C      1  0.4218410000000  0.5348440000000  0.5264570000000 1.0
C      1  0.5768580000000  0.5130390000000  0.5442080000000 1.0
C      1  0.5274190000000  0.4862020000000  0.5714720000000 1.0
C      1  0.4218240000000  0.4645790000000  0.4696530000000 1.0
C      1  0.5658130000000  0.5429860000000  0.4669260000000 1.0
C      1  0.4058570000000  0.4612590000000  0.4967520000000 1.0
C      1  0.4812390000000  0.4958440000000  0.5187270000000 1.0
C      1  0.5466850000000  0.5817420000000  0.5487540000000 1.0
C      1  0.5155960000000  0.4713080000000  0.5472800000000 1.0
C      1  0.4186350000000  0.4356580000000  0.5111500000000 1.0
C      1  0.5385610000000  0.4621120000000  0.5864160000000 1.0
C      1  0.4797890000000  0.4411770000000  0.5814380000000 1.0
C      1  0.4469030000000  0.4544160000000  0.4208680000000 1.0
C      1  0.5116720000000  0.3999890000000  0.5007050000000 1.0
C      1  0.5147400000000  0.5355110000000  0.4818500000000 1.0
C      1  0.5753910000000  0.4521570000000  0.5129270000000 1.0
C      1  0.4524700000000  0.6031540000000  0.4987240000000 1.0
C      1  0.5503250000000  0.4212460000000  0.4847370000000 1.0
C      1  0.5089390000000  0.4918980000000  0.4627580000000 1.0
C      1  0.4842820000000  0.5496690000000  0.5106420000000 1.0
C      1  0.5391180000000  0.4985930000000  0.5135590000000 1.0
C      1  0.4373780000000  0.4193470000000  0.4952940000000 1.0
C      1  0.5278580000000  0.4069260000000  0.4767670000000 1.0
C      1  0.5132140000000  0.5330980000000  0.5728540000000 1.0
C      1  0.4387940000000  0.4579040000000  0.5178240000000 1.0
C      1  0.5028560000000  0.5496850000000  0.4346220000000 1.0
C      1  0.5126040000000  0.4230610000000  0.5217330000000 1.0
C      1  0.4502420000000  0.5830050000000  0.5217810000000 1.0
C      1  0.4605440000000  0.5729500000000  0.4383930000000 1.0
C      1  0.5114140000000  0.5187840000000  0.5463830000000 1.0
C      1  0.4618170000000  0.5476400000000  0.4848940000000 1.0
C      1  0.5148610000000  0.4486190000000  0.4679400000000 1.0
C      1  0.4674950000000  0.5193760000000  0.4743390000000 1.0
C      1  0.4621630000000  0.5148210000000  0.4453780000000 1.0
C      1  0.4668180000000  0.4503500000000  0.5061650000000 1.0
C      1  0.5631220000000  0.4455140000000  0.4881260000000 1.0
C      1  0.4259170000000  0.5434840000000  0.4711830000000 1.0
C      1  0.5461110000000  0.5213500000000  0.4435590000000 1.0
C      1  0.5894670000000  0.4991920000000  0.4704480000000 1.0
C      1  0.5380460000000  0.4562350000000  0.4506590000000 1.0
C      1  0.5404270000000  0.4918540000000  0.4096440000000 1.0
C      1  0.4595390000000  0.5740140000000  0.4666270000000 1.0
C      1  0.4408260000000  0.5180210000000  0.5428250000000 1.0
C      1  0.4963920000000  0.5121530000000  0.4804300000000 1.0
C      1  0.4566010000000  0.4892770000000  0.5855230000000 1.0
C      1  0.4607970000000  0.5299340000000  0.4191310000000 1.0
C      1  0.4633260000000  0.4071050000000  0.5097010000000 1.0
C      1  0.4367220000000  0.5028540000000  0.4342770000000 1.0
C      1  0.5235690000000  0.5688340000000  0.4224940000000 1.0
C      1  0.5410480000000  0.4475320000000  0.4236890000000 1.0
C      1  0.4924050000000  0.4788490000000  0.4356220000000 1.0
C      1  0.4888620000000  0.5232850000000  0.5279650000000 1.0
C      1  0.5067280000000  0.5961480000000  0.4810440000000 1.0
C      1  0.5547310000000  0.5717440000000  0.4676550000000 1.0
C      1  0.5524670000000  0.5099890000000  0.5867800000000 1.0
C      1  0.4774770000000  0.4644020000000  0.4640750000000 1.0
C      1  0.4790170000000  0.4107680000000  0.5362960000000 1.0
C      1  0.5785820000000  0.4486210000000  0.5602670000000 1.0
C      1  0.5061880000000  0.5555790000000  0.4634510000000 1.0
C      1  0.4255700000000  0.5001870000000  0.5625610000000 1.0
C      1  0.5673280000000  0.4677840000000  0.5771610000000 1.0
C      1  0.4618370000000  0.5323860000000  0.5614840000000 1.0
C      1  0.4836110000000  0.3982630000000  0.4907000000000 1.0
C      1  0.5291750000000  0.5179690000000  0.4192380000000 1.0
C      1  0.4461420000000  0.4812400000000  0.4149740000000 1.0
C      1  0.5614580000000  0.5319960000000  0.4946860000000 1.0
C      1  0.4212600000000  0.5661180000000  0.4877510000000 1.0
C      1  0.4497140000000  0.4734280000000  0.4784250000000 1.0
C      1  0.4767500000000  0.5722820000000  0.5304540000000 1.0
C      1  0.5173400000000  0.5955960000000  0.5079460000000 1.0
C      1  0.5839750000000  0.4760620000000  0.4507420000000 1.0
C      1  0.4742600000000  0.4888680000000  0.4111020000000 1.0
C      1  0.4471610000000  0.5015240000000  0.4889350000000 1.0
C      1  0.4902920000000  0.4711970000000  0.4956140000000 1.0
C      1  0.5366190000000  0.5738700000000  0.5128080000000 1.0
C      1  0.5935970000000  0.4734390000000  0.5125120000000 1.0
C      1  0.4981060000000  0.5151120000000  0.5927890000000 1.0
C      1  0.4361240000000  0.4297110000000  0.4676540000000 1.0
C      1  0.4360800000000  0.4597850000000  0.5477240000000 1.0
C      1  0.5556110000000  0.5340090000000  0.5483530000000 1.0
C      1  0.5093750000000  0.4208700000000  0.4561030000000 1.0
C      1  0.5663030000000  0.5609930000000  0.5422020000000 1.0
C      1  0.5172230000000  0.5798300000000  0.5523110000000 1.0
C      1  0.4051420000000  0.4859860000000  0.5173820000000 1.0
C      1  0.4575900000000  0.4791780000000  0.5569800000000 1.0
C      1  0.5895920000000  0.5255590000000  0.4556200000000 1.0
C      1  0.5702740000000  0.4961230000000  0.5692670000000 1.0
END
