TITL C-951348-1603-342 1.90775264091375e-06 125000 -572.183192518642 0 0 93 (C1) n - 1
REM
REM in /home/bkarasulu/work/CARBON/AIRSS/Generating-Clusters/EDIP-Nigel-Params/with-SteepDescent/Only-C1/SD-CG/HFTN-CG
REM
REM
REM
REM
REM
REM ./C.cell (11c1c37f851c82e70ff6c80c92926a4b)
REM
REM compiler GCC version 9.2.1 20190827 (Red Hat 9.2.1-1)
REM options -cpp -mtune=generic -march=x86-64 -g -O0 -fpre-include=/usr/include/finclude/math-vector-fortran.h
REM seed 1142356947 1202805269 -592194482 -747036957 1647013158 211824541 1112714980 -1173001156 1356732798 2092158184 -898610186 -1898854968 704700118 -1053542418 1037402043 613649316 965850788 -289866579 572985835 -775757167 542641701 -1055352396 110324239 -1815791886 1874171342 1936270547 -1784585856 1421087552 1360071599 204636037 1094950547 784409598 937448615
REM
CELL 1.54180   50.00000   50.00000   50.00000   90.00000   90.00000   90.00000
LATT -1
SFAC C  
C      1  0.4773900000000  0.5154380000000  0.4311820000000 1.0
C      1  0.5416090000000  0.4236260000000  0.4929850000000 1.0
C      1  0.5206750000000  0.4235020000000  0.4526470000000 1.0
C      1  0.5582000000000  0.5008350000000  0.4381520000000 1.0
C      1  0.5697590000000  0.5202800000000  0.5171300000000 1.0
C      1  0.4871800000000  0.5105160000000  0.4844290000000 1.0
C      1  0.4627840000000  0.5403800000000  0.4411710000000 1.0
C      1  0.5373690000000  0.5256940000000  0.4681730000000 1.0
C      1  0.5613950000000  0.4489330000000  0.5234000000000 1.0
C      1  0.4369550000000  0.5298310000000  0.4587270000000 1.0
C      1  0.4419930000000  0.4359930000000  0.5372860000000 1.0
C      1  0.4920320000000  0.5626660000000  0.4278230000000 1.0
C      1  0.5222950000000  0.4030680000000  0.4945800000000 1.0
C      1  0.5515390000000  0.4567350000000  0.5509280000000 1.0
C      1  0.4412870000000  0.4838150000000  0.5452970000000 1.0
C      1  0.4233250000000  0.5333040000000  0.5056030000000 1.0
C      1  0.4928960000000  0.5421300000000  0.4839750000000 1.0
C      1  0.5291280000000  0.5256930000000  0.4382270000000 1.0
C      1  0.4588790000000  0.4935900000000  0.4303740000000 1.0
C      1  0.4281000000000  0.4841740000000  0.5192140000000 1.0
C      1  0.5102060000000  0.4618350000000  0.5762590000000 1.0
C      1  0.4193230000000  0.5493530000000  0.5282550000000 1.0
C      1  0.5218200000000  0.5209190000000  0.5729380000000 1.0
C      1  0.5052490000000  0.5078060000000  0.4367770000000 1.0
C      1  0.5742210000000  0.5016060000000  0.4636360000000 1.0
C      1  0.5344570000000  0.4865290000000  0.5214100000000 1.0
C      1  0.5409470000000  0.5128450000000  0.5072820000000 1.0
C      1  0.5245410000000  0.4474760000000  0.5571380000000 1.0
C      1  0.4397920000000  0.5035570000000  0.4729030000000 1.0
C      1  0.5663800000000  0.4788710000000  0.4821650000000 1.0
C      1  0.4420960000000  0.4571300000000  0.5571320000000 1.0
C      1  0.5772010000000  0.4710140000000  0.5090320000000 1.0
C      1  0.4858790000000  0.5522220000000  0.5117700000000 1.0
C      1  0.4540240000000  0.4263940000000  0.4737750000000 1.0
C      1  0.5542780000000  0.4603090000000  0.4633140000000 1.0
C      1  0.5196270000000  0.5558030000000  0.4340200000000 1.0
C      1  0.4631600000000  0.4685230000000  0.4194190000000 1.0
C      1  0.5543070000000  0.5628430000000  0.4997730000000 1.0
C      1  0.4287820000000  0.4564340000000  0.5086250000000 1.0
C      1  0.4692970000000  0.5085950000000  0.5093900000000 1.0
C      1  0.4947920000000  0.5879710000000  0.4995250000000 1.0
C      1  0.4597540000000  0.5360740000000  0.5504530000000 1.0
C      1  0.4930550000000  0.5696810000000  0.5670600000000 1.0
C      1  0.5244230000000  0.5327770000000  0.5207290000000 1.0
C      1  0.4841160000000  0.4715400000000  0.5794310000000 1.0
C      1  0.4437230000000  0.4525610000000  0.4839230000000 1.0
C      1  0.4510960000000  0.5070450000000  0.5610090000000 1.0
C      1  0.5052450000000  0.5188370000000  0.5384270000000 1.0
C      1  0.4793060000000  0.4193810000000  0.4872000000000 1.0
C      1  0.5143530000000  0.4938010000000  0.4821170000000 1.0
C      1  0.4493630000000  0.5678830000000  0.4841780000000 1.0
C      1  0.5129450000000  0.4827390000000  0.4515290000000 1.0
C      1  0.4565700000000  0.4276150000000  0.4456110000000 1.0
C      1  0.4714130000000  0.5570720000000  0.4667970000000 1.0
C      1  0.4761380000000  0.4118300000000  0.5136580000000 1.0
C      1  0.4696550000000  0.4265430000000  0.5360350000000 1.0
C      1  0.5789300000000  0.4930630000000  0.5286660000000 1.0
C      1  0.5475630000000  0.5074140000000  0.5688210000000 1.0
C      1  0.5698890000000  0.5345350000000  0.5422440000000 1.0
C      1  0.5078080000000  0.4653740000000  0.4933930000000 1.0
C      1  0.4653990000000  0.4517410000000  0.5723740000000 1.0
C      1  0.4615630000000  0.5711470000000  0.5117050000000 1.0
C      1  0.5130200000000  0.4423690000000  0.4283680000000 1.0
C      1  0.5679500000000  0.5266840000000  0.5682280000000 1.0
C      1  0.5245960000000  0.5498620000000  0.4799090000000 1.0
C      1  0.5072510000000  0.4901550000000  0.5305910000000 1.0
C      1  0.4704140000000  0.4663550000000  0.4832770000000 1.0
C      1  0.4893500000000  0.4490020000000  0.5419110000000 1.0
C      1  0.5375700000000  0.4530110000000  0.5032960000000 1.0
C      1  0.4666830000000  0.4928360000000  0.4672470000000 1.0
C      1  0.4393200000000  0.5072640000000  0.5026730000000 1.0
C      1  0.5037710000000  0.4094600000000  0.4744000000000 1.0
C      1  0.4790040000000  0.5283880000000  0.5284760000000 1.0
C      1  0.5149400000000  0.5834300000000  0.5224700000000 1.0
C      1  0.5249620000000  0.5707210000000  0.4594720000000 1.0
C      1  0.4971570000000  0.4546300000000  0.4519820000000 1.0
C      1  0.4935120000000  0.5223530000000  0.5802080000000 1.0
C      1  0.5747450000000  0.5416910000000  0.4960090000000 1.0
C      1  0.4785140000000  0.5465540000000  0.5717630000000 1.0
C      1  0.5304630000000  0.4641860000000  0.4216390000000 1.0
C      1  0.4278660000000  0.5483390000000  0.4805790000000 1.0
C      1  0.5459100000000  0.4323490000000  0.4657690000000 1.0
C      1  0.5030990000000  0.5888950000000  0.4691390000000 1.0
C      1  0.5037370000000  0.5848940000000  0.5479630000000 1.0
C      1  0.4765150000000  0.4993720000000  0.5740970000000 1.0
C      1  0.4823280000000  0.5790940000000  0.4503100000000 1.0
C      1  0.5522850000000  0.4727170000000  0.4374470000000 1.0
C      1  0.5535560000000  0.4865790000000  0.5459620000000 1.0
C      1  0.4879340000000  0.4704180000000  0.5180480000000 1.0
C      1  0.4694010000000  0.4523310000000  0.4414400000000 1.0
C      1  0.4444710000000  0.5584410000000  0.5353320000000 1.0
C      1  0.5676010000000  0.5301510000000  0.4698480000000 1.0
C      1  0.5345990000000  0.5605800000000  0.5209420000000 1.0
END
