TITL C-951343-2256-307 -7.04733929038814e-06 125000 -1183.38634196347 0 0 189 (C1) n - 1
REM
REM in /home/bkarasulu/work/CARBON/AIRSS/Generating-Clusters/EDIP-Nigel-Params/with-SteepDescent/Only-C1/SD-CG/HFTN-CG
REM
REM
REM
REM
REM
REM ./C.cell (11c1c37f851c82e70ff6c80c92926a4b)
REM
REM compiler GCC version 9.2.1 20190827 (Red Hat 9.2.1-1)
REM options -cpp -mtune=generic -march=x86-64 -g -O0 -fpre-include=/usr/include/finclude/math-vector-fortran.h
REM seed 1024912520 -1570819136 -1223820789 -2124924021 -350809032 1332179675 458627557 -1312346084 80604786 1850183783 -1115120517 -954149297 1919671533 1204111356 -135980733 1402552219 -1552683154 2053220680 -1929240915 -2063478682 -480601218 -2089048139 -698395988 1973417259 2118869072 -1305527013 1012571073 2065234298 -7457728 543893539 -1971419715 9540570 -1648481483
REM
CELL 1.54180   50.00000   50.00000   50.00000   90.00000   90.00000   90.00000
LATT -1
SFAC C  
C      1  0.4943220000000  0.5293620000000  0.4419660000000 1.0
C      1  0.5252520000000  0.4717540000000  0.3980990000000 1.0
C      1  0.5636930000000  0.5354530000000  0.4077880000000 1.0
C      1  0.4442360000000  0.5211810000000  0.5430900000000 1.0
C      1  0.4255580000000  0.5087010000000  0.4955880000000 1.0
C      1  0.4489050000000  0.5144390000000  0.5119550000000 1.0
C      1  0.4690910000000  0.4497450000000  0.4072060000000 1.0
C      1  0.4422210000000  0.3940640000000  0.4985950000000 1.0
C      1  0.4625850000000  0.5985290000000  0.5128120000000 1.0
C      1  0.4981750000000  0.5816250000000  0.5742830000000 1.0
C      1  0.5686930000000  0.4686500000000  0.4883420000000 1.0
C      1  0.4458360000000  0.4244870000000  0.4591650000000 1.0
C      1  0.3967780000000  0.4705500000000  0.4973750000000 1.0
C      1  0.4316530000000  0.4618160000000  0.5628000000000 1.0
C      1  0.5725540000000  0.4859710000000  0.4425080000000 1.0
C      1  0.4467970000000  0.4568970000000  0.5138760000000 1.0
C      1  0.4726590000000  0.5369140000000  0.5783220000000 1.0
C      1  0.4709970000000  0.4751280000000  0.3927290000000 1.0
C      1  0.4942530000000  0.5215700000000  0.4934440000000 1.0
C      1  0.5892050000000  0.5415320000000  0.5526470000000 1.0
C      1  0.4534500000000  0.3990910000000  0.4725040000000 1.0
C      1  0.5050190000000  0.4330380000000  0.5043750000000 1.0
C      1  0.5193120000000  0.6061750000000  0.5117460000000 1.0
C      1  0.4700650000000  0.5086330000000  0.4402120000000 1.0
C      1  0.5073530000000  0.5259560000000  0.5199320000000 1.0
C      1  0.5152070000000  0.4672410000000  0.6017500000000 1.0
C      1  0.5131860000000  0.6084800000000  0.5387750000000 1.0
C      1  0.5055770000000  0.3945550000000  0.4584970000000 1.0
C      1  0.4707010000000  0.5235430000000  0.3937010000000 1.0
C      1  0.5983070000000  0.4714320000000  0.4922890000000 1.0
C      1  0.6040300000000  0.4696220000000  0.5230930000000 1.0
C      1  0.4782180000000  0.5847740000000  0.5518430000000 1.0
C      1  0.5052000000000  0.6141590000000  0.4861420000000 1.0
C      1  0.5433960000000  0.5148360000000  0.4158880000000 1.0
C      1  0.5055560000000  0.4414720000000  0.5334490000000 1.0
C      1  0.6037700000000  0.5232150000000  0.4967120000000 1.0
C      1  0.5048920000000  0.5277270000000  0.6241420000000 1.0
C      1  0.4790900000000  0.3893470000000  0.4663330000000 1.0
C      1  0.3885360000000  0.4419560000000  0.5038400000000 1.0
C      1  0.4949440000000  0.5091320000000  0.5406420000000 1.0
C      1  0.5196560000000  0.5638500000000  0.4702870000000 1.0
C      1  0.5083770000000  0.5820540000000  0.4130870000000 1.0
C      1  0.5651930000000  0.4893520000000  0.5268470000000 1.0
C      1  0.5223560000000  0.5581640000000  0.4043420000000 1.0
C      1  0.5306580000000  0.4450800000000  0.4913670000000 1.0
C      1  0.4607730000000  0.4692300000000  0.6054300000000 1.0
C      1  0.4340220000000  0.5607970000000  0.5593560000000 1.0
C      1  0.4413750000000  0.4126540000000  0.5385480000000 1.0
C      1  0.5613570000000  0.5186770000000  0.5921960000000 1.0
C      1  0.4673400000000  0.4181350000000  0.5542250000000 1.0
C      1  0.4607630000000  0.4264380000000  0.5822150000000 1.0
C      1  0.4970020000000  0.5534400000000  0.5858930000000 1.0
C      1  0.5415910000000  0.5590110000000  0.5182600000000 1.0
C      1  0.5506710000000  0.5056170000000  0.4431010000000 1.0
C      1  0.5781870000000  0.5725590000000  0.4271860000000 1.0
C      1  0.5533580000000  0.6076480000000  0.4823160000000 1.0
C      1  0.3888150000000  0.4866160000000  0.5224780000000 1.0
C      1  0.4486890000000  0.5868840000000  0.5585060000000 1.0
C      1  0.4147720000000  0.5206830000000  0.4397920000000 1.0
C      1  0.4373250000000  0.4896640000000  0.4768090000000 1.0
C      1  0.4295550000000  0.4420990000000  0.5362880000000 1.0
C      1  0.4600090000000  0.3858480000000  0.5186830000000 1.0
C      1  0.5136110000000  0.5528920000000  0.5348410000000 1.0
C      1  0.4407090000000  0.5977530000000  0.5315890000000 1.0
C      1  0.4895180000000  0.5682910000000  0.4748720000000 1.0
C      1  0.5548740000000  0.5320310000000  0.5271160000000 1.0
C      1  0.5438840000000  0.5042710000000  0.6107330000000 1.0
C      1  0.4345280000000  0.5679480000000  0.4327120000000 1.0
C      1  0.4015260000000  0.5353170000000  0.5213400000000 1.0
C      1  0.5834350000000  0.5443600000000  0.4280060000000 1.0
C      1  0.5741590000000  0.5194490000000  0.5040610000000 1.0
C      1  0.5647460000000  0.5562880000000  0.5626780000000 1.0
C      1  0.5626380000000  0.4729360000000  0.5800720000000 1.0
C      1  0.4439120000000  0.4369430000000  0.4091310000000 1.0
C      1  0.5121660000000  0.4526460000000  0.5769790000000 1.0
C      1  0.4328290000000  0.5747710000000  0.4901760000000 1.0
C      1  0.3878050000000  0.4660250000000  0.5440990000000 1.0
C      1  0.5511710000000  0.5607970000000  0.4019140000000 1.0
C      1  0.5249710000000  0.3988850000000  0.5314570000000 1.0
C      1  0.4030520000000  0.5091960000000  0.5338770000000 1.0
C      1  0.5477730000000  0.5433590000000  0.5811480000000 1.0
C      1  0.5307500000000  0.5742030000000  0.4440440000000 1.0
C      1  0.5099070000000  0.4015210000000  0.5057770000000 1.0
C      1  0.4784770000000  0.5532930000000  0.4507670000000 1.0
C      1  0.5252440000000  0.3943240000000  0.4808410000000 1.0
C      1  0.4041450000000  0.4228430000000  0.4884800000000 1.0
C      1  0.4992610000000  0.5532110000000  0.6147440000000 1.0
C      1  0.4880250000000  0.5041830000000  0.6277590000000 1.0
C      1  0.6075990000000  0.4942630000000  0.5369450000000 1.0
C      1  0.4049930000000  0.4753650000000  0.5666480000000 1.0
C      1  0.5524550000000  0.5817470000000  0.5538240000000 1.0
C      1  0.5227610000000  0.5896530000000  0.5578020000000 1.0
C      1  0.4885850000000  0.4793840000000  0.6125030000000 1.0
C      1  0.5441880000000  0.5580180000000  0.4867160000000 1.0
C      1  0.5318900000000  0.5156760000000  0.5163710000000 1.0
C      1  0.3970050000000  0.5099430000000  0.4618320000000 1.0
C      1  0.5168990000000  0.5112400000000  0.6026350000000 1.0
C      1  0.5076490000000  0.4140820000000  0.5509050000000 1.0
C      1  0.5247780000000  0.4690320000000  0.5436090000000 1.0
C      1  0.4540560000000  0.5977180000000  0.4855620000000 1.0
C      1  0.5168060000000  0.5076340000000  0.5639660000000 1.0
C      1  0.5642350000000  0.5894090000000  0.5270790000000 1.0
C      1  0.4777210000000  0.4444170000000  0.5428180000000 1.0
C      1  0.5721440000000  0.4083210000000  0.5168180000000 1.0
C      1  0.4654690000000  0.5480210000000  0.4056940000000 1.0
C      1  0.4822800000000  0.5598920000000  0.5343600000000 1.0
C      1  0.5813500000000  0.4126520000000  0.4912180000000 1.0
C      1  0.4676930000000  0.5322590000000  0.4958070000000 1.0
C      1  0.4343120000000  0.5008970000000  0.4261540000000 1.0
C      1  0.4441970000000  0.4495800000000  0.5890540000000 1.0
C      1  0.5902710000000  0.5764270000000  0.5169920000000 1.0
C      1  0.4859990000000  0.3861460000000  0.5096260000000 1.0
C      1  0.5141180000000  0.4289990000000  0.4210380000000 1.0
C      1  0.5484340000000  0.5072360000000  0.5562060000000 1.0
C      1  0.5164590000000  0.5993540000000  0.4350600000000 1.0
C      1  0.4039820000000  0.5313980000000  0.4893730000000 1.0
C      1  0.5491280000000  0.4891550000000  0.3994870000000 1.0
C      1  0.5479110000000  0.6083960000000  0.5102760000000 1.0
C      1  0.4988520000000  0.5156410000000  0.3932840000000 1.0
C      1  0.5712790000000  0.4733440000000  0.4142780000000 1.0
C      1  0.5143680000000  0.5301220000000  0.4140060000000 1.0
C      1  0.6020090000000  0.5565270000000  0.5328770000000 1.0
C      1  0.5596150000000  0.5815380000000  0.4469300000000 1.0
C      1  0.5503080000000  0.4276090000000  0.5600430000000 1.0
C      1  0.4286850000000  0.4644250000000  0.4907380000000 1.0
C      1  0.5379280000000  0.5076620000000  0.4701820000000 1.0
C      1  0.5049580000000  0.4840040000000  0.4532840000000 1.0
C      1  0.4070920000000  0.4604600000000  0.4516690000000 1.0
C      1  0.4834170000000  0.4820760000000  0.4340040000000 1.0
C      1  0.5200060000000  0.5395410000000  0.5692350000000 1.0
C      1  0.4428960000000  0.5424580000000  0.5815890000000 1.0
C      1  0.3984660000000  0.4409520000000  0.5320710000000 1.0
C      1  0.5350040000000  0.4866770000000  0.5186550000000 1.0
C      1  0.4489950000000  0.4863250000000  0.5549870000000 1.0
C      1  0.4820620000000  0.5975720000000  0.4725740000000 1.0
C      1  0.5281220000000  0.6145590000000  0.4675970000000 1.0
C      1  0.4418640000000  0.4199770000000  0.4309700000000 1.0
C      1  0.4915350000000  0.4776260000000  0.4945360000000 1.0
C      1  0.4081640000000  0.5046020000000  0.5622730000000 1.0
C      1  0.4723710000000  0.5320050000000  0.5490610000000 1.0
C      1  0.5497930000000  0.4133250000000  0.5340390000000 1.0
C      1  0.4872730000000  0.4835590000000  0.5249990000000 1.0
C      1  0.5577040000000  0.5299450000000  0.4794980000000 1.0
C      1  0.4187140000000  0.4068140000000  0.5072330000000 1.0
C      1  0.5951520000000  0.5034760000000  0.4537970000000 1.0
C      1  0.4909770000000  0.4327730000000  0.4065920000000 1.0
C      1  0.5909870000000  0.5723980000000  0.4877470000000 1.0
C      1  0.4290460000000  0.4709480000000  0.4332620000000 1.0
C      1  0.5290070000000  0.4672240000000  0.4482210000000 1.0
C      1  0.5742040000000  0.4604820000000  0.5316910000000 1.0
C      1  0.6024260000000  0.5464040000000  0.4770100000000 1.0
C      1  0.4666940000000  0.4951770000000  0.4718970000000 1.0
C      1  0.4615250000000  0.5627550000000  0.4287490000000 1.0
C      1  0.5075820000000  0.5133260000000  0.4660920000000 1.0
C      1  0.5799750000000  0.4985100000000  0.5782170000000 1.0
C      1  0.5648700000000  0.4368700000000  0.4518280000000 1.0
C      1  0.4189800000000  0.5555110000000  0.5337190000000 1.0
C      1  0.5120840000000  0.4212890000000  0.4484680000000 1.0
C      1  0.5364550000000  0.4254400000000  0.4665770000000 1.0
C      1  0.4831960000000  0.4557750000000  0.5700870000000 1.0
C      1  0.4212930000000  0.4403700000000  0.4710290000000 1.0
C      1  0.3911440000000  0.4805410000000  0.4675650000000 1.0
C      1  0.5239490000000  0.4250840000000  0.5732910000000 1.0
C      1  0.4249100000000  0.5472380000000  0.4488140000000 1.0
C      1  0.5438730000000  0.4762610000000  0.6034750000000 1.0
C      1  0.6076820000000  0.4978920000000  0.4801510000000 1.0
C      1  0.5588710000000  0.4657050000000  0.4607730000000 1.0
C      1  0.4282990000000  0.5173960000000  0.5784030000000 1.0
C      1  0.4986660000000  0.4865390000000  0.3981500000000 1.0
C      1  0.5615800000000  0.4448670000000  0.4203540000000 1.0
C      1  0.4229070000000  0.5788690000000  0.5174780000000 1.0
C      1  0.4168180000000  0.5549510000000  0.4752410000000 1.0
C      1  0.4720200000000  0.5619970000000  0.5040010000000 1.0
C      1  0.5923820000000  0.5113690000000  0.5538130000000 1.0
C      1  0.5842560000000  0.5316960000000  0.4563540000000 1.0
C      1  0.5249570000000  0.4767010000000  0.4910150000000 1.0
C      1  0.4581230000000  0.4830790000000  0.5257020000000 1.0
C      1  0.5892100000000  0.4283000000000  0.4690690000000 1.0
C      1  0.6074310000000  0.4485230000000  0.4769190000000 1.0
C      1  0.4790090000000  0.4485190000000  0.4919550000000 1.0
C      1  0.5316040000000  0.4527240000000  0.4211180000000 1.0
C      1  0.5602690000000  0.4458690000000  0.5062720000000 1.0
C      1  0.4244010000000  0.4566310000000  0.4080420000000 1.0
C      1  0.5531430000000  0.4572690000000  0.5558840000000 1.0
C      1  0.4725010000000  0.4834380000000  0.5717750000000 1.0
C      1  0.4599220000000  0.4662540000000  0.4473490000000 1.0
C      1  0.4686150000000  0.4429350000000  0.4637480000000 1.0
C      1  0.4539400000000  0.4999280000000  0.4001370000000 1.0
C      1  0.5639870000000  0.5800500000000  0.4763030000000 1.0
END
