TITL C-950532-2784-712 -4.24958343204706e-06 125000 -571.249603168698 0 0 92 (C1) n - 1
REM
REM in /home/bkarasulu/work/CARBON/AIRSS/Generating-Clusters/EDIP-Nigel-Params/with-SteepDescent/Only-C1/SD-CG/HFTN-CG
REM
REM
REM
REM
REM
REM ./C.cell (11c1c37f851c82e70ff6c80c92926a4b)
REM
REM compiler GCC version 9.2.1 20190827 (Red Hat 9.2.1-1)
REM options -cpp -mtune=generic -march=x86-64 -g -O0 -fpre-include=/usr/include/finclude/math-vector-fortran.h
REM seed 1080490284 -542196206 -1409443202 27026423 -1236767569 1569570682 783992246 -689125811 -2139759153 1738191633 -1717565229 1357416563 65353423 -2070597424 -1235843799 -592977127 717421334 752662230 161737960 243606838 -1257337142 -1438559808 -1453024992 -1886977804 -1286246925 1783678758 -1067285495 282928284 1936835619 -1115732545 1048717395 -834402483 253773760
REM
CELL 1.54180   50.00000   50.00000   50.00000   90.00000   90.00000   90.00000
LATT -1
SFAC C  
C      1  0.5390100000000  0.5681410000000  0.5120470000000 1.0
C      1  0.4729990000000  0.5363160000000  0.5099810000000 1.0
C      1  0.5156270000000  0.4331140000000  0.4800590000000 1.0
C      1  0.4576150000000  0.4540660000000  0.5392160000000 1.0
C      1  0.4879530000000  0.5622150000000  0.5163160000000 1.0
C      1  0.5595250000000  0.4555260000000  0.4911890000000 1.0
C      1  0.4309670000000  0.5386700000000  0.5361030000000 1.0
C      1  0.5288820000000  0.4598490000000  0.5378770000000 1.0
C      1  0.4965540000000  0.4648450000000  0.4333620000000 1.0
C      1  0.5226890000000  0.5080330000000  0.4260460000000 1.0
C      1  0.5114450000000  0.5651500000000  0.4970300000000 1.0
C      1  0.4570710000000  0.4979360000000  0.5329980000000 1.0
C      1  0.4437420000000  0.4887710000000  0.5677200000000 1.0
C      1  0.4583590000000  0.5285170000000  0.5353170000000 1.0
C      1  0.5594890000000  0.4723550000000  0.5379170000000 1.0
C      1  0.5779910000000  0.5379410000000  0.5200630000000 1.0
C      1  0.4739330000000  0.4941740000000  0.4867240000000 1.0
C      1  0.5843070000000  0.5089650000000  0.4799140000000 1.0
C      1  0.5380360000000  0.5169030000000  0.5310900000000 1.0
C      1  0.5034420000000  0.4315830000000  0.5484020000000 1.0
C      1  0.4333370000000  0.5530800000000  0.4807170000000 1.0
C      1  0.4349340000000  0.4620650000000  0.5205980000000 1.0
C      1  0.4918260000000  0.5113630000000  0.5047390000000 1.0
C      1  0.4473930000000  0.4932290000000  0.5010920000000 1.0
C      1  0.5422690000000  0.4497990000000  0.4462670000000 1.0
C      1  0.4846240000000  0.5311920000000  0.4185290000000 1.0
C      1  0.4336300000000  0.5190510000000  0.4454430000000 1.0
C      1  0.5356480000000  0.4948110000000  0.5748680000000 1.0
C      1  0.5572920000000  0.5358840000000  0.5424100000000 1.0
C      1  0.4777200000000  0.4217050000000  0.5074620000000 1.0
C      1  0.4689480000000  0.4539200000000  0.4384770000000 1.0
C      1  0.4479480000000  0.4730990000000  0.4448460000000 1.0
C      1  0.4647750000000  0.4402680000000  0.4860580000000 1.0
C      1  0.5223500000000  0.4177780000000  0.5280070000000 1.0
C      1  0.4889560000000  0.4773240000000  0.5696470000000 1.0
C      1  0.4178910000000  0.5213280000000  0.5181520000000 1.0
C      1  0.4955490000000  0.4931980000000  0.5286040000000 1.0
C      1  0.5498690000000  0.4244180000000  0.5254550000000 1.0
C      1  0.4718400000000  0.4312770000000  0.4571560000000 1.0
C      1  0.4741760000000  0.5792090000000  0.4699220000000 1.0
C      1  0.5415800000000  0.4870600000000  0.4961590000000 1.0
C      1  0.4307590000000  0.4750790000000  0.4701580000000 1.0
C      1  0.5177490000000  0.5406660000000  0.5825740000000 1.0
C      1  0.4760670000000  0.5386370000000  0.5574090000000 1.0
C      1  0.5160390000000  0.4738520000000  0.5141210000000 1.0
C      1  0.4545200000000  0.4998410000000  0.4346380000000 1.0
C      1  0.5111710000000  0.5345730000000  0.4269280000000 1.0
C      1  0.4897630000000  0.4996760000000  0.5873840000000 1.0
C      1  0.4226790000000  0.5272120000000  0.4901720000000 1.0
C      1  0.4795990000000  0.4651700000000  0.4898030000000 1.0
C      1  0.5566960000000  0.4965790000000  0.5191850000000 1.0
C      1  0.5111070000000  0.4837680000000  0.4643890000000 1.0
C      1  0.5014460000000  0.4245510000000  0.4548700000000 1.0
C      1  0.5452640000000  0.4369360000000  0.4732940000000 1.0
C      1  0.5651760000000  0.5198910000000  0.5684580000000 1.0
C      1  0.4622940000000  0.4677880000000  0.5642780000000 1.0
C      1  0.4980300000000  0.5216230000000  0.5698170000000 1.0
C      1  0.5116600000000  0.4592740000000  0.5640690000000 1.0
C      1  0.5658220000000  0.4467420000000  0.5186050000000 1.0
C      1  0.5064520000000  0.4619350000000  0.4867360000000 1.0
C      1  0.5669350000000  0.4940950000000  0.4605040000000 1.0
C      1  0.4701370000000  0.5543800000000  0.4527690000000 1.0
C      1  0.5622450000000  0.5537210000000  0.4993580000000 1.0
C      1  0.5157610000000  0.4415870000000  0.4343960000000 1.0
C      1  0.4840680000000  0.5327380000000  0.4674390000000 1.0
C      1  0.4913120000000  0.5615850000000  0.5465490000000 1.0
C      1  0.5037670000000  0.5845490000000  0.4744010000000 1.0
C      1  0.5230450000000  0.5502610000000  0.4503220000000 1.0
C      1  0.5421320000000  0.5620450000000  0.5418780000000 1.0
C      1  0.4135660000000  0.4938270000000  0.5265190000000 1.0
C      1  0.5634540000000  0.4869600000000  0.5645820000000 1.0
C      1  0.5533430000000  0.5133950000000  0.4377610000000 1.0
C      1  0.4405550000000  0.5480020000000  0.4521740000000 1.0
C      1  0.5511990000000  0.5405500000000  0.4517280000000 1.0
C      1  0.5548860000000  0.5318460000000  0.4799400000000 1.0
C      1  0.5067970000000  0.4152970000000  0.5028270000000 1.0
C      1  0.5108240000000  0.5406100000000  0.4769470000000 1.0
C      1  0.5190040000000  0.5792580000000  0.4507480000000 1.0
C      1  0.4751220000000  0.5052160000000  0.4117930000000 1.0
C      1  0.5280890000000  0.5161710000000  0.4882060000000 1.0
C      1  0.5158080000000  0.5061020000000  0.5487380000000 1.0
C      1  0.4206650000000  0.5064130000000  0.4691600000000 1.0
C      1  0.4880770000000  0.5070080000000  0.4530200000000 1.0
C      1  0.5007390000000  0.4888140000000  0.4149620000000 1.0
C      1  0.5182370000000  0.5622740000000  0.5599870000000 1.0
C      1  0.5418940000000  0.5239500000000  0.5891260000000 1.0
C      1  0.5394050000000  0.4793900000000  0.4525800000000 1.0
C      1  0.4210650000000  0.4887460000000  0.5525610000000 1.0
C      1  0.5820080000000  0.5100090000000  0.5093910000000 1.0
C      1  0.4370590000000  0.4523790000000  0.4917000000000 1.0
C      1  0.4770100000000  0.4333290000000  0.5341140000000 1.0
C      1  0.4573110000000  0.5675750000000  0.4929510000000 1.0
END
