TITL C-951339-9237-554 -7.83368472542493e-07 125000 -296.364018010832 0 0 49 (C1) n - 1
REM
REM in /home/bkarasulu/work/CARBON/AIRSS/Generating-Clusters/EDIP-Nigel-Params/with-SteepDescent/Only-C1/SD-CG/HFTN-CG
REM
REM
REM
REM
REM
REM ./C.cell (11c1c37f851c82e70ff6c80c92926a4b)
REM
REM compiler GCC version 9.2.1 20190827 (Red Hat 9.2.1-1)
REM options -cpp -mtune=generic -march=x86-64 -g -O0 -fpre-include=/usr/include/finclude/math-vector-fortran.h
REM seed -857363423 -1635091807 -1167231448 1506420413 1209963220 762523260 126265911 2028513119 113670527 324658436 -1457958553 1321908173 385505745 964535392 -679341749 -1566809707 718856159 817478922 506850130 1231640239 606374180 1716863681 338484496 1399048526 -1644397116 229889156 -1572862630 -1656773851 1247573957 752648827 749098804 -1950882838 678601349
REM
CELL 1.54180   50.00000   50.00000   50.00000   90.00000   90.00000   90.00000
LATT -1
SFAC C  
C      1  0.4544230000000  0.4654810000000  0.4963700000000 1.0
C      1  0.5396360000000  0.5572470000000  0.5287880000000 1.0
C      1  0.5061840000000  0.5637740000000  0.4948320000000 1.0
C      1  0.4890940000000  0.4987470000000  0.4251170000000 1.0
C      1  0.5018880000000  0.5598400000000  0.4669910000000 1.0
C      1  0.4685560000000  0.5364190000000  0.4967080000000 1.0
C      1  0.4894700000000  0.5430220000000  0.5397760000000 1.0
C      1  0.5340290000000  0.4748350000000  0.4552250000000 1.0
C      1  0.4935070000000  0.5239810000000  0.4357470000000 1.0
C      1  0.5697760000000  0.5211260000000  0.5224440000000 1.0
C      1  0.4591610000000  0.4547210000000  0.5333900000000 1.0
C      1  0.5436830000000  0.4972230000000  0.4715090000000 1.0
C      1  0.5721080000000  0.5322520000000  0.4963020000000 1.0
C      1  0.5026200000000  0.4702870000000  0.5551420000000 1.0
C      1  0.4731820000000  0.5145000000000  0.5570900000000 1.0
C      1  0.5095040000000  0.5209710000000  0.5351390000000 1.0
C      1  0.5327580000000  0.5149640000000  0.5553100000000 1.0
C      1  0.4610320000000  0.5021020000000  0.5325050000000 1.0
C      1  0.4953350000000  0.4331650000000  0.4849880000000 1.0
C      1  0.5370150000000  0.4533660000000  0.4745490000000 1.0
C      1  0.4503130000000  0.4929320000000  0.4553420000000 1.0
C      1  0.5466380000000  0.4888770000000  0.5490620000000 1.0
C      1  0.4984820000000  0.4984030000000  0.5650250000000 1.0
C      1  0.4294780000000  0.4790980000000  0.5084330000000 1.0
C      1  0.4876620000000  0.4625900000000  0.5300830000000 1.0
C      1  0.5060810000000  0.5313060000000  0.4617190000000 1.0
C      1  0.4919770000000  0.5184620000000  0.4870330000000 1.0
C      1  0.5037860000000  0.4529390000000  0.4455340000000 1.0
C      1  0.5589030000000  0.4938610000000  0.5221640000000 1.0
C      1  0.4622470000000  0.5021980000000  0.4311020000000 1.0
C      1  0.5290310000000  0.5470600000000  0.5035680000000 1.0
C      1  0.4481540000000  0.5223070000000  0.5136540000000 1.0
C      1  0.4316950000000  0.5082220000000  0.4695980000000 1.0
C      1  0.4556690000000  0.4661950000000  0.4661660000000 1.0
C      1  0.5168260000000  0.4346930000000  0.4648020000000 1.0
C      1  0.4416650000000  0.4783990000000  0.5363160000000 1.0
C      1  0.4840020000000  0.4888490000000  0.5191620000000 1.0
C      1  0.5367650000000  0.5249350000000  0.4630360000000 1.0
C      1  0.5513220000000  0.5351240000000  0.5413180000000 1.0
C      1  0.4277480000000  0.5071510000000  0.4976800000000 1.0
C      1  0.4827680000000  0.5564920000000  0.5130770000000 1.0
C      1  0.5279390000000  0.4632210000000  0.5007460000000 1.0
C      1  0.4837520000000  0.4900800000000  0.4904000000000 1.0
C      1  0.5040730000000  0.4478160000000  0.5088600000000 1.0
C      1  0.4764530000000  0.4492460000000  0.4554060000000 1.0
C      1  0.5167330000000  0.5188340000000  0.5064730000000 1.0
C      1  0.5499750000000  0.5431930000000  0.4827020000000 1.0
C      1  0.5302150000000  0.4661640000000  0.5524980000000 1.0
C      1  0.5366890000000  0.4933290000000  0.5011210000000 1.0
END
