TITL C-951347-9520-511 3.19357256292777e-07 125000 -230.704775585967 0 0 38 (C1) n - 1
REM
REM in /home/bkarasulu/work/CARBON/AIRSS/Generating-Clusters/EDIP-Nigel-Params/with-SteepDescent/Only-C1/SD-CG/HFTN-CG
REM
REM
REM
REM
REM
REM ./C.cell (11c1c37f851c82e70ff6c80c92926a4b)
REM
REM compiler GCC version 9.2.1 20190827 (Red Hat 9.2.1-1)
REM options -cpp -mtune=generic -march=x86-64 -g -O0 -fpre-include=/usr/include/finclude/math-vector-fortran.h
REM seed -1325567772 -890820211 -1903237735 -266227885 136532498 851377719 -1766389137 281047256 1821564627 -394268990 1448905229 -539451880 75738519 1223038983 -2113623860 846280907 -461605718 1070893851 953043376 41196214 343073252 -1967067516 918715232 -1320673107 -1837231763 -1142120539 -1657745970 1365019047 -1536759187 -1444229824 1608960003 2051992088 -1398507791
REM
CELL 1.54180   50.00000   50.00000   50.00000   90.00000   90.00000   90.00000
LATT -1
SFAC C  
C      1  0.4525090000000  0.4444610000000  0.5054610000000 1.0
C      1  0.4852240000000  0.4900680000000  0.5357020000000 1.0
C      1  0.4360420000000  0.4668670000000  0.5011710000000 1.0
C      1  0.4866220000000  0.4603180000000  0.4817740000000 1.0
C      1  0.4891520000000  0.4893540000000  0.4389260000000 1.0
C      1  0.4874820000000  0.4604980000000  0.5402550000000 1.0
C      1  0.4808720000000  0.5306450000000  0.4585740000000 1.0
C      1  0.5293840000000  0.5424430000000  0.4810580000000 1.0
C      1  0.5548460000000  0.5058060000000  0.5105500000000 1.0
C      1  0.5127800000000  0.4833310000000  0.4278250000000 1.0
C      1  0.5050660000000  0.5582930000000  0.4895210000000 1.0
C      1  0.5530260000000  0.5222630000000  0.4495510000000 1.0
C      1  0.5381880000000  0.4887590000000  0.4365080000000 1.0
C      1  0.5137570000000  0.4512800000000  0.5418090000000 1.0
C      1  0.5138360000000  0.4544300000000  0.4821050000000 1.0
C      1  0.4965620000000  0.5060400000000  0.5587070000000 1.0
C      1  0.5492070000000  0.4875020000000  0.4874510000000 1.0
C      1  0.5170980000000  0.5274380000000  0.5226750000000 1.0
C      1  0.4958320000000  0.5030090000000  0.5092910000000 1.0
C      1  0.5238560000000  0.5152440000000  0.5501250000000 1.0
C      1  0.4672100000000  0.4448220000000  0.5292940000000 1.0
C      1  0.5412170000000  0.4999060000000  0.4621730000000 1.0
C      1  0.4989980000000  0.5514590000000  0.5187840000000 1.0
C      1  0.5424720000000  0.4935300000000  0.5365260000000 1.0
C      1  0.5340710000000  0.4648320000000  0.4980770000000 1.0
C      1  0.4782170000000  0.5032350000000  0.4602540000000 1.0
C      1  0.4685130000000  0.4389640000000  0.4832900000000 1.0
C      1  0.5284540000000  0.4695410000000  0.5261790000000 1.0
C      1  0.4583840000000  0.5480400000000  0.4946450000000 1.0
C      1  0.4504650000000  0.4909630000000  0.5029710000000 1.0
C      1  0.4739670000000  0.5345870000000  0.5154010000000 1.0
C      1  0.5411480000000  0.5321770000000  0.5060510000000 1.0
C      1  0.5459210000000  0.5474360000000  0.4588600000000 1.0
C      1  0.4559220000000  0.4976520000000  0.5320400000000 1.0
C      1  0.4774300000000  0.5266540000000  0.5630710000000 1.0
C      1  0.4775400000000  0.4891470000000  0.4871820000000 1.0
C      1  0.4597020000000  0.5264670000000  0.5407510000000 1.0
C      1  0.4790280000000  0.5525420000000  0.4754140000000 1.0
END
