TITL C-950532-2784-725 -2.74098206624128e-07 125000 -48.0219667112498 0 0 9 (C1) n - 1
REM
REM in /home/bkarasulu/work/CARBON/AIRSS/Generating-Clusters/EDIP-Nigel-Params/with-SteepDescent/Only-C1/SD-CG/HFTN-CG
REM
REM
REM
REM
REM
REM ./C.cell (11c1c37f851c82e70ff6c80c92926a4b)
REM
REM compiler GCC version 9.2.1 20190827 (Red Hat 9.2.1-1)
REM options -cpp -mtune=generic -march=x86-64 -g -O0 -fpre-include=/usr/include/finclude/math-vector-fortran.h
REM seed 1011787663 -1030183453 -1001991339 349839405 -1294936877 793837477 14901784 -31121800 2014437174 1870253032 1430469135 625010008 -785119073 807533092 -235656253 -598509912 59149103 -808991434 -1539017576 -315483103 392415397 160674479 1485739249 2120729554 -112547760 -1984517800 119248479 -440089702 82310852 13318393 381528465 -25354106 1016605517
REM
CELL 1.54180   50.00000   50.00000   50.00000   90.00000   90.00000   90.00000
LATT -1
SFAC C  
C      1  0.4907170000000  0.4593900000000  0.4607130000000 1.0
C      1  0.5039490000000  0.4723530000000  0.4822040000000 1.0
C      1  0.4740130000000  0.4992130000000  0.5095440000000 1.0
C      1  0.4964790000000  0.4980960000000  0.4926290000000 1.0
C      1  0.5158630000000  0.4682950000000  0.4567760000000 1.0
C      1  0.5179150000000  0.5426270000000  0.5418590000000 1.0
C      1  0.4789180000000  0.5179690000000  0.5289320000000 1.0
C      1  0.5172720000000  0.5146110000000  0.5027730000000 1.0
C      1  0.5048730000000  0.5274460000000  0.5245700000000 1.0
END
