TITL C-950536-5891-390 -2.49840791675918e-06 125000 -1019.02249901776 0 0 161 (C1) n - 1
REM
REM in /home/bkarasulu/work/CARBON/AIRSS/Generating-Clusters/EDIP-Nigel-Params/with-SteepDescent/Only-C1/SD-CG/HFTN-CG
REM
REM
REM
REM
REM
REM ./C.cell (11c1c37f851c82e70ff6c80c92926a4b)
REM
REM compiler GCC version 9.2.1 20190827 (Red Hat 9.2.1-1)
REM options -cpp -mtune=generic -march=x86-64 -g -O0 -fpre-include=/usr/include/finclude/math-vector-fortran.h
REM seed -958760656 -1328408735 2052349421 662020931 -467318097 552067176 1639802889 1190685098 1244678192 -27907712 764478340 -794285538 -1132001418 947702293 -345221796 -410087009 619608940 -429524370 1269630133 1081329979 -738202636 -809936874 1383637462 1307413127 665280165 1367178491 -1895082796 1755776623 -1846019469 1176902990 -2074436751 1887017012 -2000181498
REM
CELL 1.54180   50.00000   50.00000   50.00000   90.00000   90.00000   90.00000
LATT -1
SFAC C  
C      1  0.5598220000000  0.4617170000000  0.4926590000000 1.0
C      1  0.5696960000000  0.5216520000000  0.4296520000000 1.0
C      1  0.4158880000000  0.5687520000000  0.5184180000000 1.0
C      1  0.6047400000000  0.4672470000000  0.4688420000000 1.0
C      1  0.4318220000000  0.4500800000000  0.5664860000000 1.0
C      1  0.4406230000000  0.5526960000000  0.4751240000000 1.0
C      1  0.5141480000000  0.4212750000000  0.4767000000000 1.0
C      1  0.4162390000000  0.4882410000000  0.5872380000000 1.0
C      1  0.5814260000000  0.4434080000000  0.5391210000000 1.0
C      1  0.3972560000000  0.5378940000000  0.4855530000000 1.0
C      1  0.4071740000000  0.5226270000000  0.4595780000000 1.0
C      1  0.4698340000000  0.4061500000000  0.4752700000000 1.0
C      1  0.4642790000000  0.4862130000000  0.4833530000000 1.0
C      1  0.4598820000000  0.4460200000000  0.4481400000000 1.0
C      1  0.5544740000000  0.5642660000000  0.4937420000000 1.0
C      1  0.4420970000000  0.5085970000000  0.4202700000000 1.0
C      1  0.5850650000000  0.4720480000000  0.5446920000000 1.0
C      1  0.5104720000000  0.5025510000000  0.5972480000000 1.0
C      1  0.4595990000000  0.5431600000000  0.5545240000000 1.0
C      1  0.4632420000000  0.4833080000000  0.5361290000000 1.0
C      1  0.5235330000000  0.5827050000000  0.4211310000000 1.0
C      1  0.4614480000000  0.5864970000000  0.5111960000000 1.0
C      1  0.5380360000000  0.4652570000000  0.3992420000000 1.0
C      1  0.4306340000000  0.5558000000000  0.4288260000000 1.0
C      1  0.4423380000000  0.5861500000000  0.5554880000000 1.0
C      1  0.5066750000000  0.4633440000000  0.5466490000000 1.0
C      1  0.5880380000000  0.4929900000000  0.4690420000000 1.0
C      1  0.4115420000000  0.5131680000000  0.4970920000000 1.0
C      1  0.5705940000000  0.5478760000000  0.5144780000000 1.0
C      1  0.6131120000000  0.4889390000000  0.5117750000000 1.0
C      1  0.4730030000000  0.4392790000000  0.5892260000000 1.0
C      1  0.6112300000000  0.4632600000000  0.4979140000000 1.0
C      1  0.4160700000000  0.4392830000000  0.4672280000000 1.0
C      1  0.4911740000000  0.5649950000000  0.4632010000000 1.0
C      1  0.5894890000000  0.5175510000000  0.4516060000000 1.0
C      1  0.4362420000000  0.5222120000000  0.5133610000000 1.0
C      1  0.5927790000000  0.5338640000000  0.4999220000000 1.0
C      1  0.5866630000000  0.4236050000000  0.4867740000000 1.0
C      1  0.4142620000000  0.4921820000000  0.4590700000000 1.0
C      1  0.5551040000000  0.4809940000000  0.5923780000000 1.0
C      1  0.4868780000000  0.6125750000000  0.4822370000000 1.0
C      1  0.4993940000000  0.5585420000000  0.4907620000000 1.0
C      1  0.5302470000000  0.5283520000000  0.5230120000000 1.0
C      1  0.4956620000000  0.5890140000000  0.4263400000000 1.0
C      1  0.4852660000000  0.5158840000000  0.4571980000000 1.0
C      1  0.4770140000000  0.4339600000000  0.4252540000000 1.0
C      1  0.5604550000000  0.4513640000000  0.4634450000000 1.0
C      1  0.5012860000000  0.4187140000000  0.5094930000000 1.0
C      1  0.5509910000000  0.4897530000000  0.4922060000000 1.0
C      1  0.4903630000000  0.4823880000000  0.6042850000000 1.0
C      1  0.5401770000000  0.5579830000000  0.5534170000000 1.0
C      1  0.5318800000000  0.4903500000000  0.4473750000000 1.0
C      1  0.4078750000000  0.5391970000000  0.5504340000000 1.0
C      1  0.4117320000000  0.4698350000000  0.5664570000000 1.0
C      1  0.5040600000000  0.5557740000000  0.5893260000000 1.0
C      1  0.4731630000000  0.5135010000000  0.4829330000000 1.0
C      1  0.4941660000000  0.4561310000000  0.5178750000000 1.0
C      1  0.4673230000000  0.4869410000000  0.5854340000000 1.0
C      1  0.4887510000000  0.4499010000000  0.4044880000000 1.0
C      1  0.5648720000000  0.5465250000000  0.5433060000000 1.0
C      1  0.4447310000000  0.4494720000000  0.5918420000000 1.0
C      1  0.4837390000000  0.5055550000000  0.5442470000000 1.0
C      1  0.4989910000000  0.4461630000000  0.4750590000000 1.0
C      1  0.5243690000000  0.4296770000000  0.4311920000000 1.0
C      1  0.5148020000000  0.4558210000000  0.4168970000000 1.0
C      1  0.4815950000000  0.5997790000000  0.5289570000000 1.0
C      1  0.5248630000000  0.5951960000000  0.5145830000000 1.0
C      1  0.5587910000000  0.4749700000000  0.4438920000000 1.0
C      1  0.4804850000000  0.4183100000000  0.5681060000000 1.0
C      1  0.5448030000000  0.5308130000000  0.5953190000000 1.0
C      1  0.5644110000000  0.5699010000000  0.4426650000000 1.0
C      1  0.4986040000000  0.5262390000000  0.5826490000000 1.0
C      1  0.4613950000000  0.4165230000000  0.5451940000000 1.0
C      1  0.4739100000000  0.5576650000000  0.5075550000000 1.0
C      1  0.4967260000000  0.4535330000000  0.6027040000000 1.0
C      1  0.4556710000000  0.3996700000000  0.5209720000000 1.0
C      1  0.5710100000000  0.5605570000000  0.4690310000000 1.0
C      1  0.5466810000000  0.4540610000000  0.5825070000000 1.0
C      1  0.4984890000000  0.4148470000000  0.4332920000000 1.0
C      1  0.5375540000000  0.4500210000000  0.5075090000000 1.0
C      1  0.3978190000000  0.4733910000000  0.5419300000000 1.0
C      1  0.5860120000000  0.4481360000000  0.5069700000000 1.0
C      1  0.4562590000000  0.5352470000000  0.4951610000000 1.0
C      1  0.4855820000000  0.5404170000000  0.4175920000000 1.0
C      1  0.5120580000000  0.4635800000000  0.4947820000000 1.0
C      1  0.5314730000000  0.5251930000000  0.4738770000000 1.0
C      1  0.5913600000000  0.5043600000000  0.4984600000000 1.0
C      1  0.5748350000000  0.5254310000000  0.5591120000000 1.0
C      1  0.6095380000000  0.4841550000000  0.5387350000000 1.0
C      1  0.5567390000000  0.5058120000000  0.5159880000000 1.0
C      1  0.5828140000000  0.4764720000000  0.4141020000000 1.0
C      1  0.4365200000000  0.4305770000000  0.5465700000000 1.0
C      1  0.5042620000000  0.6011410000000  0.4607370000000 1.0
C      1  0.5071470000000  0.4922930000000  0.5543390000000 1.0
C      1  0.3926720000000  0.4952110000000  0.5111670000000 1.0
C      1  0.4604610000000  0.5984350000000  0.4830820000000 1.0
C      1  0.5586770000000  0.5487830000000  0.4229860000000 1.0
C      1  0.4310310000000  0.5385300000000  0.4509960000000 1.0
C      1  0.5243110000000  0.5784540000000  0.5394070000000 1.0
C      1  0.5421860000000  0.4949300000000  0.3979880000000 1.0
C      1  0.4328190000000  0.4361470000000  0.4447210000000 1.0
C      1  0.5274320000000  0.5161970000000  0.5586240000000 1.0
C      1  0.4512740000000  0.5743600000000  0.4342930000000 1.0
C      1  0.4367800000000  0.5863240000000  0.5277880000000 1.0
C      1  0.4677960000000  0.4698510000000  0.5100680000000 1.0
C      1  0.4820990000000  0.4934370000000  0.4381840000000 1.0
C      1  0.5268800000000  0.4956630000000  0.4778000000000 1.0
C      1  0.4604520000000  0.5741270000000  0.4636490000000 1.0
C      1  0.4720660000000  0.5185370000000  0.5698840000000 1.0
C      1  0.4337980000000  0.5343980000000  0.5402040000000 1.0
C      1  0.4576210000000  0.5683520000000  0.5713300000000 1.0
C      1  0.5400890000000  0.4267960000000  0.4582100000000 1.0
C      1  0.5117250000000  0.5367870000000  0.4029290000000 1.0
C      1  0.4700470000000  0.5119210000000  0.4157830000000 1.0
C      1  0.5892980000000  0.4417050000000  0.4622910000000 1.0
C      1  0.4503030000000  0.4481460000000  0.5014120000000 1.0
C      1  0.4962320000000  0.4028860000000  0.4604810000000 1.0
C      1  0.5525290000000  0.4399400000000  0.5533010000000 1.0
C      1  0.4293410000000  0.4090010000000  0.5060400000000 1.0
C      1  0.5282820000000  0.5291410000000  0.4433270000000 1.0
C      1  0.4146710000000  0.5617150000000  0.4897380000000 1.0
C      1  0.5587300000000  0.4856110000000  0.5390440000000 1.0
C      1  0.5277990000000  0.5453620000000  0.4951370000000 1.0
C      1  0.5610710000000  0.4099440000000  0.4861580000000 1.0
C      1  0.4751270000000  0.5701330000000  0.4175440000000 1.0
C      1  0.4406500000000  0.4788540000000  0.5990120000000 1.0
C      1  0.4107380000000  0.4674350000000  0.4756660000000 1.0
C      1  0.4952010000000  0.5775640000000  0.5453720000000 1.0
C      1  0.4978330000000  0.5394800000000  0.4456400000000 1.0
C      1  0.5334010000000  0.5532590000000  0.5817530000000 1.0
C      1  0.5083570000000  0.4775940000000  0.4361110000000 1.0
C      1  0.5553240000000  0.5039140000000  0.5620100000000 1.0
C      1  0.4723170000000  0.4662550000000  0.5613910000000 1.0
C      1  0.4784940000000  0.3993430000000  0.5028650000000 1.0
C      1  0.4986410000000  0.5265470000000  0.5279260000000 1.0
C      1  0.4356490000000  0.4885410000000  0.4395970000000 1.0
C      1  0.4315470000000  0.4129710000000  0.4762820000000 1.0
C      1  0.4868520000000  0.5762840000000  0.5744690000000 1.0
C      1  0.4005610000000  0.4526860000000  0.5209860000000 1.0
C      1  0.5455980000000  0.4207660000000  0.5080920000000 1.0
C      1  0.5688400000000  0.5009750000000  0.4092260000000 1.0
C      1  0.5335090000000  0.6022110000000  0.4665730000000 1.0
C      1  0.5322830000000  0.5570350000000  0.4093950000000 1.0
C      1  0.4826880000000  0.5507340000000  0.5344820000000 1.0
C      1  0.5096330000000  0.4244290000000  0.5667620000000 1.0
C      1  0.5185780000000  0.4452690000000  0.5849290000000 1.0
C      1  0.5629500000000  0.4565160000000  0.4110590000000 1.0
C      1  0.5002750000000  0.6112250000000  0.5097570000000 1.0
C      1  0.4691380000000  0.4371680000000  0.4759660000000 1.0
C      1  0.5444940000000  0.5929070000000  0.4935090000000 1.0
C      1  0.3931470000000  0.4693540000000  0.4981670000000 1.0
C      1  0.5254740000000  0.4061020000000  0.5227560000000 1.0
C      1  0.5215630000000  0.5107960000000  0.4099730000000 1.0
C      1  0.4601520000000  0.4772130000000  0.4523700000000 1.0
C      1  0.5912990000000  0.5403680000000  0.4710790000000 1.0
C      1  0.5389870000000  0.5036560000000  0.6030500000000 1.0
C      1  0.5380760000000  0.4609390000000  0.5365840000000 1.0
C      1  0.3960540000000  0.5595510000000  0.5366320000000 1.0
C      1  0.5319700000000  0.4154220000000  0.5502010000000 1.0
C      1  0.5434790000000  0.5900630000000  0.4416550000000 1.0
C      1  0.4273050000000  0.4362320000000  0.5189920000000 1.0
END
