TITL C-951348-1603-47 1.14768371111528e-06 125000 -856.500431675425 0 0 136 (C1) n - 1
REM
REM in /home/bkarasulu/work/CARBON/AIRSS/Generating-Clusters/EDIP-Nigel-Params/with-SteepDescent/Only-C1/SD-CG/HFTN-CG
REM
REM
REM
REM
REM
REM ./C.cell (11c1c37f851c82e70ff6c80c92926a4b)
REM
REM compiler GCC version 9.2.1 20190827 (Red Hat 9.2.1-1)
REM options -cpp -mtune=generic -march=x86-64 -g -O0 -fpre-include=/usr/include/finclude/math-vector-fortran.h
REM seed 1383107140 207069028 -1853318557 1270748531 372975635 247179303 -1971418775 -201678579 1276005526 159434448 942848782 924083663 -143831177 1513030168 1562917840 -659230195 -2085800953 414250153 1399215714 385320797 459523075 324508598 -2122606329 642661836 -246274902 1006256582 2041491284 -914506640 -1628064273 -1333364280 -1547195039 1288526663 -445699618
REM
CELL 1.54180   50.00000   50.00000   50.00000   90.00000   90.00000   90.00000
LATT -1
SFAC C  
C      1  0.5863550000000  0.5054090000000  0.4812390000000 1.0
C      1  0.5027660000000  0.5481300000000  0.4193200000000 1.0
C      1  0.5347160000000  0.5534530000000  0.5230420000000 1.0
C      1  0.4831660000000  0.4313850000000  0.4428740000000 1.0
C      1  0.5015060000000  0.5191760000000  0.6004880000000 1.0
C      1  0.5409780000000  0.5606390000000  0.4612030000000 1.0
C      1  0.4512640000000  0.5695050000000  0.4694370000000 1.0
C      1  0.4013260000000  0.4758700000000  0.4840960000000 1.0
C      1  0.5045010000000  0.4871310000000  0.4558290000000 1.0
C      1  0.5139010000000  0.4551970000000  0.5850110000000 1.0
C      1  0.5727160000000  0.5202430000000  0.5522230000000 1.0
C      1  0.4457190000000  0.4606020000000  0.5630540000000 1.0
C      1  0.4331420000000  0.4862890000000  0.4422940000000 1.0
C      1  0.5005660000000  0.4573730000000  0.5164540000000 1.0
C      1  0.5410080000000  0.4177400000000  0.4923990000000 1.0
C      1  0.5786610000000  0.5319560000000  0.4725270000000 1.0
C      1  0.4792290000000  0.4981080000000  0.5409040000000 1.0
C      1  0.5064760000000  0.4066220000000  0.4768900000000 1.0
C      1  0.4071420000000  0.5221460000000  0.5020140000000 1.0
C      1  0.5044130000000  0.5076530000000  0.4365210000000 1.0
C      1  0.5609750000000  0.5763540000000  0.4772880000000 1.0
C      1  0.4640000000000  0.4776860000000  0.4024490000000 1.0
C      1  0.5036670000000  0.5400080000000  0.4805620000000 1.0
C      1  0.4806230000000  0.5464600000000  0.5252110000000 1.0
C      1  0.5462980000000  0.4798470000000  0.5166970000000 1.0
C      1  0.4882600000000  0.4235490000000  0.5677330000000 1.0
C      1  0.5466300000000  0.5296220000000  0.5091630000000 1.0
C      1  0.4288390000000  0.5097310000000  0.5459220000000 1.0
C      1  0.4321330000000  0.4343570000000  0.4707700000000 1.0
C      1  0.5761420000000  0.5280630000000  0.5215780000000 1.0
C      1  0.4582190000000  0.5042630000000  0.5898340000000 1.0
C      1  0.4987800000000  0.4056520000000  0.5202930000000 1.0
C      1  0.5846200000000  0.4878810000000  0.5514910000000 1.0
C      1  0.4349720000000  0.5581080000000  0.5270630000000 1.0
C      1  0.4705670000000  0.5746290000000  0.4496790000000 1.0
C      1  0.5815900000000  0.5577300000000  0.4869380000000 1.0
C      1  0.5154090000000  0.5774230000000  0.4597030000000 1.0
C      1  0.5346790000000  0.5327550000000  0.4781640000000 1.0
C      1  0.4782290000000  0.4766100000000  0.4619470000000 1.0
C      1  0.5270290000000  0.4647150000000  0.6085700000000 1.0
C      1  0.4218660000000  0.5119420000000  0.4302470000000 1.0
C      1  0.4597830000000  0.5211390000000  0.5384580000000 1.0
C      1  0.4191870000000  0.4852230000000  0.5301340000000 1.0
C      1  0.4832370000000  0.4071870000000  0.4952970000000 1.0
C      1  0.5905960000000  0.5045600000000  0.5091190000000 1.0
C      1  0.5271270000000  0.4144750000000  0.5197640000000 1.0
C      1  0.5086060000000  0.4395930000000  0.4252650000000 1.0
C      1  0.5457250000000  0.5358790000000  0.5909100000000 1.0
C      1  0.5152980000000  0.5931870000000  0.5333330000000 1.0
C      1  0.4804090000000  0.4471970000000  0.4697150000000 1.0
C      1  0.5315270000000  0.5368460000000  0.4170080000000 1.0
C      1  0.4429430000000  0.5326340000000  0.4301690000000 1.0
C      1  0.4804950000000  0.5303840000000  0.4067080000000 1.0
C      1  0.4989980000000  0.4975940000000  0.5628060000000 1.0
C      1  0.5481900000000  0.4589030000000  0.4281480000000 1.0
C      1  0.4791090000000  0.5740280000000  0.5084820000000 1.0
C      1  0.4843710000000  0.4950600000000  0.5974960000000 1.0
C      1  0.5415510000000  0.4803240000000  0.4860350000000 1.0
C      1  0.4115680000000  0.4503070000000  0.4804800000000 1.0
C      1  0.5345310000000  0.4329510000000  0.5430770000000 1.0
C      1  0.5368700000000  0.5060400000000  0.5245410000000 1.0
C      1  0.5250050000000  0.4602260000000  0.5337750000000 1.0
C      1  0.5434110000000  0.5098140000000  0.5528180000000 1.0
C      1  0.5641410000000  0.4417320000000  0.5457830000000 1.0
C      1  0.5230430000000  0.5770910000000  0.5585600000000 1.0
C      1  0.5099800000000  0.5449850000000  0.5407290000000 1.0
C      1  0.5668900000000  0.5735370000000  0.5323600000000 1.0
C      1  0.4742330000000  0.4511140000000  0.5594880000000 1.0
C      1  0.4188260000000  0.5336370000000  0.5271540000000 1.0
C      1  0.5310820000000  0.5154360000000  0.6036660000000 1.0
C      1  0.5176890000000  0.5236700000000  0.5625090000000 1.0
C      1  0.4398660000000  0.4882480000000  0.5734610000000 1.0
C      1  0.5061810000000  0.4436450000000  0.4874200000000 1.0
C      1  0.5671940000000  0.4854860000000  0.4685740000000 1.0
C      1  0.3937860000000  0.4915590000000  0.4622370000000 1.0
C      1  0.5490340000000  0.5928410000000  0.4965540000000 1.0
C      1  0.4441110000000  0.4664730000000  0.4220520000000 1.0
C      1  0.5441060000000  0.4841000000000  0.5694950000000 1.0
C      1  0.4555540000000  0.5264170000000  0.5039900000000 1.0
C      1  0.5340570000000  0.5061050000000  0.4240530000000 1.0
C      1  0.4616610000000  0.5317400000000  0.5815030000000 1.0
C      1  0.5300170000000  0.4561330000000  0.4742320000000 1.0
C      1  0.4542430000000  0.4959190000000  0.4616770000000 1.0
C      1  0.5178950000000  0.4729710000000  0.5612800000000 1.0
C      1  0.4836750000000  0.4067040000000  0.5443980000000 1.0
C      1  0.4595760000000  0.5253890000000  0.4541580000000 1.0
C      1  0.5548010000000  0.5692250000000  0.5584200000000 1.0
C      1  0.4171790000000  0.4936890000000  0.5016330000000 1.0
C      1  0.5513530000000  0.5504600000000  0.4344980000000 1.0
C      1  0.5049080000000  0.4488830000000  0.3975660000000 1.0
C      1  0.5410960000000  0.4875820000000  0.5989680000000 1.0
C      1  0.5235240000000  0.4683330000000  0.3897830000000 1.0
C      1  0.4324020000000  0.4591670000000  0.5359530000000 1.0
C      1  0.4961360000000  0.5726000000000  0.4381870000000 1.0
C      1  0.5846070000000  0.5562330000000  0.5169650000000 1.0
C      1  0.4460800000000  0.4976470000000  0.4919010000000 1.0
C      1  0.5572090000000  0.5026600000000  0.4435910000000 1.0
C      1  0.4030020000000  0.5169270000000  0.4530970000000 1.0
C      1  0.4535860000000  0.5824740000000  0.4949150000000 1.0
C      1  0.5180230000000  0.4287270000000  0.5714910000000 1.0
C      1  0.4975560000000  0.4042490000000  0.4491240000000 1.0
C      1  0.5222970000000  0.4127070000000  0.4339120000000 1.0
C      1  0.5430990000000  0.4155790000000  0.4539010000000 1.0
C      1  0.4859140000000  0.5919970000000  0.5312870000000 1.0
C      1  0.5777900000000  0.4486000000000  0.5200100000000 1.0
C      1  0.4340060000000  0.4348960000000  0.4422490000000 1.0
C      1  0.5651610000000  0.4385680000000  0.4949330000000 1.0
C      1  0.5739970000000  0.4526990000000  0.4692660000000 1.0
C      1  0.4577670000000  0.4312120000000  0.4279230000000 1.0
C      1  0.5199900000000  0.4991670000000  0.4782610000000 1.0
C      1  0.4808370000000  0.5010500000000  0.4072900000000 1.0
C      1  0.4495000000000  0.5623300000000  0.5518180000000 1.0
C      1  0.5793240000000  0.4797950000000  0.5226910000000 1.0
C      1  0.5263080000000  0.5789610000000  0.5084110000000 1.0
C      1  0.4547630000000  0.5406650000000  0.4060610000000 1.0
C      1  0.4872840000000  0.4858860000000  0.5151200000000 1.0
C      1  0.4788860000000  0.4568920000000  0.3916720000000 1.0
C      1  0.5489830000000  0.4446840000000  0.4537780000000 1.0
C      1  0.4773950000000  0.4425170000000  0.5301240000000 1.0
C      1  0.5686900000000  0.5291780000000  0.4455560000000 1.0
C      1  0.4576470000000  0.4333080000000  0.4873140000000 1.0
C      1  0.5392230000000  0.4788490000000  0.4102920000000 1.0
C      1  0.4532540000000  0.4511740000000  0.5138920000000 1.0
C      1  0.5679660000000  0.4664130000000  0.5635960000000 1.0
C      1  0.4147440000000  0.5343560000000  0.4756100000000 1.0
C      1  0.5008500000000  0.5063830000000  0.4992830000000 1.0
C      1  0.5641690000000  0.5443270000000  0.5713920000000 1.0
C      1  0.4903120000000  0.5320390000000  0.4525580000000 1.0
C      1  0.4452170000000  0.5409200000000  0.4760510000000 1.0
C      1  0.4303650000000  0.5795370000000  0.5099960000000 1.0
C      1  0.4876590000000  0.5431440000000  0.5877910000000 1.0
C      1  0.4625050000000  0.4771790000000  0.5033500000000 1.0
C      1  0.4745830000000  0.5782760000000  0.5552030000000 1.0
C      1  0.5035420000000  0.5715240000000  0.4880670000000 1.0
C      1  0.4957630000000  0.5689820000000  0.5741530000000 1.0
C      1  0.4402960000000  0.5468570000000  0.5731070000000 1.0
END
