TITL C-950525-1983-285 -8.15114744721677e-07 125000 -888.839878530959 0 0 142 (C1) n - 1
REM
REM in /home/bkarasulu/work/CARBON/AIRSS/Generating-Clusters/EDIP-Nigel-Params/with-SteepDescent/Only-C1/SD-CG/HFTN-CG
REM
REM
REM
REM
REM
REM ./C.cell (11c1c37f851c82e70ff6c80c92926a4b)
REM
REM compiler GCC version 9.2.1 20190827 (Red Hat 9.2.1-1)
REM options -cpp -mtune=generic -march=x86-64 -g -O0 -fpre-include=/usr/include/finclude/math-vector-fortran.h
REM seed -1024539038 1424699830 1775444146 893992166 -1713847877 2021790531 -335559959 1993792213 -680024552 -1551175080 1973142358 746139482 521621746 583406164 1780786232 1309255891 -1219318509 -245478738 1465409625 1145602364 -158704284 -581111156 161213382 1168897110 -1564553895 -947507685 1636995575 -879920947 -1420033126 -53932976 1210009091 -763921516 602630562
REM
CELL 1.54180   50.00000   50.00000   50.00000   90.00000   90.00000   90.00000
LATT -1
SFAC C  
C      1  0.5439010000000  0.4802020000000  0.5308550000000 1.0
C      1  0.5718750000000  0.4516290000000  0.4684710000000 1.0
C      1  0.4828540000000  0.5421390000000  0.5216160000000 1.0
C      1  0.5751510000000  0.5378460000000  0.5607320000000 1.0
C      1  0.5668760000000  0.4930300000000  0.5460920000000 1.0
C      1  0.4310730000000  0.4334350000000  0.5064800000000 1.0
C      1  0.4689890000000  0.4794210000000  0.5924810000000 1.0
C      1  0.5828360000000  0.5605560000000  0.5070430000000 1.0
C      1  0.5708850000000  0.5211540000000  0.5375950000000 1.0
C      1  0.5449420000000  0.5928180000000  0.4563950000000 1.0
C      1  0.4294030000000  0.5557730000000  0.4877630000000 1.0
C      1  0.5080520000000  0.3974170000000  0.5068180000000 1.0
C      1  0.5335850000000  0.4166170000000  0.5033340000000 1.0
C      1  0.4274450000000  0.5151080000000  0.4564240000000 1.0
C      1  0.4655400000000  0.4083030000000  0.5318440000000 1.0
C      1  0.5124670000000  0.4814470000000  0.4980080000000 1.0
C      1  0.4934540000000  0.4147860000000  0.4856110000000 1.0
C      1  0.5322410000000  0.4232930000000  0.5714950000000 1.0
C      1  0.4189480000000  0.4548670000000  0.5524120000000 1.0
C      1  0.4957570000000  0.3992050000000  0.5336220000000 1.0
C      1  0.5222830000000  0.5442300000000  0.4826000000000 1.0
C      1  0.5460670000000  0.4626290000000  0.4773320000000 1.0
C      1  0.4193250000000  0.5290570000000  0.4810540000000 1.0
C      1  0.5807530000000  0.4757830000000  0.4504000000000 1.0
C      1  0.4549750000000  0.5134460000000  0.4165650000000 1.0
C      1  0.4721170000000  0.5845960000000  0.4363990000000 1.0
C      1  0.4986800000000  0.5567480000000  0.4735620000000 1.0
C      1  0.4282710000000  0.4716620000000  0.4309010000000 1.0
C      1  0.5614440000000  0.4101160000000  0.5088250000000 1.0
C      1  0.4984040000000  0.4826970000000  0.5915490000000 1.0
C      1  0.4525980000000  0.4530550000000  0.4952090000000 1.0
C      1  0.5954920000000  0.5062590000000  0.4985290000000 1.0
C      1  0.4305700000000  0.5096920000000  0.5746140000000 1.0
C      1  0.5469840000000  0.4640080000000  0.5799240000000 1.0
C      1  0.4517450000000  0.4882560000000  0.4816650000000 1.0
C      1  0.5403430000000  0.5655710000000  0.4903110000000 1.0
C      1  0.4473600000000  0.4592720000000  0.5594900000000 1.0
C      1  0.5014290000000  0.4782340000000  0.4052280000000 1.0
C      1  0.5916280000000  0.4809140000000  0.5363650000000 1.0
C      1  0.5293820000000  0.4372470000000  0.4134680000000 1.0
C      1  0.5499810000000  0.4333790000000  0.4370120000000 1.0
C      1  0.5117430000000  0.5225320000000  0.5231500000000 1.0
C      1  0.5117910000000  0.4226960000000  0.5486810000000 1.0
C      1  0.5045260000000  0.6005140000000  0.5410940000000 1.0
C      1  0.5356940000000  0.5235840000000  0.4675310000000 1.0
C      1  0.5441250000000  0.5746930000000  0.5372800000000 1.0
C      1  0.4402410000000  0.5384620000000  0.5766660000000 1.0
C      1  0.5421840000000  0.4840000000000  0.4991640000000 1.0
C      1  0.5395370000000  0.5132710000000  0.5825040000000 1.0
C      1  0.5730360000000  0.5038580000000  0.4536140000000 1.0
C      1  0.4179580000000  0.4380530000000  0.5306250000000 1.0
C      1  0.5270150000000  0.5955520000000  0.5255030000000 1.0
C      1  0.5258140000000  0.5827400000000  0.4363060000000 1.0
C      1  0.4790610000000  0.4386670000000  0.4144160000000 1.0
C      1  0.4589310000000  0.4507910000000  0.5880270000000 1.0
C      1  0.5559580000000  0.4650640000000  0.4345010000000 1.0
C      1  0.5236170000000  0.5187190000000  0.3970300000000 1.0
C      1  0.5532850000000  0.4421100000000  0.5624590000000 1.0
C      1  0.4086540000000  0.4714780000000  0.4704730000000 1.0
C      1  0.5019590000000  0.4610530000000  0.5168470000000 1.0
C      1  0.5015000000000  0.5075820000000  0.4967650000000 1.0
C      1  0.5711690000000  0.4355540000000  0.5169760000000 1.0
C      1  0.4751550000000  0.4662910000000  0.4091210000000 1.0
C      1  0.5961520000000  0.5202360000000  0.5230520000000 1.0
C      1  0.4048450000000  0.4785560000000  0.5504070000000 1.0
C      1  0.5581220000000  0.4908830000000  0.5750960000000 1.0
C      1  0.4443110000000  0.5791790000000  0.5483960000000 1.0
C      1  0.4136170000000  0.5112830000000  0.5034780000000 1.0
C      1  0.4865880000000  0.5131650000000  0.4515380000000 1.0
C      1  0.5036160000000  0.4353400000000  0.4281170000000 1.0
C      1  0.5669940000000  0.5737430000000  0.4633470000000 1.0
C      1  0.4674220000000  0.4880890000000  0.4534750000000 1.0
C      1  0.4559580000000  0.4425000000000  0.4670540000000 1.0
C      1  0.5815420000000  0.5531550000000  0.4794810000000 1.0
C      1  0.4346080000000  0.5900150000000  0.5239000000000 1.0
C      1  0.4551820000000  0.4841440000000  0.4255550000000 1.0
C      1  0.5847270000000  0.4526810000000  0.4966510000000 1.0
C      1  0.5519360000000  0.5414810000000  0.4375820000000 1.0
C      1  0.4248350000000  0.5598180000000  0.5605990000000 1.0
C      1  0.4918990000000  0.5835320000000  0.5592900000000 1.0
C      1  0.5003520000000  0.5512340000000  0.5942830000000 1.0
C      1  0.4958080000000  0.5815690000000  0.4883430000000 1.0
C      1  0.5547070000000  0.5580670000000  0.5145870000000 1.0
C      1  0.5588870000000  0.5149860000000  0.4310320000000 1.0
C      1  0.4964050000000  0.4095370000000  0.4360310000000 1.0
C      1  0.5241610000000  0.4792180000000  0.4426440000000 1.0
C      1  0.4385950000000  0.5707110000000  0.4640900000000 1.0
C      1  0.4281610000000  0.4502580000000  0.4536180000000 1.0
C      1  0.4762630000000  0.5386790000000  0.4681140000000 1.0
C      1  0.4207210000000  0.5682010000000  0.5126660000000 1.0
C      1  0.4570110000000  0.5528230000000  0.4474610000000 1.0
C      1  0.4574420000000  0.5947250000000  0.4605980000000 1.0
C      1  0.4231310000000  0.5212800000000  0.5312560000000 1.0
C      1  0.4669690000000  0.4930570000000  0.5280060000000 1.0
C      1  0.5862940000000  0.5219050000000  0.4745050000000 1.0
C      1  0.5132780000000  0.4979660000000  0.5440110000000 1.0
C      1  0.4911820000000  0.4786900000000  0.5385770000000 1.0
C      1  0.5335690000000  0.5580060000000  0.4237750000000 1.0
C      1  0.4403240000000  0.5304910000000  0.4354620000000 1.0
C      1  0.4749720000000  0.5988350000000  0.4820760000000 1.0
C      1  0.4102210000000  0.5057340000000  0.5536550000000 1.0
C      1  0.5058660000000  0.4552270000000  0.4508810000000 1.0
C      1  0.5093330000000  0.4056350000000  0.4607620000000 1.0
C      1  0.4991910000000  0.5914590000000  0.4329940000000 1.0
C      1  0.5111480000000  0.5691120000000  0.5755450000000 1.0
C      1  0.4558470000000  0.5199230000000  0.5378430000000 1.0
C      1  0.5522810000000  0.5124690000000  0.4914680000000 1.0
C      1  0.5102150000000  0.5062500000000  0.5750550000000 1.0
C      1  0.5894510000000  0.4791570000000  0.5081180000000 1.0
C      1  0.4711890000000  0.5650700000000  0.5476670000000 1.0
C      1  0.4831810000000  0.5230740000000  0.4144230000000 1.0
C      1  0.5397820000000  0.4995400000000  0.4133500000000 1.0
C      1  0.4217450000000  0.4840460000000  0.4947650000000 1.0
C      1  0.5348770000000  0.4212620000000  0.4645860000000 1.0
C      1  0.5242250000000  0.4382310000000  0.5251670000000 1.0
C      1  0.4641580000000  0.4130860000000  0.4795660000000 1.0
C      1  0.5224600000000  0.4461000000000  0.4733110000000 1.0
C      1  0.4785710000000  0.4615410000000  0.4591050000000 1.0
C      1  0.4711110000000  0.5031440000000  0.4998560000000 1.0
C      1  0.5499770000000  0.4498220000000  0.5342300000000 1.0
C      1  0.4529690000000  0.4904330000000  0.5697290000000 1.0
C      1  0.5144000000000  0.5035650000000  0.4599920000000 1.0
C      1  0.5236810000000  0.5903920000000  0.4956390000000 1.0
C      1  0.5152710000000  0.5444410000000  0.4075190000000 1.0
C      1  0.4898480000000  0.4392700000000  0.5584960000000 1.0
C      1  0.4910590000000  0.5297310000000  0.5792610000000 1.0
C      1  0.5473380000000  0.5289690000000  0.5179880000000 1.0
C      1  0.4486330000000  0.4088300000000  0.5051830000000 1.0
C      1  0.4787160000000  0.4432240000000  0.5082740000000 1.0
C      1  0.5285520000000  0.4507690000000  0.5978960000000 1.0
C      1  0.4655550000000  0.5325090000000  0.4971800000000 1.0
C      1  0.5500610000000  0.5393360000000  0.5724470000000 1.0
C      1  0.4808810000000  0.4334370000000  0.5847200000000 1.0
C      1  0.4986720000000  0.5050810000000  0.3964260000000 1.0
C      1  0.5124730000000  0.4686850000000  0.6114660000000 1.0
C      1  0.5349240000000  0.6099170000000  0.4769620000000 1.0
C      1  0.4681330000000  0.4380200000000  0.5384170000000 1.0
C      1  0.4668110000000  0.5377330000000  0.5626130000000 1.0
C      1  0.5274310000000  0.4646870000000  0.4021200000000 1.0
C      1  0.4126600000000  0.4912270000000  0.4478790000000 1.0
C      1  0.5331520000000  0.5591980000000  0.5598360000000 1.0
C      1  0.4143000000000  0.5494610000000  0.5346340000000 1.0
END
