TITL C-950532-2784-440 2.08975429975254e-06 125000 -261.295937954853 0 0 44 (C1) n - 1
REM
REM in /home/bkarasulu/work/CARBON/AIRSS/Generating-Clusters/EDIP-Nigel-Params/with-SteepDescent/Only-C1/SD-CG/HFTN-CG
REM
REM
REM
REM
REM
REM ./C.cell (11c1c37f851c82e70ff6c80c92926a4b)
REM
REM compiler GCC version 9.2.1 20190827 (Red Hat 9.2.1-1)
REM options -cpp -mtune=generic -march=x86-64 -g -O0 -fpre-include=/usr/include/finclude/math-vector-fortran.h
REM seed -1725396117 497149205 -151479021 1562644501 -1783283231 693282305 1654361861 57660899 1547803747 720409452 1201642799 -654487233 958017582 1855703532 -1846393631 -1299221101 795175092 -127308354 1145012036 747586490 402010641 1935988182 -604703640 412260708 1317557793 -908778237 -1074337568 -1379832907 -1417241500 -1797364145 969903873 -1509598225 938535163
REM
CELL 1.54180   50.00000   50.00000   50.00000   90.00000   90.00000   90.00000
LATT -1
SFAC C  
C      1  0.4979750000000  0.5074020000000  0.4992060000000 1.0
C      1  0.4471910000000  0.4614810000000  0.5480700000000 1.0
C      1  0.5617760000000  0.5087440000000  0.4688840000000 1.0
C      1  0.5439210000000  0.4737990000000  0.5313870000000 1.0
C      1  0.4941700000000  0.4590500000000  0.4916070000000 1.0
C      1  0.5509120000000  0.4980930000000  0.5515550000000 1.0
C      1  0.4832320000000  0.4874510000000  0.4269000000000 1.0
C      1  0.4559770000000  0.4672600000000  0.4580150000000 1.0
C      1  0.5215500000000  0.5241410000000  0.5064530000000 1.0
C      1  0.5031640000000  0.5097190000000  0.5506990000000 1.0
C      1  0.5220610000000  0.4884720000000  0.5603620000000 1.0
C      1  0.4736310000000  0.4634200000000  0.4372170000000 1.0
C      1  0.4650600000000  0.4649830000000  0.4841000000000 1.0
C      1  0.4567230000000  0.5045570000000  0.5303420000000 1.0
C      1  0.4406560000000  0.5571800000000  0.5250170000000 1.0
C      1  0.5093470000000  0.5562630000000  0.5314210000000 1.0
C      1  0.5400670000000  0.4842220000000  0.5037080000000 1.0
C      1  0.5045490000000  0.4392620000000  0.4703170000000 1.0
C      1  0.4864020000000  0.4979450000000  0.5272690000000 1.0
C      1  0.5222250000000  0.4862600000000  0.4575760000000 1.0
C      1  0.5602110000000  0.5047060000000  0.4965410000000 1.0
C      1  0.4562180000000  0.5517090000000  0.5473090000000 1.0
C      1  0.5383890000000  0.5110180000000  0.4534110000000 1.0
C      1  0.4458850000000  0.4695350000000  0.5032960000000 1.0
C      1  0.4922080000000  0.4663380000000  0.5270110000000 1.0
C      1  0.5483160000000  0.5262510000000  0.5413390000000 1.0
C      1  0.5135240000000  0.4839420000000  0.4870810000000 1.0
C      1  0.4702490000000  0.5478950000000  0.4823140000000 1.0
C      1  0.5232060000000  0.5354670000000  0.4604760000000 1.0
C      1  0.4459900000000  0.5259460000000  0.5463970000000 1.0
C      1  0.4880200000000  0.5131380000000  0.4337010000000 1.0
C      1  0.5328580000000  0.5467690000000  0.4875510000000 1.0
C      1  0.4933320000000  0.5318670000000  0.4549620000000 1.0
C      1  0.4403680000000  0.4804360000000  0.5281570000000 1.0
C      1  0.5369340000000  0.4627860000000  0.4514180000000 1.0
C      1  0.4915220000000  0.4436150000000  0.4456840000000 1.0
C      1  0.4797480000000  0.5212640000000  0.4798040000000 1.0
C      1  0.5589350000000  0.5302070000000  0.5118990000000 1.0
C      1  0.5172640000000  0.4629980000000  0.5426980000000 1.0
C      1  0.5193460000000  0.5353900000000  0.5484540000000 1.0
C      1  0.4504230000000  0.5552060000000  0.4995230000000 1.0
C      1  0.5125960000000  0.5617650000000  0.5040830000000 1.0
C      1  0.5322960000000  0.4401280000000  0.4659510000000 1.0
C      1  0.4715700000000  0.4519190000000  0.5408350000000 1.0
END
