TITL C-951337-3020-304 -7.69313697201846e-06 125000 -990.514235518306 0 0 160 (C1) n - 1
REM
REM in /home/bkarasulu/work/CARBON/AIRSS/Generating-Clusters/EDIP-Nigel-Params/with-SteepDescent/Only-C1/SD-CG/HFTN-CG
REM
REM
REM
REM
REM
REM ./C.cell (11c1c37f851c82e70ff6c80c92926a4b)
REM
REM compiler GCC version 9.2.1 20190827 (Red Hat 9.2.1-1)
REM options -cpp -mtune=generic -march=x86-64 -g -O0 -fpre-include=/usr/include/finclude/math-vector-fortran.h
REM seed -1118510408 1543728542 -932078569 738956011 -1584271890 -175944434 -1312193894 1780504507 -1690882219 -230816004 -2084020503 817079051 -878638642 -1730458571 -475496474 1857527023 -424489283 1412642698 419402014 2058985548 -1252107430 464248929 1704339564 81926294 1249431113 -721929949 1820329435 -1647247579 455432335 -1771454557 1863958299 21437721 -1760010152
REM
CELL 1.54180   50.00000   50.00000   50.00000   90.00000   90.00000   90.00000
LATT -1
SFAC C  
C      1  0.4172420000000  0.5263790000000  0.4977860000000 1.0
C      1  0.4921370000000  0.4390190000000  0.4793730000000 1.0
C      1  0.5994120000000  0.5546960000000  0.4690300000000 1.0
C      1  0.6020770000000  0.5056960000000  0.4676670000000 1.0
C      1  0.4142910000000  0.5688940000000  0.5186050000000 1.0
C      1  0.5186770000000  0.4881400000000  0.3977170000000 1.0
C      1  0.4566430000000  0.4717790000000  0.5356380000000 1.0
C      1  0.4581470000000  0.5815150000000  0.4947470000000 1.0
C      1  0.5158450000000  0.5590820000000  0.5666030000000 1.0
C      1  0.4621400000000  0.4472920000000  0.4096160000000 1.0
C      1  0.5634220000000  0.4695120000000  0.5893170000000 1.0
C      1  0.4188790000000  0.4816520000000  0.5636730000000 1.0
C      1  0.5524230000000  0.5418340000000  0.4889780000000 1.0
C      1  0.5427320000000  0.4039160000000  0.4589460000000 1.0
C      1  0.4384890000000  0.4500730000000  0.4516160000000 1.0
C      1  0.4070550000000  0.4945110000000  0.5418130000000 1.0
C      1  0.4906660000000  0.5480200000000  0.5783480000000 1.0
C      1  0.5776930000000  0.5177160000000  0.5283600000000 1.0
C      1  0.4958250000000  0.5187500000000  0.5826820000000 1.0
C      1  0.4976730000000  0.4445430000000  0.5077420000000 1.0
C      1  0.5465360000000  0.4375600000000  0.4939270000000 1.0
C      1  0.5272700000000  0.4555240000000  0.5094300000000 1.0
C      1  0.4234980000000  0.4358260000000  0.5202940000000 1.0
C      1  0.5634090000000  0.4163260000000  0.5340490000000 1.0
C      1  0.5382850000000  0.4962580000000  0.4308020000000 1.0
C      1  0.5737600000000  0.4751520000000  0.5398430000000 1.0
C      1  0.5803280000000  0.5140960000000  0.4490750000000 1.0
C      1  0.5359980000000  0.5368920000000  0.5604550000000 1.0
C      1  0.5665450000000  0.5824740000000  0.5094740000000 1.0
C      1  0.4126830000000  0.5764130000000  0.4890440000000 1.0
C      1  0.5718640000000  0.4961260000000  0.5929780000000 1.0
C      1  0.5471600000000  0.4414130000000  0.4249860000000 1.0
C      1  0.4835320000000  0.5101940000000  0.4812050000000 1.0
C      1  0.4625400000000  0.5593920000000  0.4228370000000 1.0
C      1  0.5063860000000  0.4905620000000  0.5355990000000 1.0
C      1  0.4679920000000  0.4015820000000  0.5193600000000 1.0
C      1  0.4169020000000  0.5300210000000  0.4343940000000 1.0
C      1  0.5006430000000  0.5038480000000  0.6089030000000 1.0
C      1  0.5747330000000  0.4679390000000  0.4310640000000 1.0
C      1  0.4031090000000  0.4555500000000  0.5094040000000 1.0
C      1  0.5325010000000  0.4611510000000  0.5956430000000 1.0
C      1  0.5175840000000  0.3945250000000  0.5568830000000 1.0
C      1  0.4730770000000  0.4814610000000  0.4862810000000 1.0
C      1  0.4930100000000  0.5706960000000  0.5078790000000 1.0
C      1  0.5325020000000  0.4347230000000  0.5773810000000 1.0
C      1  0.5265040000000  0.4704320000000  0.4635210000000 1.0
C      1  0.4760650000000  0.5501860000000  0.5209440000000 1.0
C      1  0.4050260000000  0.4998370000000  0.4914980000000 1.0
C      1  0.4759590000000  0.5965830000000  0.5522400000000 1.0
C      1  0.4815260000000  0.5237900000000  0.3953580000000 1.0
C      1  0.5695080000000  0.4601010000000  0.4581330000000 1.0
C      1  0.5298900000000  0.5055300000000  0.5278340000000 1.0
C      1  0.4769580000000  0.5180430000000  0.4534980000000 1.0
C      1  0.4474180000000  0.5254690000000  0.5634210000000 1.0
C      1  0.6042470000000  0.4816360000000  0.4855130000000 1.0
C      1  0.4280420000000  0.4758580000000  0.4443930000000 1.0
C      1  0.4387640000000  0.4296850000000  0.4957020000000 1.0
C      1  0.4055100000000  0.4882720000000  0.4622430000000 1.0
C      1  0.4875900000000  0.4484840000000  0.3990070000000 1.0
C      1  0.4568280000000  0.5531920000000  0.4789480000000 1.0
C      1  0.5888660000000  0.4573150000000  0.4794850000000 1.0
C      1  0.5404760000000  0.5106910000000  0.4026560000000 1.0
C      1  0.5741230000000  0.5218030000000  0.5851490000000 1.0
C      1  0.4668320000000  0.5321580000000  0.4980550000000 1.0
C      1  0.5020080000000  0.5458530000000  0.3952970000000 1.0
C      1  0.5814040000000  0.5673960000000  0.5281240000000 1.0
C      1  0.4802110000000  0.4821590000000  0.6082090000000 1.0
C      1  0.5590090000000  0.4959560000000  0.4896730000000 1.0
C      1  0.5284120000000  0.4941550000000  0.5997410000000 1.0
C      1  0.4724120000000  0.5489020000000  0.4522330000000 1.0
C      1  0.4491210000000  0.5062590000000  0.5359420000000 1.0
C      1  0.5088010000000  0.5591320000000  0.4876430000000 1.0
C      1  0.4320400000000  0.4915660000000  0.5868480000000 1.0
C      1  0.5047170000000  0.4534750000000  0.4213530000000 1.0
C      1  0.5425450000000  0.4044110000000  0.5140560000000 1.0
C      1  0.4577090000000  0.4080770000000  0.4936880000000 1.0
C      1  0.5271680000000  0.5179520000000  0.4503530000000 1.0
C      1  0.4815900000000  0.4119080000000  0.4742960000000 1.0
C      1  0.4948460000000  0.5346680000000  0.5362750000000 1.0
C      1  0.6137980000000  0.4856350000000  0.5117030000000 1.0
C      1  0.4918040000000  0.6082120000000  0.4997800000000 1.0
C      1  0.4570250000000  0.5763130000000  0.5502520000000 1.0
C      1  0.4042890000000  0.5401350000000  0.5209080000000 1.0
C      1  0.4518030000000  0.4295150000000  0.5633550000000 1.0
C      1  0.5439480000000  0.4468980000000  0.4635090000000 1.0
C      1  0.5548910000000  0.5001270000000  0.5411590000000 1.0
C      1  0.5859230000000  0.4259930000000  0.5200640000000 1.0
C      1  0.4948240000000  0.4130240000000  0.5168840000000 1.0
C      1  0.5289450000000  0.5388080000000  0.4075070000000 1.0
C      1  0.5737260000000  0.4567780000000  0.5646010000000 1.0
C      1  0.4563140000000  0.5349210000000  0.4062780000000 1.0
C      1  0.5469320000000  0.5927520000000  0.5497000000000 1.0
C      1  0.4833940000000  0.5083790000000  0.5421790000000 1.0
C      1  0.4644790000000  0.5510680000000  0.5637710000000 1.0
C      1  0.3993110000000  0.5123050000000  0.4472350000000 1.0
C      1  0.5726630000000  0.5210280000000  0.4973800000000 1.0
C      1  0.4393160000000  0.4888580000000  0.4205870000000 1.0
C      1  0.4809790000000  0.5875600000000  0.4501070000000 1.0
C      1  0.4877670000000  0.5695180000000  0.4089390000000 1.0
C      1  0.4790410000000  0.4609570000000  0.4643710000000 1.0
C      1  0.5025410000000  0.6042410000000  0.5484670000000 1.0
C      1  0.4017340000000  0.4544660000000  0.4803560000000 1.0
C      1  0.5105300000000  0.4162840000000  0.5723980000000 1.0
C      1  0.4427120000000  0.5815770000000  0.4481520000000 1.0
C      1  0.4979530000000  0.6011790000000  0.4720690000000 1.0
C      1  0.5526040000000  0.4374450000000  0.5545910000000 1.0
C      1  0.5178920000000  0.3997870000000  0.5297130000000 1.0
C      1  0.4835800000000  0.4173650000000  0.5824360000000 1.0
C      1  0.5189380000000  0.5803060000000  0.4716940000000 1.0
C      1  0.4891110000000  0.4971410000000  0.4069180000000 1.0
C      1  0.5133370000000  0.6068800000000  0.5208440000000 1.0
C      1  0.5233520000000  0.5333910000000  0.5271210000000 1.0
C      1  0.5034560000000  0.3942270000000  0.4849610000000 1.0
C      1  0.5688970000000  0.4968500000000  0.4268280000000 1.0
C      1  0.5238740000000  0.5088400000000  0.5716670000000 1.0
C      1  0.4359240000000  0.5920480000000  0.4767370000000 1.0
C      1  0.5325770000000  0.4157520000000  0.4355850000000 1.0
C      1  0.4621080000000  0.4380960000000  0.4377190000000 1.0
C      1  0.5010030000000  0.4717940000000  0.4465450000000 1.0
C      1  0.4946900000000  0.5004590000000  0.4367810000000 1.0
C      1  0.5322600000000  0.3975640000000  0.4843690000000 1.0
C      1  0.5982620000000  0.4938550000000  0.5333330000000 1.0
C      1  0.5272950000000  0.5731990000000  0.4436390000000 1.0
C      1  0.4181290000000  0.5501010000000  0.4760380000000 1.0
C      1  0.4085940000000  0.4832040000000  0.5150870000000 1.0
C      1  0.4227460000000  0.5185730000000  0.5919880000000 1.0
C      1  0.4768590000000  0.4673850000000  0.5124270000000 1.0
C      1  0.4618020000000  0.4906550000000  0.5853190000000 1.0
C      1  0.5022710000000  0.5852950000000  0.4289640000000 1.0
C      1  0.4237980000000  0.4378690000000  0.4727390000000 1.0
C      1  0.4782860000000  0.4124830000000  0.4442230000000 1.0
C      1  0.4388970000000  0.4475460000000  0.5438910000000 1.0
C      1  0.5822620000000  0.5436140000000  0.5432840000000 1.0
C      1  0.6017860000000  0.5296580000000  0.4849050000000 1.0
C      1  0.5379430000000  0.4593100000000  0.5382940000000 1.0
C      1  0.5654600000000  0.5417240000000  0.5674850000000 1.0
C      1  0.5740590000000  0.5794230000000  0.4805890000000 1.0
C      1  0.5155930000000  0.5128130000000  0.4804270000000 1.0
C      1  0.5295260000000  0.4593380000000  0.4085790000000 1.0
C      1  0.5179580000000  0.4735370000000  0.5562130000000 1.0
C      1  0.5794640000000  0.5439410000000  0.4483150000000 1.0
C      1  0.4362460000000  0.5172910000000  0.4178430000000 1.0
C      1  0.5250130000000  0.5370700000000  0.4963220000000 1.0
C      1  0.5224190000000  0.5878270000000  0.5628190000000 1.0
C      1  0.4633340000000  0.4361400000000  0.5889450000000 1.0
C      1  0.5266890000000  0.5440330000000  0.4362900000000 1.0
C      1  0.5044230000000  0.4111430000000  0.4326370000000 1.0
C      1  0.4619090000000  0.4777180000000  0.4044480000000 1.0
C      1  0.4942480000000  0.4567870000000  0.5982610000000 1.0
C      1  0.4441720000000  0.5186560000000  0.5087100000000 1.0
C      1  0.4260610000000  0.5545810000000  0.4475720000000 1.0
C      1  0.4107860000000  0.5340960000000  0.5712200000000 1.0
C      1  0.4957420000000  0.4577720000000  0.5679660000000 1.0
C      1  0.4444320000000  0.5730410000000  0.5227320000000 1.0
C      1  0.5748100000000  0.4437640000000  0.5013950000000 1.0
C      1  0.4090410000000  0.5234130000000  0.5445540000000 1.0
C      1  0.5425990000000  0.5963560000000  0.5218780000000 1.0
C      1  0.4731460000000  0.4761860000000  0.5613710000000 1.0
C      1  0.5311660000000  0.4871670000000  0.4877410000000 1.0
C      1  0.5570880000000  0.5592990000000  0.4645670000000 1.0
END
