TITL C-950521-2237-562 -5.47574159298332e-06 125000 -935.218482452221 0 0 151 (C1) n - 1
REM
REM in /home/bkarasulu/work/CARBON/AIRSS/Generating-Clusters/EDIP-Nigel-Params/with-SteepDescent/Only-C1/SD-CG/HFTN-CG
REM
REM
REM
REM
REM
REM ./C.cell (11c1c37f851c82e70ff6c80c92926a4b)
REM
REM compiler GCC version 9.2.1 20190827 (Red Hat 9.2.1-1)
REM options -cpp -mtune=generic -march=x86-64 -g -O0 -fpre-include=/usr/include/finclude/math-vector-fortran.h
REM seed 1326359784 -1425210918 -1939778789 -1727361550 1076970852 -425131647 1699082197 -1492289635 -2095689709 799095197 392769484 1923396835 -524526653 1796224089 -1237564808 1467053658 -374000767 -849376798 821201804 1934665034 412061846 662534334 1530324472 -820642485 89363735 -1790190562 1976162911 546838107 182801648 209538174 -1866631111 -1709533388 -893032519
REM
CELL 1.54180   50.00000   50.00000   50.00000   90.00000   90.00000   90.00000
LATT -1
SFAC C  
C      1  0.5490670000000  0.5895910000000  0.4969300000000 1.0
C      1  0.4475280000000  0.4934980000000  0.4114650000000 1.0
C      1  0.5385210000000  0.4389370000000  0.5566720000000 1.0
C      1  0.4405790000000  0.5401320000000  0.4231440000000 1.0
C      1  0.4482220000000  0.4243200000000  0.5600450000000 1.0
C      1  0.5290620000000  0.5770130000000  0.4600720000000 1.0
C      1  0.4052740000000  0.5372480000000  0.4575350000000 1.0
C      1  0.4949080000000  0.4766210000000  0.4127530000000 1.0
C      1  0.5033840000000  0.4245380000000  0.4501580000000 1.0
C      1  0.4646370000000  0.4955100000000  0.4989740000000 1.0
C      1  0.4230270000000  0.4415640000000  0.5603540000000 1.0
C      1  0.6131630000000  0.4965720000000  0.4883840000000 1.0
C      1  0.4588140000000  0.4516860000000  0.4340710000000 1.0
C      1  0.5430000000000  0.5278240000000  0.4435700000000 1.0
C      1  0.4196490000000  0.4737030000000  0.4791720000000 1.0
C      1  0.4537020000000  0.4127940000000  0.4629380000000 1.0
C      1  0.5352640000000  0.4439470000000  0.5070990000000 1.0
C      1  0.5525630000000  0.5096810000000  0.4830540000000 1.0
C      1  0.3993610000000  0.4978070000000  0.5304280000000 1.0
C      1  0.4163830000000  0.5249850000000  0.4334700000000 1.0
C      1  0.4637800000000  0.4089300000000  0.4903130000000 1.0
C      1  0.5936720000000  0.5078960000000  0.5609050000000 1.0
C      1  0.4894180000000  0.4241320000000  0.4920350000000 1.0
C      1  0.5541860000000  0.5702870000000  0.4445370000000 1.0
C      1  0.5294470000000  0.4819310000000  0.4439030000000 1.0
C      1  0.4281440000000  0.5780740000000  0.4870340000000 1.0
C      1  0.5570220000000  0.5371110000000  0.5179610000000 1.0
C      1  0.5110970000000  0.4011070000000  0.4943090000000 1.0
C      1  0.5306160000000  0.5065820000000  0.4250230000000 1.0
C      1  0.3960200000000  0.5301890000000  0.4945080000000 1.0
C      1  0.4568020000000  0.5215550000000  0.4044710000000 1.0
C      1  0.4789840000000  0.5405890000000  0.5309820000000 1.0
C      1  0.4974500000000  0.4960960000000  0.5327000000000 1.0
C      1  0.4982790000000  0.6036420000000  0.4996500000000 1.0
C      1  0.4756630000000  0.5761780000000  0.5709380000000 1.0
C      1  0.4828180000000  0.5607310000000  0.4874070000000 1.0
C      1  0.4137650000000  0.5630170000000  0.5324660000000 1.0
C      1  0.4488140000000  0.3990720000000  0.5120100000000 1.0
C      1  0.5097180000000  0.5412710000000  0.5208880000000 1.0
C      1  0.5191240000000  0.5468840000000  0.4573490000000 1.0
C      1  0.4544390000000  0.5927770000000  0.5249130000000 1.0
C      1  0.4371710000000  0.4987050000000  0.4862880000000 1.0
C      1  0.5117830000000  0.5595390000000  0.4964340000000 1.0
C      1  0.4602430000000  0.4566370000000  0.5413870000000 1.0
C      1  0.4756070000000  0.5140320000000  0.5442340000000 1.0
C      1  0.5630700000000  0.5689730000000  0.5693710000000 1.0
C      1  0.5901510000000  0.4807470000000  0.5670720000000 1.0
C      1  0.5655220000000  0.5469970000000  0.5860030000000 1.0
C      1  0.4367550000000  0.4624060000000  0.5217800000000 1.0
C      1  0.4359540000000  0.4490880000000  0.4875560000000 1.0
C      1  0.5309550000000  0.4709650000000  0.4932820000000 1.0
C      1  0.3940970000000  0.5449620000000  0.5209620000000 1.0
C      1  0.4304690000000  0.5792100000000  0.5161240000000 1.0
C      1  0.5067100000000  0.5130010000000  0.5095790000000 1.0
C      1  0.4835920000000  0.5160040000000  0.4912250000000 1.0
C      1  0.5164220000000  0.4557250000000  0.4117700000000 1.0
C      1  0.5941480000000  0.4661000000000  0.5136760000000 1.0
C      1  0.5480680000000  0.4561950000000  0.5317670000000 1.0
C      1  0.5215480000000  0.4082080000000  0.4677640000000 1.0
C      1  0.3932670000000  0.5252200000000  0.5425610000000 1.0
C      1  0.5454350000000  0.5503910000000  0.4219890000000 1.0
C      1  0.4759100000000  0.4824670000000  0.5847890000000 1.0
C      1  0.5782090000000  0.4657470000000  0.4152190000000 1.0
C      1  0.5396350000000  0.5346030000000  0.5961260000000 1.0
C      1  0.5201610000000  0.5828230000000  0.5635730000000 1.0
C      1  0.5884230000000  0.5319070000000  0.4623430000000 1.0
C      1  0.5210950000000  0.5866830000000  0.5024920000000 1.0
C      1  0.5015630000000  0.5691920000000  0.5785030000000 1.0
C      1  0.4585640000000  0.4131840000000  0.5342320000000 1.0
C      1  0.4289160000000  0.4477390000000  0.4401000000000 1.0
C      1  0.5468640000000  0.5397910000000  0.4864260000000 1.0
C      1  0.4887570000000  0.5786500000000  0.4415400000000 1.0
C      1  0.5031060000000  0.4707160000000  0.5849010000000 1.0
C      1  0.5512210000000  0.4989880000000  0.4045790000000 1.0
C      1  0.5319280000000  0.5195230000000  0.5608110000000 1.0
C      1  0.4682620000000  0.5691450000000  0.4620250000000 1.0
C      1  0.4299560000000  0.4934850000000  0.5250970000000 1.0
C      1  0.5854940000000  0.4447170000000  0.5327850000000 1.0
C      1  0.4291330000000  0.4649230000000  0.5755900000000 1.0
C      1  0.5513620000000  0.4337320000000  0.4432740000000 1.0
C      1  0.4691650000000  0.5399220000000  0.5017840000000 1.0
C      1  0.5105150000000  0.5439180000000  0.5906300000000 1.0
C      1  0.5103100000000  0.5953390000000  0.4484540000000 1.0
C      1  0.5604410000000  0.5065620000000  0.5121850000000 1.0
C      1  0.4869440000000  0.4302640000000  0.5642740000000 1.0
C      1  0.4527480000000  0.5912450000000  0.4762840000000 1.0
C      1  0.5479920000000  0.4828120000000  0.4698820000000 1.0
C      1  0.5417030000000  0.5052220000000  0.5892070000000 1.0
C      1  0.5278680000000  0.4015210000000  0.5173450000000 1.0
C      1  0.5465760000000  0.4678150000000  0.4113460000000 1.0
C      1  0.5040240000000  0.5041930000000  0.4102910000000 1.0
C      1  0.4639410000000  0.5902630000000  0.5510980000000 1.0
C      1  0.5098050000000  0.4466860000000  0.5690640000000 1.0
C      1  0.4550810000000  0.5397220000000  0.4496550000000 1.0
C      1  0.4866990000000  0.4171950000000  0.5393590000000 1.0
C      1  0.4460930000000  0.5202860000000  0.5938220000000 1.0
C      1  0.5600110000000  0.4433300000000  0.5754810000000 1.0
C      1  0.4330660000000  0.5187040000000  0.5694570000000 1.0
C      1  0.4290580000000  0.4295910000000  0.4640790000000 1.0
C      1  0.4791650000000  0.4705290000000  0.4988680000000 1.0
C      1  0.4872280000000  0.5265710000000  0.4017770000000 1.0
C      1  0.4300620000000  0.4972150000000  0.4363160000000 1.0
C      1  0.5413880000000  0.5696050000000  0.5521190000000 1.0
C      1  0.5229820000000  0.4952840000000  0.5468570000000 1.0
C      1  0.5790700000000  0.4974600000000  0.4167280000000 1.0
C      1  0.4663230000000  0.4698820000000  0.4106610000000 1.0
C      1  0.4862660000000  0.4626080000000  0.5265670000000 1.0
C      1  0.5594230000000  0.4310860000000  0.4931350000000 1.0
C      1  0.5974260000000  0.4708510000000  0.4828710000000 1.0
C      1  0.4694590000000  0.6009390000000  0.5005950000000 1.0
C      1  0.5460100000000  0.4123280000000  0.5363260000000 1.0
C      1  0.4814630000000  0.5278730000000  0.4403960000000 1.0
C      1  0.4916880000000  0.5266870000000  0.6016850000000 1.0
C      1  0.4932460000000  0.5117540000000  0.4623740000000 1.0
C      1  0.4475980000000  0.5021910000000  0.5498710000000 1.0
C      1  0.4161270000000  0.4730090000000  0.4485670000000 1.0
C      1  0.6044850000000  0.5139290000000  0.5339790000000 1.0
C      1  0.5733650000000  0.5744690000000  0.4934430000000 1.0
C      1  0.4997040000000  0.4353710000000  0.5197570000000 1.0
C      1  0.3868490000000  0.5021830000000  0.5026930000000 1.0
C      1  0.5844530000000  0.5281470000000  0.5777110000000 1.0
C      1  0.4993470000000  0.4834920000000  0.4565220000000 1.0
C      1  0.4653040000000  0.4519560000000  0.4801450000000 1.0
C      1  0.5230080000000  0.4393250000000  0.4352120000000 1.0
C      1  0.5804040000000  0.5571070000000  0.5173740000000 1.0
C      1  0.5687230000000  0.5554090000000  0.4692000000000 1.0
C      1  0.4682730000000  0.4727380000000  0.4549280000000 1.0
C      1  0.3906650000000  0.4613130000000  0.5215050000000 1.0
C      1  0.4128220000000  0.5365550000000  0.5604930000000 1.0
C      1  0.5038340000000  0.4740750000000  0.4838130000000 1.0
C      1  0.5168050000000  0.5505330000000  0.4109610000000 1.0
C      1  0.4737790000000  0.4265500000000  0.4450030000000 1.0
C      1  0.5767680000000  0.4756460000000  0.4610650000000 1.0
C      1  0.5755290000000  0.4527350000000  0.4413450000000 1.0
C      1  0.4138910000000  0.4472450000000  0.5319580000000 1.0
C      1  0.4216970000000  0.5519560000000  0.4755950000000 1.0
C      1  0.5761350000000  0.5076490000000  0.4458150000000 1.0
C      1  0.6013120000000  0.5362650000000  0.5126200000000 1.0
C      1  0.4508740000000  0.5019080000000  0.4576570000000 1.0
C      1  0.5812150000000  0.4547800000000  0.5610960000000 1.0
C      1  0.4536990000000  0.4758860000000  0.5644940000000 1.0
C      1  0.5507570000000  0.4163500000000  0.4678910000000 1.0
C      1  0.5702690000000  0.4201090000000  0.5199970000000 1.0
C      1  0.5424610000000  0.4862380000000  0.5267470000000 1.0
C      1  0.4710220000000  0.5084260000000  0.5982150000000 1.0
C      1  0.5234510000000  0.4855960000000  0.5970030000000 1.0
C      1  0.5954780000000  0.5201070000000  0.4883060000000 1.0
C      1  0.5003750000000  0.5517950000000  0.4355890000000 1.0
C      1  0.5351610000000  0.5429050000000  0.5391980000000 1.0
C      1  0.3926780000000  0.4740800000000  0.4941210000000 1.0
C      1  0.6135520000000  0.4895660000000  0.5193140000000 1.0
END
