TITL C-950526-5686-147 -1.77567012014285e-06 125000 -1180.97761993649 0 0 189 (C1) n - 1
REM
REM in /home/bkarasulu/work/CARBON/AIRSS/Generating-Clusters/EDIP-Nigel-Params/with-SteepDescent/Only-C1/SD-CG/HFTN-CG
REM
REM
REM
REM
REM
REM ./C.cell (11c1c37f851c82e70ff6c80c92926a4b)
REM
REM compiler GCC version 9.2.1 20190827 (Red Hat 9.2.1-1)
REM options -cpp -mtune=generic -march=x86-64 -g -O0 -fpre-include=/usr/include/finclude/math-vector-fortran.h
REM seed 124840869 2111924801 -1996475219 293762917 1121794169 357932943 -1212081205 -192281960 1491428981 1161748304 1090156481 309817326 -542029834 966196184 -337989510 120945455 -798925652 1641080620 1696971844 -1548350090 -1409462304 1719728124 1388526403 -7872551 -1270634282 -1451690761 1213026024 927058215 -435347287 800162691 -843628325 -588844289 -1338445198
REM
CELL 1.54180   50.00000   50.00000   50.00000   90.00000   90.00000   90.00000
LATT -1
SFAC C  
C      1  0.5927730000000  0.4825310000000  0.4611470000000 1.0
C      1  0.5234520000000  0.5176210000000  0.4503210000000 1.0
C      1  0.5382240000000  0.4339320000000  0.4412430000000 1.0
C      1  0.5862980000000  0.5565210000000  0.5541170000000 1.0
C      1  0.4711150000000  0.5227360000000  0.3864940000000 1.0
C      1  0.5556010000000  0.4086860000000  0.5255100000000 1.0
C      1  0.4839060000000  0.4348500000000  0.5239370000000 1.0
C      1  0.5872870000000  0.4884190000000  0.5708170000000 1.0
C      1  0.5843640000000  0.4514980000000  0.5289420000000 1.0
C      1  0.5227870000000  0.4215660000000  0.4172140000000 1.0
C      1  0.4012800000000  0.4887220000000  0.5151150000000 1.0
C      1  0.4920650000000  0.4959350000000  0.4279090000000 1.0
C      1  0.4817670000000  0.4974530000000  0.5057470000000 1.0
C      1  0.4427900000000  0.4573100000000  0.5849600000000 1.0
C      1  0.5019700000000  0.5222140000000  0.4309560000000 1.0
C      1  0.5493670000000  0.4641690000000  0.4909080000000 1.0
C      1  0.5080000000000  0.5960780000000  0.4728720000000 1.0
C      1  0.4158090000000  0.4268050000000  0.5430830000000 1.0
C      1  0.4874850000000  0.3923490000000  0.5010570000000 1.0
C      1  0.5836560000000  0.5824400000000  0.4558770000000 1.0
C      1  0.3938230000000  0.4886940000000  0.4572080000000 1.0
C      1  0.6159930000000  0.5143220000000  0.4980380000000 1.0
C      1  0.5141180000000  0.5439970000000  0.5342080000000 1.0
C      1  0.4133390000000  0.5632470000000  0.4619820000000 1.0
C      1  0.5989760000000  0.5351830000000  0.4550080000000 1.0
C      1  0.4403750000000  0.5134000000000  0.5406670000000 1.0
C      1  0.4175120000000  0.4556540000000  0.5436240000000 1.0
C      1  0.5653970000000  0.5505460000000  0.4925860000000 1.0
C      1  0.5035740000000  0.5206890000000  0.6010080000000 1.0
C      1  0.5311040000000  0.5825750000000  0.5196850000000 1.0
C      1  0.4833120000000  0.5386300000000  0.5371620000000 1.0
C      1  0.5749160000000  0.4635630000000  0.5560540000000 1.0
C      1  0.4824790000000  0.4261100000000  0.5783550000000 1.0
C      1  0.4754410000000  0.5297290000000  0.5953570000000 1.0
C      1  0.4542950000000  0.4107410000000  0.4490790000000 1.0
C      1  0.5694330000000  0.5437590000000  0.5722410000000 1.0
C      1  0.5104380000000  0.5567270000000  0.5587790000000 1.0
C      1  0.5215020000000  0.5002330000000  0.4753580000000 1.0
C      1  0.5276540000000  0.5641790000000  0.5984790000000 1.0
C      1  0.3862800000000  0.4558660000000  0.4893120000000 1.0
C      1  0.4320580000000  0.4591880000000  0.4293500000000 1.0
C      1  0.5781210000000  0.5086520000000  0.5197050000000 1.0
C      1  0.4522260000000  0.5940310000000  0.5252110000000 1.0
C      1  0.4933670000000  0.4143200000000  0.4206520000000 1.0
C      1  0.4230620000000  0.4263760000000  0.4819080000000 1.0
C      1  0.5068710000000  0.5256720000000  0.4000490000000 1.0
C      1  0.4846060000000  0.5648080000000  0.5017740000000 1.0
C      1  0.4379030000000  0.5694360000000  0.5353100000000 1.0
C      1  0.4463060000000  0.4727870000000  0.4766710000000 1.0
C      1  0.4707990000000  0.5135490000000  0.5558320000000 1.0
C      1  0.4777570000000  0.5616990000000  0.4176230000000 1.0
C      1  0.5594210000000  0.5116750000000  0.5460080000000 1.0
C      1  0.5222590000000  0.4830890000000  0.5634180000000 1.0
C      1  0.4115210000000  0.4649510000000  0.4505630000000 1.0
C      1  0.5636170000000  0.5192330000000  0.4948660000000 1.0
C      1  0.4471940000000  0.5101250000000  0.3986430000000 1.0
C      1  0.5941210000000  0.4696890000000  0.5085130000000 1.0
C      1  0.5563160000000  0.5990630000000  0.5442910000000 1.0
C      1  0.4908640000000  0.5967820000000  0.5586680000000 1.0
C      1  0.4778880000000  0.4481920000000  0.4974200000000 1.0
C      1  0.4958120000000  0.5852050000000  0.4258310000000 1.0
C      1  0.5272330000000  0.4324550000000  0.5927130000000 1.0
C      1  0.5811750000000  0.4909460000000  0.4101490000000 1.0
C      1  0.6122170000000  0.4908690000000  0.5145160000000 1.0
C      1  0.5255480000000  0.5782480000000  0.4303180000000 1.0
C      1  0.5548920000000  0.5257760000000  0.5873840000000 1.0
C      1  0.4796210000000  0.5502300000000  0.3906620000000 1.0
C      1  0.4542470000000  0.5084100000000  0.5962140000000 1.0
C      1  0.5318530000000  0.5837380000000  0.4597650000000 1.0
C      1  0.4600100000000  0.3880230000000  0.5095170000000 1.0
C      1  0.5033920000000  0.5880750000000  0.5033980000000 1.0
C      1  0.3922930000000  0.4660770000000  0.5321560000000 1.0
C      1  0.3846810000000  0.5123410000000  0.5083290000000 1.0
C      1  0.4716590000000  0.4751630000000  0.4613910000000 1.0
C      1  0.4822620000000  0.3979130000000  0.4448980000000 1.0
C      1  0.5690500000000  0.5022850000000  0.4680100000000 1.0
C      1  0.4359880000000  0.5260440000000  0.4206810000000 1.0
C      1  0.5271370000000  0.4204410000000  0.5027140000000 1.0
C      1  0.4424330000000  0.5623510000000  0.5650360000000 1.0
C      1  0.4411090000000  0.4159770000000  0.5519470000000 1.0
C      1  0.5457550000000  0.4840030000000  0.4687100000000 1.0
C      1  0.4409440000000  0.4981430000000  0.4890600000000 1.0
C      1  0.4423120000000  0.3837860000000  0.4884440000000 1.0
C      1  0.5440630000000  0.5383270000000  0.4486200000000 1.0
C      1  0.5684800000000  0.4314360000000  0.5137710000000 1.0
C      1  0.4486990000000  0.4339330000000  0.4307260000000 1.0
C      1  0.5060070000000  0.4923280000000  0.6079690000000 1.0
C      1  0.5495020000000  0.4816420000000  0.5480950000000 1.0
C      1  0.5327710000000  0.5170410000000  0.4996030000000 1.0
C      1  0.5518600000000  0.5338910000000  0.4026250000000 1.0
C      1  0.5991770000000  0.5089180000000  0.5524500000000 1.0
C      1  0.4938510000000  0.4817340000000  0.4830600000000 1.0
C      1  0.5714520000000  0.5246730000000  0.4464990000000 1.0
C      1  0.6123500000000  0.5116260000000  0.4687430000000 1.0
C      1  0.5992100000000  0.5621360000000  0.4673370000000 1.0
C      1  0.5724970000000  0.4340280000000  0.4835160000000 1.0
C      1  0.4521100000000  0.3956530000000  0.5356490000000 1.0
C      1  0.6090100000000  0.5388440000000  0.5123330000000 1.0
C      1  0.4550380000000  0.5221400000000  0.4441930000000 1.0
C      1  0.5709970000000  0.6000200000000  0.4721440000000 1.0
C      1  0.5239840000000  0.4426660000000  0.3981390000000 1.0
C      1  0.4682220000000  0.5253270000000  0.5109830000000 1.0
C      1  0.4870580000000  0.4501500000000  0.4505250000000 1.0
C      1  0.4701260000000  0.5525830000000  0.5762500000000 1.0
C      1  0.3990220000000  0.5363270000000  0.5004080000000 1.0
C      1  0.4482800000000  0.6060850000000  0.4992650000000 1.0
C      1  0.5012480000000  0.4447610000000  0.5907810000000 1.0
C      1  0.5414060000000  0.5568490000000  0.4720240000000 1.0
C      1  0.5307240000000  0.4866010000000  0.6198300000000 1.0
C      1  0.4471780000000  0.4518860000000  0.4974620000000 1.0
C      1  0.5717680000000  0.5173650000000  0.4180570000000 1.0
C      1  0.3797770000000  0.4845160000000  0.4827100000000 1.0
C      1  0.5116250000000  0.3987760000000  0.5451850000000 1.0
C      1  0.6020040000000  0.5633110000000  0.4971900000000 1.0
C      1  0.4410140000000  0.5467390000000  0.4926580000000 1.0
C      1  0.5591480000000  0.4516500000000  0.6021970000000 1.0
C      1  0.4320340000000  0.4933470000000  0.5174670000000 1.0
C      1  0.5542800000000  0.4795070000000  0.6068280000000 1.0
C      1  0.5068340000000  0.5015700000000  0.5456130000000 1.0
C      1  0.5218330000000  0.5429740000000  0.4907580000000 1.0
C      1  0.5150540000000  0.4653380000000  0.5179610000000 1.0
C      1  0.5301950000000  0.5883080000000  0.5859780000000 1.0
C      1  0.4280060000000  0.6004310000000  0.4807930000000 1.0
C      1  0.4849640000000  0.4316510000000  0.4735020000000 1.0
C      1  0.4360540000000  0.5803660000000  0.4496720000000 1.0
C      1  0.5024050000000  0.4110490000000  0.5192170000000 1.0
C      1  0.5653180000000  0.4985080000000  0.5880960000000 1.0
C      1  0.4293100000000  0.5154440000000  0.5834360000000 1.0
C      1  0.4034690000000  0.5369750000000  0.4706710000000 1.0
C      1  0.4177860000000  0.4959000000000  0.5669470000000 1.0
C      1  0.5729580000000  0.5751900000000  0.5346910000000 1.0
C      1  0.4967100000000  0.4035820000000  0.4731720000000 1.0
C      1  0.5914550000000  0.5861930000000  0.5138500000000 1.0
C      1  0.4556740000000  0.4337850000000  0.5710350000000 1.0
C      1  0.5417110000000  0.4298890000000  0.5678510000000 1.0
C      1  0.5011810000000  0.4747910000000  0.5836200000000 1.0
C      1  0.4938010000000  0.5418630000000  0.4884590000000 1.0
C      1  0.5285350000000  0.5186850000000  0.5314830000000 1.0
C      1  0.4766260000000  0.4404190000000  0.4227480000000 1.0
C      1  0.4928520000000  0.4820870000000  0.5274080000000 1.0
C      1  0.4959420000000  0.4827830000000  0.4026580000000 1.0
C      1  0.5497690000000  0.6099700000000  0.5170670000000 1.0
C      1  0.3986960000000  0.4185510000000  0.5221520000000 1.0
C      1  0.4806970000000  0.5978970000000  0.5309650000000 1.0
C      1  0.4135490000000  0.5520050000000  0.5246290000000 1.0
C      1  0.4787340000000  0.5417390000000  0.4410600000000 1.0
C      1  0.4704820000000  0.4625540000000  0.5407620000000 1.0
C      1  0.5408760000000  0.4879620000000  0.3854280000000 1.0
C      1  0.4506090000000  0.4803520000000  0.4148600000000 1.0
C      1  0.5506710000000  0.4185470000000  0.4640470000000 1.0
C      1  0.4743610000000  0.5814230000000  0.5772090000000 1.0
C      1  0.4745750000000  0.4818200000000  0.5678810000000 1.0
C      1  0.4229210000000  0.5407370000000  0.5707220000000 1.0
C      1  0.4853410000000  0.5941570000000  0.4526440000000 1.0
C      1  0.3842760000000  0.4429500000000  0.5160320000000 1.0
C      1  0.5210770000000  0.4494750000000  0.4918290000000 1.0
C      1  0.4161440000000  0.5755010000000  0.4878870000000 1.0
C      1  0.4418330000000  0.4653950000000  0.5255250000000 1.0
C      1  0.4595640000000  0.5710710000000  0.4881600000000 1.0
C      1  0.4736020000000  0.4638420000000  0.4026370000000 1.0
C      1  0.5395240000000  0.4074710000000  0.5496600000000 1.0
C      1  0.5419670000000  0.4765330000000  0.5197300000000 1.0
C      1  0.6035660000000  0.5367090000000  0.5413540000000 1.0
C      1  0.5174950000000  0.4541200000000  0.4529810000000 1.0
C      1  0.5307980000000  0.4769750000000  0.4341740000000 1.0
C      1  0.5603270000000  0.4530430000000  0.4309320000000 1.0
C      1  0.4204770000000  0.4677910000000  0.5700220000000 1.0
C      1  0.5180350000000  0.5845020000000  0.5604320000000 1.0
C      1  0.5666260000000  0.4423510000000  0.5752980000000 1.0
C      1  0.4451180000000  0.5227830000000  0.4737680000000 1.0
C      1  0.5832600000000  0.4718440000000  0.4330130000000 1.0
C      1  0.5353790000000  0.5503110000000  0.4227020000000 1.0
C      1  0.5336380000000  0.5173240000000  0.3861830000000 1.0
C      1  0.5684870000000  0.4821220000000  0.3865950000000 1.0
C      1  0.5295520000000  0.5361580000000  0.5994190000000 1.0
C      1  0.4944900000000  0.4036170000000  0.5669110000000 1.0
C      1  0.5917510000000  0.4596910000000  0.4813990000000 1.0
C      1  0.4037300000000  0.4436520000000  0.4695080000000 1.0
C      1  0.5286760000000  0.4044390000000  0.4777620000000 1.0
C      1  0.5742620000000  0.6062670000000  0.4996000000000 1.0
C      1  0.3976090000000  0.5167120000000  0.4499070000000 1.0
C      1  0.4091210000000  0.5342670000000  0.5467010000000 1.0
C      1  0.4091140000000  0.5213100000000  0.4252040000000 1.0
C      1  0.4659600000000  0.4937620000000  0.4381770000000 1.0
C      1  0.5524620000000  0.5593240000000  0.5184160000000 1.0
C      1  0.4350710000000  0.4033910000000  0.4699880000000 1.0
C      1  0.4558950000000  0.4787750000000  0.6013070000000 1.0
C      1  0.5231780000000  0.4714200000000  0.4034580000000 1.0
C      1  0.4641530000000  0.5732930000000  0.4582600000000 1.0
END
