TITL C-951346-9544-221 -5.16409521532786e-06 125000 -1242.48532948034 0 0 197 (C1) n - 1
REM
REM in /home/bkarasulu/work/CARBON/AIRSS/Generating-Clusters/EDIP-Nigel-Params/with-SteepDescent/Only-C1/SD-CG/HFTN-CG
REM
REM
REM
REM
REM
REM ./C.cell (11c1c37f851c82e70ff6c80c92926a4b)
REM
REM compiler GCC version 9.2.1 20190827 (Red Hat 9.2.1-1)
REM options -cpp -mtune=generic -march=x86-64 -g -O0 -fpre-include=/usr/include/finclude/math-vector-fortran.h
REM seed -1237715906 1190047880 -1957162351 1205082600 62907534 1512017529 1727295262 -48242035 885116756 -1548296094 -1743616787 1378557662 -2041012987 -2122409454 879169639 1775807730 19546200 -406571763 -1599735460 907879582 -1733166656 1436462515 1808783109 421550809 1806392071 -2134548469 -1201792956 -710644190 -485106484 -1915869576 -296198079 2030262588 651140181
REM
CELL 1.54180   50.00000   50.00000   50.00000   90.00000   90.00000   90.00000
LATT -1
SFAC C  
C      1  0.5576850000000  0.4147520000000  0.5072390000000 1.0
C      1  0.5797800000000  0.5232160000000  0.4289210000000 1.0
C      1  0.5668310000000  0.5770260000000  0.5780810000000 1.0
C      1  0.4003730000000  0.5502920000000  0.5360030000000 1.0
C      1  0.4706500000000  0.4360560000000  0.4589260000000 1.0
C      1  0.4349700000000  0.4049090000000  0.5167820000000 1.0
C      1  0.4171910000000  0.5884330000000  0.4971400000000 1.0
C      1  0.5478890000000  0.3977420000000  0.4868410000000 1.0
C      1  0.4544110000000  0.5420850000000  0.5430760000000 1.0
C      1  0.5143870000000  0.5305310000000  0.5199540000000 1.0
C      1  0.5312790000000  0.5461040000000  0.5398970000000 1.0
C      1  0.4636810000000  0.4476620000000  0.5945510000000 1.0
C      1  0.5296880000000  0.4312730000000  0.4146670000000 1.0
C      1  0.5803250000000  0.5351390000000  0.6012740000000 1.0
C      1  0.5348720000000  0.5054250000000  0.5671120000000 1.0
C      1  0.5915290000000  0.5446160000000  0.5556430000000 1.0
C      1  0.4816310000000  0.5936120000000  0.4379310000000 1.0
C      1  0.4724240000000  0.5916850000000  0.5521140000000 1.0
C      1  0.4962810000000  0.4542480000000  0.4636060000000 1.0
C      1  0.5490440000000  0.5708650000000  0.4439170000000 1.0
C      1  0.5170670000000  0.6107030000000  0.4648830000000 1.0
C      1  0.5349140000000  0.4821370000000  0.4503330000000 1.0
C      1  0.4271440000000  0.4877250000000  0.4246320000000 1.0
C      1  0.5522110000000  0.4844010000000  0.5282240000000 1.0
C      1  0.4835490000000  0.4994140000000  0.5036290000000 1.0
C      1  0.5320240000000  0.3760850000000  0.4945270000000 1.0
C      1  0.5084150000000  0.4630180000000  0.4364170000000 1.0
C      1  0.4574660000000  0.4556050000000  0.4213940000000 1.0
C      1  0.4441330000000  0.4298040000000  0.5854930000000 1.0
C      1  0.5911960000000  0.4514970000000  0.4538570000000 1.0
C      1  0.4786240000000  0.5390520000000  0.5574020000000 1.0
C      1  0.5340820000000  0.4970510000000  0.6132570000000 1.0
C      1  0.4105160000000  0.4924260000000  0.5179430000000 1.0
C      1  0.4832820000000  0.4169420000000  0.4209040000000 1.0
C      1  0.4072940000000  0.4402590000000  0.4957080000000 1.0
C      1  0.4433440000000  0.4078380000000  0.4864040000000 1.0
C      1  0.5733370000000  0.4757050000000  0.4528810000000 1.0
C      1  0.4691720000000  0.4945800000000  0.3952530000000 1.0
C      1  0.5772410000000  0.4424220000000  0.5374210000000 1.0
C      1  0.5997420000000  0.4405050000000  0.4995940000000 1.0
C      1  0.5082190000000  0.5847850000000  0.4268840000000 1.0
C      1  0.5313460000000  0.5517240000000  0.4601150000000 1.0
C      1  0.4076480000000  0.4717150000000  0.4413390000000 1.0
C      1  0.5110920000000  0.4602420000000  0.5544420000000 1.0
C      1  0.5650040000000  0.5825250000000  0.5499270000000 1.0
C      1  0.5355480000000  0.5759960000000  0.5479930000000 1.0
C      1  0.4652980000000  0.4294970000000  0.4875780000000 1.0
C      1  0.5348160000000  0.4171980000000  0.4689920000000 1.0
C      1  0.4122350000000  0.5246420000000  0.4444580000000 1.0
C      1  0.5387440000000  0.5075360000000  0.4300560000000 1.0
C      1  0.6032500000000  0.5128460000000  0.5215830000000 1.0
C      1  0.4472520000000  0.4539050000000  0.4507670000000 1.0
C      1  0.6089090000000  0.4553470000000  0.4761490000000 1.0
C      1  0.4375410000000  0.4915870000000  0.5892670000000 1.0
C      1  0.5743690000000  0.4882660000000  0.4797890000000 1.0
C      1  0.4889950000000  0.5713810000000  0.4760790000000 1.0
C      1  0.5470350000000  0.5581890000000  0.4166410000000 1.0
C      1  0.5014750000000  0.5056030000000  0.5297150000000 1.0
C      1  0.4940240000000  0.3884150000000  0.4689420000000 1.0
C      1  0.4794440000000  0.6068840000000  0.5045370000000 1.0
C      1  0.4215010000000  0.5390100000000  0.5773590000000 1.0
C      1  0.5189630000000  0.4429220000000  0.5289560000000 1.0
C      1  0.4579270000000  0.5777430000000  0.5741110000000 1.0
C      1  0.4329610000000  0.5863560000000  0.5213960000000 1.0
C      1  0.4871980000000  0.5110580000000  0.5577720000000 1.0
C      1  0.4404350000000  0.5205910000000  0.5902280000000 1.0
C      1  0.6009060000000  0.5178570000000  0.5507720000000 1.0
C      1  0.4817310000000  0.4751450000000  0.5555430000000 1.0
C      1  0.4279340000000  0.5154850000000  0.4227450000000 1.0
C      1  0.4878470000000  0.6015210000000  0.4674610000000 1.0
C      1  0.5206480000000  0.3932300000000  0.5385490000000 1.0
C      1  0.5104820000000  0.4798510000000  0.6088120000000 1.0
C      1  0.6049090000000  0.5293350000000  0.4722200000000 1.0
C      1  0.4625720000000  0.4050250000000  0.4373600000000 1.0
C      1  0.5181230000000  0.4932140000000  0.3856560000000 1.0
C      1  0.5769200000000  0.5677000000000  0.4567620000000 1.0
C      1  0.4992490000000  0.5553700000000  0.4509740000000 1.0
C      1  0.3873660000000  0.5387080000000  0.4338460000000 1.0
C      1  0.5974110000000  0.4980200000000  0.5732770000000 1.0
C      1  0.5764070000000  0.5756120000000  0.4852610000000 1.0
C      1  0.5040610000000  0.3784140000000  0.4951710000000 1.0
C      1  0.3959280000000  0.5641560000000  0.4872150000000 1.0
C      1  0.5024490000000  0.5371040000000  0.4057130000000 1.0
C      1  0.4578080000000  0.4718570000000  0.5250070000000 1.0
C      1  0.5150100000000  0.5839590000000  0.5789890000000 1.0
C      1  0.6042000000000  0.4479740000000  0.5533490000000 1.0
C      1  0.5386100000000  0.4712580000000  0.3887170000000 1.0
C      1  0.5141200000000  0.4537630000000  0.5977820000000 1.0
C      1  0.4563060000000  0.4539420000000  0.5512210000000 1.0
C      1  0.4185610000000  0.4837920000000  0.5699210000000 1.0
C      1  0.4601380000000  0.5988260000000  0.5259490000000 1.0
C      1  0.5286750000000  0.5176270000000  0.4966730000000 1.0
C      1  0.4997630000000  0.5992080000000  0.5590770000000 1.0
C      1  0.6110060000000  0.4565140000000  0.5229670000000 1.0
C      1  0.4629510000000  0.5198500000000  0.3835660000000 1.0
C      1  0.5426180000000  0.4186340000000  0.5749110000000 1.0
C      1  0.4946000000000  0.4876660000000  0.4771130000000 1.0
C      1  0.5611240000000  0.4660250000000  0.5787120000000 1.0
C      1  0.4848900000000  0.4463530000000  0.4154920000000 1.0
C      1  0.4938200000000  0.4517010000000  0.3873230000000 1.0
C      1  0.4863060000000  0.5038900000000  0.4528680000000 1.0
C      1  0.4365890000000  0.5602620000000  0.5608740000000 1.0
C      1  0.4207620000000  0.4399980000000  0.5467410000000 1.0
C      1  0.5724300000000  0.5482950000000  0.5772540000000 1.0
C      1  0.5692910000000  0.4401370000000  0.4958150000000 1.0
C      1  0.5801210000000  0.4927330000000  0.4279540000000 1.0
C      1  0.5601790000000  0.5335510000000  0.4106420000000 1.0
C      1  0.4297890000000  0.5430900000000  0.4575170000000 1.0
C      1  0.4836550000000  0.4901690000000  0.6091640000000 1.0
C      1  0.4607430000000  0.5633160000000  0.4848460000000 1.0
C      1  0.4548800000000  0.5364300000000  0.4707240000000 1.0
C      1  0.5202440000000  0.5378460000000  0.5959830000000 1.0
C      1  0.5994950000000  0.4683680000000  0.5740790000000 1.0
C      1  0.4206350000000  0.5707910000000  0.4579850000000 1.0
C      1  0.5571010000000  0.4352930000000  0.4577310000000 1.0
C      1  0.5108630000000  0.4114960000000  0.4263770000000 1.0
C      1  0.5444360000000  0.5246790000000  0.4559670000000 1.0
C      1  0.3958750000000  0.5592870000000  0.4171990000000 1.0
C      1  0.5182840000000  0.5607660000000  0.4111440000000 1.0
C      1  0.4969640000000  0.4912570000000  0.4294860000000 1.0
C      1  0.4308920000000  0.5848370000000  0.4337330000000 1.0
C      1  0.5878170000000  0.5591120000000  0.5066060000000 1.0
C      1  0.4162950000000  0.4274180000000  0.5211890000000 1.0
C      1  0.5185110000000  0.5990330000000  0.5369090000000 1.0
C      1  0.5138750000000  0.4371030000000  0.4830850000000 1.0
C      1  0.5359440000000  0.5596920000000  0.4899620000000 1.0
C      1  0.5508700000000  0.5277980000000  0.5525590000000 1.0
C      1  0.5077290000000  0.5137180000000  0.5813590000000 1.0
C      1  0.5609450000000  0.4185270000000  0.5511630000000 1.0
C      1  0.5229150000000  0.4454410000000  0.3892080000000 1.0
C      1  0.4387860000000  0.5838970000000  0.4774460000000 1.0
C      1  0.6019580000000  0.5349330000000  0.5002200000000 1.0
C      1  0.4911980000000  0.4806890000000  0.3804290000000 1.0
C      1  0.4213660000000  0.4386710000000  0.4488110000000 1.0
C      1  0.3976110000000  0.4823650000000  0.4676720000000 1.0
C      1  0.6036260000000  0.4829790000000  0.4855510000000 1.0
C      1  0.4651530000000  0.3923100000000  0.4628160000000 1.0
C      1  0.5312640000000  0.5970080000000  0.4422450000000 1.0
C      1  0.4423740000000  0.4700470000000  0.4785070000000 1.0
C      1  0.5167610000000  0.4041000000000  0.5668620000000 1.0
C      1  0.4918660000000  0.4205520000000  0.4988060000000 1.0
C      1  0.5793460000000  0.5078580000000  0.5943870000000 1.0
C      1  0.4973060000000  0.3899970000000  0.5208270000000 1.0
C      1  0.5391660000000  0.4460540000000  0.5849630000000 1.0
C      1  0.4550340000000  0.5286530000000  0.4199240000000 1.0
C      1  0.5827760000000  0.5633930000000  0.5351370000000 1.0
C      1  0.4404290000000  0.4964700000000  0.5210940000000 1.0
C      1  0.4729860000000  0.4279650000000  0.5464190000000 1.0
C      1  0.5136260000000  0.5088430000000  0.4114850000000 1.0
C      1  0.4509930000000  0.4048210000000  0.5430800000000 1.0
C      1  0.4760690000000  0.5543310000000  0.5835230000000 1.0
C      1  0.5919110000000  0.5423730000000  0.4497960000000 1.0
C      1  0.5253440000000  0.4565600000000  0.5030410000000 1.0
C      1  0.4037150000000  0.5278380000000  0.5560190000000 1.0
C      1  0.4565940000000  0.5134250000000  0.5020110000000 1.0
C      1  0.4477640000000  0.4777050000000  0.4069190000000 1.0
C      1  0.5248590000000  0.4870830000000  0.5433670000000 1.0
C      1  0.4916350000000  0.4339590000000  0.5239400000000 1.0
C      1  0.4575880000000  0.4564100000000  0.4989700000000 1.0
C      1  0.4620880000000  0.4766820000000  0.5949850000000 1.0
C      1  0.4839040000000  0.5179400000000  0.6118670000000 1.0
C      1  0.3802380000000  0.5377260000000  0.4635940000000 1.0
C      1  0.5289510000000  0.5246680000000  0.6199800000000 1.0
C      1  0.3956030000000  0.5148610000000  0.5033790000000 1.0
C      1  0.5548270000000  0.5935170000000  0.4921590000000 1.0
C      1  0.5641600000000  0.4664070000000  0.5478560000000 1.0
C      1  0.5033700000000  0.5621630000000  0.5938870000000 1.0
C      1  0.4907520000000  0.4365300000000  0.5940200000000 1.0
C      1  0.5299470000000  0.6092220000000  0.4912220000000 1.0
C      1  0.4059780000000  0.4985140000000  0.5490430000000 1.0
C      1  0.4137310000000  0.4701070000000  0.4902370000000 1.0
C      1  0.4591950000000  0.5769980000000  0.4302480000000 1.0
C      1  0.5529850000000  0.4936270000000  0.5895880000000 1.0
C      1  0.4750960000000  0.5311880000000  0.4479970000000 1.0
C      1  0.4518140000000  0.5579140000000  0.4067380000000 1.0
C      1  0.4176050000000  0.5740650000000  0.5429990000000 1.0
C      1  0.5164630000000  0.4000300000000  0.4523060000000 1.0
C      1  0.3990650000000  0.5429790000000  0.5083470000000 1.0
C      1  0.4179020000000  0.4226290000000  0.4738330000000 1.0
C      1  0.5556440000000  0.4714630000000  0.4137500000000 1.0
C      1  0.4630490000000  0.5347360000000  0.6025570000000 1.0
C      1  0.5083010000000  0.5973030000000  0.5090670000000 1.0
C      1  0.4200360000000  0.5712000000000  0.4097680000000 1.0
C      1  0.4965850000000  0.4262860000000  0.5673620000000 1.0
C      1  0.5084260000000  0.5688940000000  0.4992160000000 1.0
C      1  0.4322490000000  0.4188880000000  0.5627950000000 1.0
C      1  0.5681430000000  0.5180970000000  0.4767580000000 1.0
C      1  0.5644150000000  0.5137020000000  0.5277390000000 1.0
C      1  0.6102780000000  0.4853990000000  0.5134230000000 1.0
C      1  0.5551370000000  0.5298050000000  0.5016010000000 1.0
C      1  0.3878150000000  0.5101360000000  0.4762670000000 1.0
C      1  0.5490250000000  0.4462950000000  0.4301270000000 1.0
C      1  0.4574770000000  0.5404760000000  0.5143570000000 1.0
C      1  0.5389830000000  0.4167930000000  0.5305380000000 1.0
C      1  0.5530250000000  0.4686680000000  0.5007400000000 1.0
C      1  0.5237210000000  0.4930800000000  0.4785160000000 1.0
C      1  0.4804340000000  0.5418920000000  0.3877290000000 1.0
END
