TITL C-951346-9544-317 -1.24059209999197e-06 125000 -1035.17869242035 0 0 167 (C1) n - 1
REM
REM in /home/bkarasulu/work/CARBON/AIRSS/Generating-Clusters/EDIP-Nigel-Params/with-SteepDescent/Only-C1/SD-CG/HFTN-CG
REM
REM
REM
REM
REM
REM ./C.cell (11c1c37f851c82e70ff6c80c92926a4b)
REM
REM compiler GCC version 9.2.1 20190827 (Red Hat 9.2.1-1)
REM options -cpp -mtune=generic -march=x86-64 -g -O0 -fpre-include=/usr/include/finclude/math-vector-fortran.h
REM seed 1167864969 1607338776 1619758123 1389587281 -1716127867 -407818909 590207953 411367738 1839662091 -2041759280 -1324730605 -684409089 1372370251 -529449714 -2043722020 1645882815 1722916641 772773074 1963877375 -1061725605 -689471060 -1922148412 45050843 794026818 1804770089 1542840352 2039531657 512820042 1888540573 -1245394116 -1954796634 -1449245988 536102241
REM
CELL 1.54180   50.00000   50.00000   50.00000   90.00000   90.00000   90.00000
LATT -1
SFAC C  
C      1  0.4303090000000  0.5087620000000  0.5678290000000 1.0
C      1  0.4478070000000  0.5441620000000  0.4210930000000 1.0
C      1  0.5072260000000  0.4555480000000  0.5521220000000 1.0
C      1  0.4567710000000  0.5645060000000  0.4644290000000 1.0
C      1  0.5601520000000  0.4816760000000  0.4693130000000 1.0
C      1  0.4990520000000  0.3977070000000  0.4905760000000 1.0
C      1  0.4819280000000  0.4553970000000  0.4787440000000 1.0
C      1  0.4946150000000  0.4105650000000  0.5544080000000 1.0
C      1  0.5454790000000  0.5049230000000  0.3996660000000 1.0
C      1  0.5874960000000  0.4547020000000  0.5526080000000 1.0
C      1  0.4680430000000  0.5428050000000  0.4446540000000 1.0
C      1  0.4355170000000  0.5092500000000  0.4510570000000 1.0
C      1  0.4621490000000  0.4999990000000  0.4021210000000 1.0
C      1  0.4266450000000  0.4149860000000  0.5116170000000 1.0
C      1  0.5821190000000  0.4755490000000  0.5950330000000 1.0
C      1  0.5036270000000  0.6116680000000  0.5216140000000 1.0
C      1  0.4524910000000  0.4922740000000  0.5214030000000 1.0
C      1  0.4297250000000  0.4601710000000  0.5682420000000 1.0
C      1  0.5446290000000  0.4548460000000  0.4746890000000 1.0
C      1  0.5201220000000  0.4859560000000  0.5909020000000 1.0
C      1  0.5799970000000  0.5267020000000  0.5726610000000 1.0
C      1  0.5062730000000  0.5526510000000  0.4800680000000 1.0
C      1  0.4763980000000  0.4935140000000  0.4299280000000 1.0
C      1  0.5231410000000  0.5884460000000  0.5229010000000 1.0
C      1  0.5955250000000  0.5296580000000  0.5146940000000 1.0
C      1  0.5184460000000  0.4895100000000  0.4069140000000 1.0
C      1  0.5497090000000  0.5867980000000  0.5361530000000 1.0
C      1  0.5469520000000  0.4070130000000  0.5027360000000 1.0
C      1  0.4145350000000  0.5535460000000  0.4560130000000 1.0
C      1  0.4108480000000  0.5488930000000  0.5453710000000 1.0
C      1  0.5913760000000  0.5373520000000  0.4669500000000 1.0
C      1  0.4081670000000  0.5401760000000  0.4831700000000 1.0
C      1  0.4341210000000  0.4070620000000  0.4849590000000 1.0
C      1  0.5750140000000  0.5821660000000  0.4886690000000 1.0
C      1  0.5883890000000  0.4753740000000  0.4630080000000 1.0
C      1  0.4915480000000  0.4645370000000  0.4510110000000 1.0
C      1  0.5256580000000  0.5309850000000  0.4880810000000 1.0
C      1  0.5685910000000  0.5712230000000  0.5162860000000 1.0
C      1  0.4543560000000  0.5649280000000  0.5550030000000 1.0
C      1  0.4422720000000  0.4645080000000  0.5124030000000 1.0
C      1  0.4828800000000  0.5514690000000  0.4973780000000 1.0
C      1  0.5505620000000  0.5260700000000  0.5846590000000 1.0
C      1  0.5008840000000  0.5070600000000  0.4221390000000 1.0
C      1  0.5377840000000  0.4615470000000  0.5836890000000 1.0
C      1  0.4774320000000  0.5796520000000  0.5009400000000 1.0
C      1  0.3989360000000  0.4396670000000  0.4689530000000 1.0
C      1  0.4451890000000  0.5541550000000  0.5827820000000 1.0
C      1  0.4689450000000  0.3969720000000  0.5142260000000 1.0
C      1  0.4499350000000  0.4580190000000  0.4048760000000 1.0
C      1  0.4684980000000  0.5402880000000  0.5431450000000 1.0
C      1  0.5503280000000  0.4917770000000  0.4424960000000 1.0
C      1  0.4997500000000  0.6197470000000  0.4941370000000 1.0
C      1  0.4017130000000  0.5352680000000  0.5202750000000 1.0
C      1  0.4723270000000  0.5366330000000  0.5912820000000 1.0
C      1  0.5690350000000  0.4888330000000  0.4089660000000 1.0
C      1  0.4776640000000  0.6069600000000  0.5355510000000 1.0
C      1  0.5189290000000  0.4118240000000  0.5093840000000 1.0
C      1  0.4922990000000  0.5828600000000  0.5767040000000 1.0
C      1  0.3959150000000  0.4835220000000  0.5059410000000 1.0
C      1  0.4606130000000  0.3953970000000  0.4870920000000 1.0
C      1  0.5487410000000  0.5849120000000  0.4777450000000 1.0
C      1  0.5363480000000  0.5076500000000  0.6051380000000 1.0
C      1  0.5423570000000  0.5424760000000  0.5140340000000 1.0
C      1  0.5867240000000  0.5667420000000  0.4636670000000 1.0
C      1  0.4779210000000  0.4533420000000  0.4022790000000 1.0
C      1  0.4969670000000  0.5076920000000  0.5157880000000 1.0
C      1  0.5719930000000  0.5689520000000  0.4357550000000 1.0
C      1  0.5608760000000  0.4592550000000  0.5989700000000 1.0
C      1  0.5863560000000  0.4300680000000  0.5224570000000 1.0
C      1  0.5468210000000  0.5320390000000  0.4162070000000 1.0
C      1  0.6008130000000  0.5042800000000  0.5290900000000 1.0
C      1  0.5484290000000  0.5654120000000  0.4553680000000 1.0
C      1  0.5702290000000  0.4604120000000  0.4180800000000 1.0
C      1  0.5759940000000  0.5271450000000  0.4912120000000 1.0
C      1  0.4244040000000  0.4820340000000  0.4448050000000 1.0
C      1  0.5987910000000  0.4784370000000  0.5129340000000 1.0
C      1  0.5427500000000  0.4206030000000  0.5488490000000 1.0
C      1  0.5586530000000  0.5012330000000  0.4916420000000 1.0
C      1  0.3959250000000  0.5078240000000  0.5258960000000 1.0
C      1  0.5156460000000  0.4793580000000  0.4655460000000 1.0
C      1  0.5016740000000  0.4573640000000  0.5010740000000 1.0
C      1  0.5632280000000  0.4133700000000  0.5267800000000 1.0
C      1  0.4944490000000  0.5574230000000  0.5879460000000 1.0
C      1  0.4677130000000  0.5208550000000  0.5645230000000 1.0
C      1  0.5424490000000  0.4492420000000  0.4191510000000 1.0
C      1  0.5398010000000  0.5196560000000  0.4430650000000 1.0
C      1  0.5378650000000  0.4236750000000  0.4313310000000 1.0
C      1  0.5114740000000  0.5184690000000  0.4451540000000 1.0
C      1  0.4007580000000  0.4603300000000  0.5240620000000 1.0
C      1  0.5274260000000  0.5537980000000  0.4116500000000 1.0
C      1  0.4911410000000  0.4851500000000  0.6042170000000 1.0
C      1  0.4292160000000  0.5704050000000  0.5395820000000 1.0
C      1  0.4505120000000  0.4146980000000  0.5289310000000 1.0
C      1  0.5867430000000  0.4541080000000  0.4425820000000 1.0
C      1  0.5543220000000  0.5104330000000  0.5383920000000 1.0
C      1  0.4497880000000  0.4397650000000  0.5599610000000 1.0
C      1  0.4211950000000  0.4221840000000  0.4638100000000 1.0
C      1  0.4996560000000  0.5450710000000  0.4501960000000 1.0
C      1  0.4243110000000  0.5332180000000  0.4367980000000 1.0
C      1  0.5548180000000  0.4115450000000  0.4746680000000 1.0
C      1  0.4416220000000  0.4836420000000  0.5833720000000 1.0
C      1  0.4325480000000  0.4589490000000  0.4639090000000 1.0
C      1  0.5173390000000  0.5522810000000  0.6047130000000 1.0
C      1  0.5148970000000  0.5250620000000  0.6169890000000 1.0
C      1  0.5853230000000  0.4783810000000  0.5674050000000 1.0
C      1  0.5311070000000  0.5445290000000  0.5431860000000 1.0
C      1  0.5474510000000  0.5359610000000  0.4664320000000 1.0
C      1  0.5462610000000  0.4923470000000  0.5170200000000 1.0
C      1  0.3905060000000  0.4671680000000  0.4748390000000 1.0
C      1  0.4505770000000  0.5136440000000  0.4977690000000 1.0
C      1  0.4601960000000  0.4453130000000  0.5298750000000 1.0
C      1  0.4776660000000  0.4927190000000  0.3795090000000 1.0
C      1  0.5745960000000  0.5426440000000  0.4221260000000 1.0
C      1  0.4090180000000  0.4978670000000  0.5499530000000 1.0
C      1  0.4867380000000  0.4146880000000  0.4449960000000 1.0
C      1  0.4145710000000  0.4708460000000  0.5464390000000 1.0
C      1  0.4930640000000  0.5951000000000  0.4817610000000 1.0
C      1  0.4869440000000  0.4260610000000  0.4022900000000 1.0
C      1  0.6049600000000  0.4756950000000  0.4855780000000 1.0
C      1  0.4239740000000  0.4919070000000  0.4897200000000 1.0
C      1  0.5482900000000  0.4632200000000  0.5239450000000 1.0
C      1  0.3965670000000  0.4883320000000  0.4554200000000 1.0
C      1  0.4786010000000  0.4055070000000  0.4196120000000 1.0
C      1  0.4872690000000  0.5140740000000  0.6120440000000 1.0
C      1  0.5066110000000  0.4016930000000  0.4620850000000 1.0
C      1  0.4533720000000  0.5935840000000  0.5085780000000 1.0
C      1  0.5133960000000  0.4977660000000  0.5646580000000 1.0
C      1  0.5023250000000  0.4388950000000  0.4352200000000 1.0
C      1  0.4935980000000  0.5866690000000  0.4332990000000 1.0
C      1  0.5784450000000  0.5528200000000  0.5582020000000 1.0
C      1  0.5799080000000  0.4578970000000  0.5253570000000 1.0
C      1  0.5494200000000  0.5646980000000  0.5582390000000 1.0
C      1  0.5032870000000  0.5031550000000  0.4858270000000 1.0
C      1  0.4097260000000  0.4366640000000  0.5136170000000 1.0
C      1  0.5308700000000  0.4481500000000  0.5016680000000 1.0
C      1  0.5287880000000  0.4731250000000  0.4298920000000 1.0
C      1  0.4314890000000  0.5758290000000  0.4552990000000 1.0
C      1  0.4784000000000  0.5876270000000  0.4573230000000 1.0
C      1  0.5342130000000  0.5191820000000  0.5589910000000 1.0
C      1  0.4642460000000  0.5126820000000  0.4510430000000 1.0
C      1  0.4889430000000  0.4594410000000  0.5279840000000 1.0
C      1  0.5285660000000  0.5741240000000  0.4963820000000 1.0
C      1  0.4538000000000  0.4607720000000  0.4844930000000 1.0
C      1  0.5891410000000  0.5543780000000  0.5304420000000 1.0
C      1  0.5316230000000  0.4159270000000  0.4580570000000 1.0
C      1  0.5691090000000  0.4363420000000  0.4708390000000 1.0
C      1  0.3973680000000  0.5130970000000  0.4728690000000 1.0
C      1  0.4736200000000  0.5084680000000  0.4781620000000 1.0
C      1  0.5113610000000  0.5649200000000  0.4322070000000 1.0
C      1  0.4719730000000  0.4465330000000  0.5777700000000 1.0
C      1  0.4716670000000  0.4767320000000  0.5821320000000 1.0
C      1  0.4839270000000  0.5338670000000  0.5196120000000 1.0
C      1  0.4805040000000  0.4883250000000  0.5308440000000 1.0
C      1  0.5817980000000  0.5041920000000  0.5525720000000 1.0
C      1  0.4958220000000  0.4738760000000  0.3896890000000 1.0
C      1  0.4537290000000  0.5266390000000  0.4005560000000 1.0
C      1  0.4308740000000  0.4729490000000  0.4176200000000 1.0
C      1  0.4730970000000  0.5883930000000  0.5576780000000 1.0
C      1  0.4394210000000  0.5463570000000  0.4916640000000 1.0
C      1  0.4219810000000  0.5374650000000  0.5726580000000 1.0
C      1  0.5879770000000  0.5264750000000  0.4412130000000 1.0
C      1  0.4837720000000  0.4956840000000  0.5598110000000 1.0
C      1  0.4346750000000  0.5723670000000  0.5111970000000 1.0
C      1  0.5179110000000  0.4065910000000  0.5390450000000 1.0
C      1  0.4965040000000  0.4345580000000  0.5688890000000 1.0
C      1  0.5370220000000  0.4514450000000  0.5528380000000 1.0
C      1  0.5435280000000  0.5548730000000  0.5915290000000 1.0
END
