TITL C-950521-2237-13 -1.26418097615679e-06 125000 -814.874623935798 0 0 133 (C1) n - 1
REM
REM in /home/bkarasulu/work/CARBON/AIRSS/Generating-Clusters/EDIP-Nigel-Params/with-SteepDescent/Only-C1/SD-CG/HFTN-CG
REM
REM
REM
REM
REM
REM ./C.cell (11c1c37f851c82e70ff6c80c92926a4b)
REM
REM compiler GCC version 9.2.1 20190827 (Red Hat 9.2.1-1)
REM options -cpp -mtune=generic -march=x86-64 -g -O0 -fpre-include=/usr/include/finclude/math-vector-fortran.h
REM seed 1568010445 -1832812539 -489963609 1978192661 -784480940 1360336325 -1202324051 -732867556 653226645 1235803958 -1853059381 -2075803227 582088757 -195157667 1180258834 -1768277350 -919881438 -470861949 697809152 -1881900850 -272092889 1630997113 485491372 -978098217 1468411778 2080627400 1237620435 -1859455640 -731175818 -1980357079 -1670581689 -1122233597 1429012643
REM
CELL 1.54180   50.00000   50.00000   50.00000   90.00000   90.00000   90.00000
LATT -1
SFAC C  
C      1  0.5473030000000  0.4267560000000  0.4905260000000 1.0
C      1  0.4119640000000  0.5483630000000  0.5066330000000 1.0
C      1  0.5026820000000  0.4623940000000  0.5983660000000 1.0
C      1  0.5010380000000  0.5126190000000  0.5487800000000 1.0
C      1  0.4498330000000  0.4277620000000  0.5192850000000 1.0
C      1  0.5159180000000  0.5040450000000  0.4115830000000 1.0
C      1  0.4940230000000  0.5875740000000  0.5198710000000 1.0
C      1  0.4901170000000  0.4165870000000  0.5039570000000 1.0
C      1  0.5371300000000  0.5776100000000  0.5489450000000 1.0
C      1  0.5312270000000  0.4659900000000  0.5930100000000 1.0
C      1  0.4562040000000  0.4940490000000  0.4742950000000 1.0
C      1  0.4499880000000  0.4639210000000  0.4245360000000 1.0
C      1  0.5392250000000  0.4923100000000  0.6002730000000 1.0
C      1  0.4985100000000  0.4792610000000  0.5086730000000 1.0
C      1  0.5222660000000  0.5330070000000  0.5981310000000 1.0
C      1  0.5134630000000  0.4916370000000  0.4695660000000 1.0
C      1  0.5781030000000  0.4808560000000  0.5379060000000 1.0
C      1  0.4860870000000  0.4645010000000  0.5519540000000 1.0
C      1  0.5634760000000  0.5677710000000  0.5547590000000 1.0
C      1  0.4871210000000  0.5269890000000  0.4912430000000 1.0
C      1  0.5132430000000  0.5591310000000  0.5521610000000 1.0
C      1  0.4393280000000  0.4411210000000  0.4416520000000 1.0
C      1  0.5958330000000  0.4634830000000  0.4968860000000 1.0
C      1  0.4312600000000  0.4477030000000  0.5326590000000 1.0
C      1  0.5134030000000  0.5123490000000  0.5228360000000 1.0
C      1  0.4737420000000  0.4861410000000  0.5888850000000 1.0
C      1  0.4888420000000  0.5379190000000  0.4616920000000 1.0
C      1  0.5824580000000  0.5702140000000  0.5068170000000 1.0
C      1  0.5233180000000  0.5472440000000  0.5060400000000 1.0
C      1  0.4636250000000  0.5544200000000  0.5590300000000 1.0
C      1  0.5216080000000  0.4420970000000  0.5221310000000 1.0
C      1  0.4702340000000  0.5175160000000  0.5906460000000 1.0
C      1  0.4865590000000  0.4923690000000  0.4547420000000 1.0
C      1  0.4412410000000  0.4192820000000  0.4912890000000 1.0
C      1  0.4587330000000  0.4257600000000  0.4597180000000 1.0
C      1  0.4208010000000  0.5194390000000  0.5011390000000 1.0
C      1  0.4520660000000  0.5131520000000  0.4992260000000 1.0
C      1  0.4354930000000  0.4690820000000  0.5535110000000 1.0
C      1  0.4006730000000  0.4801610000000  0.5044830000000 1.0
C      1  0.5021140000000  0.5598990000000  0.5247740000000 1.0
C      1  0.5536610000000  0.4880090000000  0.5541040000000 1.0
C      1  0.5382550000000  0.5908250000000  0.5217710000000 1.0
C      1  0.4508060000000  0.5957940000000  0.4628770000000 1.0
C      1  0.4765850000000  0.4194600000000  0.5293220000000 1.0
C      1  0.4755160000000  0.4762170000000  0.5263630000000 1.0
C      1  0.4930060000000  0.4923060000000  0.3968470000000 1.0
C      1  0.5153430000000  0.5495130000000  0.4566580000000 1.0
C      1  0.4201170000000  0.4510160000000  0.4608640000000 1.0
C      1  0.5125250000000  0.4230080000000  0.5664720000000 1.0
C      1  0.5401740000000  0.4626090000000  0.5658500000000 1.0
C      1  0.4353520000000  0.4916340000000  0.4269940000000 1.0
C      1  0.5696470000000  0.4628350000000  0.4533610000000 1.0
C      1  0.5824970000000  0.5746660000000  0.5351110000000 1.0
C      1  0.5245870000000  0.5570090000000  0.4286680000000 1.0
C      1  0.4671610000000  0.5844560000000  0.4849960000000 1.0
C      1  0.4325890000000  0.5004760000000  0.4574860000000 1.0
C      1  0.4690390000000  0.4491550000000  0.4740600000000 1.0
C      1  0.5446310000000  0.5830520000000  0.4722830000000 1.0
C      1  0.4171080000000  0.4356430000000  0.4854550000000 1.0
C      1  0.4667990000000  0.4407480000000  0.5760370000000 1.0
C      1  0.4784350000000  0.5427950000000  0.5186840000000 1.0
C      1  0.4926790000000  0.4451650000000  0.4908170000000 1.0
C      1  0.4581240000000  0.5006850000000  0.5271120000000 1.0
C      1  0.4470170000000  0.5127060000000  0.4055080000000 1.0
C      1  0.5451530000000  0.5324280000000  0.5808220000000 1.0
C      1  0.4187680000000  0.4570960000000  0.5065200000000 1.0
C      1  0.5476180000000  0.4747110000000  0.4992910000000 1.0
C      1  0.5421630000000  0.4335700000000  0.5595610000000 1.0
C      1  0.4927470000000  0.5395480000000  0.5933840000000 1.0
C      1  0.4093920000000  0.5043310000000  0.4767740000000 1.0
C      1  0.5240250000000  0.4014500000000  0.4571620000000 1.0
C      1  0.4119200000000  0.5599990000000  0.4808420000000 1.0
C      1  0.4524430000000  0.4655710000000  0.5784570000000 1.0
C      1  0.5116450000000  0.5051160000000  0.5995990000000 1.0
C      1  0.5616360000000  0.5403350000000  0.4601330000000 1.0
C      1  0.5309110000000  0.4030220000000  0.4853380000000 1.0
C      1  0.5854190000000  0.5311840000000  0.5282080000000 1.0
C      1  0.5043510000000  0.4879770000000  0.5654930000000 1.0
C      1  0.4832490000000  0.5848940000000  0.4439060000000 1.0
C      1  0.5516500000000  0.5049930000000  0.4981800000000 1.0
C      1  0.4860760000000  0.4660170000000  0.4368780000000 1.0
C      1  0.4840090000000  0.4674980000000  0.4073990000000 1.0
C      1  0.4980920000000  0.3929280000000  0.4490810000000 1.0
C      1  0.4850210000000  0.5194480000000  0.4388400000000 1.0
C      1  0.5023190000000  0.4401740000000  0.4438630000000 1.0
C      1  0.4990340000000  0.4367830000000  0.5426730000000 1.0
C      1  0.4907400000000  0.5603710000000  0.5713100000000 1.0
C      1  0.4701490000000  0.5073550000000  0.3909790000000 1.0
C      1  0.5165500000000  0.4423430000000  0.4723130000000 1.0
C      1  0.5548710000000  0.5427570000000  0.5275980000000 1.0
C      1  0.4934820000000  0.4370710000000  0.5869230000000 1.0
C      1  0.5174780000000  0.5702560000000  0.4776180000000 1.0
C      1  0.4475260000000  0.4667120000000  0.4817320000000 1.0
C      1  0.5274710000000  0.5140010000000  0.4827300000000 1.0
C      1  0.5577500000000  0.4357340000000  0.4612850000000 1.0
C      1  0.4418570000000  0.5522290000000  0.4408070000000 1.0
C      1  0.5416920000000  0.4197520000000  0.4411020000000 1.0
C      1  0.4936870000000  0.5879780000000  0.4710680000000 1.0
C      1  0.4264500000000  0.5623550000000  0.5259500000000 1.0
C      1  0.5910590000000  0.5416420000000  0.5018850000000 1.0
C      1  0.4554570000000  0.5251550000000  0.4311840000000 1.0
C      1  0.5248050000000  0.4701140000000  0.5178510000000 1.0
C      1  0.5558020000000  0.5057840000000  0.5792240000000 1.0
C      1  0.5108940000000  0.3974850000000  0.5038190000000 1.0
C      1  0.4498280000000  0.5320170000000  0.5750960000000 1.0
C      1  0.5731610000000  0.4636780000000  0.5137160000000 1.0
C      1  0.5308270000000  0.4685710000000  0.4736400000000 1.0
C      1  0.5123560000000  0.5329740000000  0.4153640000000 1.0
C      1  0.4096810000000  0.5015510000000  0.5224770000000 1.0
C      1  0.5759110000000  0.5233810000000  0.4821200000000 1.0
C      1  0.5397990000000  0.4855800000000  0.4163220000000 1.0
C      1  0.4601160000000  0.5549000000000  0.4861660000000 1.0
C      1  0.4306790000000  0.5159560000000  0.5632680000000 1.0
C      1  0.4358290000000  0.5488790000000  0.4696650000000 1.0
C      1  0.5910580000000  0.5033650000000  0.4653730000000 1.0
C      1  0.5436010000000  0.5132340000000  0.5262440000000 1.0
C      1  0.4503670000000  0.5715920000000  0.5370620000000 1.0
C      1  0.5345310000000  0.4586880000000  0.4116860000000 1.0
C      1  0.4655160000000  0.5918330000000  0.5222710000000 1.0
C      1  0.4545800000000  0.5802550000000  0.4381130000000 1.0
C      1  0.5543960000000  0.5770190000000  0.5004580000000 1.0
C      1  0.5147890000000  0.6052290000000  0.5141090000000 1.0
C      1  0.5478320000000  0.4306420000000  0.5294070000000 1.0
C      1  0.4839830000000  0.4166400000000  0.4448220000000 1.0
C      1  0.5815900000000  0.5070490000000  0.4385820000000 1.0
C      1  0.5912640000000  0.5041730000000  0.5309770000000 1.0
C      1  0.5353450000000  0.5296650000000  0.4614880000000 1.0
C      1  0.5239760000000  0.4356200000000  0.4231200000000 1.0
C      1  0.5554170000000  0.5675610000000  0.4492480000000 1.0
C      1  0.5867760000000  0.4753980000000  0.4731160000000 1.0
C      1  0.4742860000000  0.5218630000000  0.5406530000000 1.0
C      1  0.5634070000000  0.4856410000000  0.4348070000000 1.0
C      1  0.4318260000000  0.4966050000000  0.5425300000000 1.0
END
