TITL C-951334-9093-384 -1.59980880411669e-06 125000 -630.146814200921 0 0 101 (C1) n - 1
REM
REM in /home/bkarasulu/work/CARBON/AIRSS/Generating-Clusters/EDIP-Nigel-Params/with-SteepDescent/Only-C1/SD-CG/HFTN-CG
REM
REM
REM
REM
REM
REM ./C.cell (11c1c37f851c82e70ff6c80c92926a4b)
REM
REM compiler GCC version 9.2.1 20190827 (Red Hat 9.2.1-1)
REM options -cpp -mtune=generic -march=x86-64 -g -O0 -fpre-include=/usr/include/finclude/math-vector-fortran.h
REM seed 2058917843 -33822017 1475308783 839418610 1903324511 -1631743611 -2008057135 -1389612658 303854544 941709227 74755162 -1601059491 196712395 410964677 257331453 1009080288 1300954887 -281547326 169889489 -1569907367 972414950 -1496528408 -181172583 -182077199 955634088 -612444933 -91535751 359864280 2035408378 1488817045 1626001996 -1106113573 1189519141
REM
CELL 1.54180   50.00000   50.00000   50.00000   90.00000   90.00000   90.00000
LATT -1
SFAC C  
C      1  0.4185110000000  0.4834540000000  0.4553040000000 1.0
C      1  0.5026180000000  0.5842460000000  0.5413800000000 1.0
C      1  0.4738460000000  0.4924390000000  0.5476770000000 1.0
C      1  0.5067960000000  0.5139690000000  0.4861690000000 1.0
C      1  0.4115000000000  0.5233590000000  0.5179000000000 1.0
C      1  0.4349690000000  0.4536290000000  0.5271290000000 1.0
C      1  0.4584830000000  0.5088070000000  0.5030360000000 1.0
C      1  0.5675400000000  0.4577200000000  0.4515940000000 1.0
C      1  0.4774420000000  0.4648700000000  0.5607490000000 1.0
C      1  0.4796510000000  0.5000030000000  0.4828960000000 1.0
C      1  0.4016980000000  0.4750660000000  0.4984160000000 1.0
C      1  0.5876710000000  0.4901850000000  0.4841510000000 1.0
C      1  0.4654590000000  0.5718740000000  0.4762600000000 1.0
C      1  0.4950280000000  0.5463660000000  0.5224680000000 1.0
C      1  0.4419730000000  0.4711760000000  0.4473670000000 1.0
C      1  0.4574740000000  0.5792050000000  0.5254500000000 1.0
C      1  0.4669810000000  0.5331390000000  0.5199040000000 1.0
C      1  0.5015800000000  0.5010630000000  0.5378820000000 1.0
C      1  0.5140920000000  0.4187260000000  0.4955800000000 1.0
C      1  0.4796650000000  0.4447390000000  0.4689110000000 1.0
C      1  0.4569730000000  0.4857710000000  0.5235470000000 1.0
C      1  0.4714640000000  0.4193460000000  0.5386640000000 1.0
C      1  0.4175980000000  0.5011080000000  0.5356690000000 1.0
C      1  0.5230040000000  0.4549380000000  0.4447160000000 1.0
C      1  0.4145970000000  0.4743340000000  0.5230970000000 1.0
C      1  0.5692830000000  0.4554460000000  0.5124320000000 1.0
C      1  0.4566790000000  0.4819890000000  0.4250270000000 1.0
C      1  0.5471060000000  0.4940920000000  0.4256060000000 1.0
C      1  0.5581520000000  0.5282030000000  0.4958640000000 1.0
C      1  0.5621590000000  0.5135990000000  0.5607990000000 1.0
C      1  0.5013080000000  0.4840340000000  0.4102570000000 1.0
C      1  0.5361460000000  0.4774610000000  0.4742440000000 1.0
C      1  0.5404750000000  0.5226340000000  0.4194270000000 1.0
C      1  0.5033410000000  0.5825670000000  0.5107500000000 1.0
C      1  0.5755010000000  0.4913010000000  0.5451670000000 1.0
C      1  0.5500110000000  0.5085760000000  0.5854120000000 1.0
C      1  0.5270400000000  0.5633400000000  0.4907890000000 1.0
C      1  0.4392230000000  0.5308060000000  0.4455690000000 1.0
C      1  0.5583880000000  0.5436980000000  0.4248010000000 1.0
C      1  0.5323050000000  0.4877150000000  0.5810890000000 1.0
C      1  0.4788750000000  0.4662590000000  0.4149410000000 1.0
C      1  0.5551890000000  0.5224690000000  0.4673310000000 1.0
C      1  0.5310870000000  0.4640290000000  0.5333750000000 1.0
C      1  0.5239170000000  0.5700190000000  0.5554020000000 1.0
C      1  0.5580160000000  0.5539700000000  0.5322680000000 1.0
C      1  0.4792540000000  0.5590960000000  0.4529660000000 1.0
C      1  0.4450990000000  0.5528600000000  0.5191510000000 1.0
C      1  0.5266990000000  0.4736660000000  0.4212210000000 1.0
C      1  0.4899640000000  0.5110590000000  0.5878850000000 1.0
C      1  0.4973730000000  0.4399240000000  0.4453760000000 1.0
C      1  0.5496610000000  0.5766360000000  0.5465110000000 1.0
C      1  0.5144430000000  0.5417990000000  0.5492550000000 1.0
C      1  0.5700950000000  0.4842020000000  0.4409640000000 1.0
C      1  0.5140120000000  0.5257720000000  0.4327610000000 1.0
C      1  0.5280790000000  0.5069210000000  0.4636330000000 1.0
C      1  0.4875200000000  0.4702680000000  0.4884770000000 1.0
C      1  0.5460110000000  0.4396370000000  0.4560460000000 1.0
C      1  0.5171000000000  0.4712330000000  0.4980990000000 1.0
C      1  0.5617440000000  0.4807690000000  0.4961740000000 1.0
C      1  0.4301610000000  0.5163610000000  0.5577380000000 1.0
C      1  0.4385980000000  0.4319640000000  0.5069600000000 1.0
C      1  0.4589390000000  0.5142560000000  0.5646100000000 1.0
C      1  0.4712300000000  0.4606700000000  0.5130960000000 1.0
C      1  0.4931070000000  0.5114370000000  0.4171410000000 1.0
C      1  0.5249440000000  0.4166650000000  0.5230180000000 1.0
C      1  0.4383580000000  0.5641690000000  0.4772380000000 1.0
C      1  0.4967210000000  0.4610570000000  0.5832670000000 1.0
C      1  0.4835980000000  0.4391960000000  0.4209960000000 1.0
C      1  0.4218190000000  0.5451960000000  0.5342690000000 1.0
C      1  0.5473690000000  0.5078830000000  0.5152450000000 1.0
C      1  0.5177210000000  0.4443950000000  0.5709150000000 1.0
C      1  0.4286520000000  0.5384320000000  0.4709930000000 1.0
C      1  0.5555850000000  0.4309740000000  0.5053620000000 1.0
C      1  0.4962600000000  0.5357540000000  0.5737570000000 1.0
C      1  0.4334460000000  0.4371970000000  0.4801120000000 1.0
C      1  0.5455150000000  0.5276760000000  0.5405140000000 1.0
C      1  0.5548880000000  0.5486230000000  0.4522790000000 1.0
C      1  0.4848170000000  0.4455060000000  0.5380390000000 1.0
C      1  0.4725000000000  0.5502360000000  0.5663330000000 1.0
C      1  0.6048240000000  0.5032260000000  0.5021450000000 1.0
C      1  0.5608660000000  0.4657960000000  0.5380490000000 1.0
C      1  0.4637180000000  0.5110030000000  0.4230880000000 1.0
C      1  0.5064760000000  0.4884010000000  0.5959100000000 1.0
C      1  0.5367550000000  0.4341840000000  0.4839830000000 1.0
C      1  0.4599370000000  0.5471090000000  0.4353900000000 1.0
C      1  0.4273430000000  0.5164610000000  0.4920490000000 1.0
C      1  0.5959990000000  0.4986460000000  0.5271900000000 1.0
C      1  0.5302520000000  0.5640510000000  0.4601960000000 1.0
C      1  0.5078090000000  0.5412530000000  0.4966370000000 1.0
C      1  0.4753210000000  0.5750420000000  0.5498660000000 1.0
C      1  0.4123850000000  0.4931980000000  0.4803380000000 1.0
C      1  0.4851130000000  0.4245850000000  0.4911400000000 1.0
C      1  0.5073140000000  0.5532340000000  0.4446360000000 1.0
C      1  0.5156430000000  0.4390870000000  0.5413440000000 1.0
C      1  0.4506410000000  0.4468420000000  0.4607360000000 1.0
C      1  0.4750900000000  0.5855770000000  0.5011340000000 1.0
C      1  0.4638440000000  0.4172570000000  0.5111380000000 1.0
C      1  0.5175210000000  0.4998800000000  0.5108800000000 1.0
C      1  0.5177010000000  0.4815910000000  0.5539600000000 1.0
C      1  0.5541600000000  0.5558780000000  0.5033260000000 1.0
C      1  0.5791930000000  0.5044720000000  0.4600010000000 1.0
END
