TITL C-951343-2256-128 -2.53086769294101e-06 125000 -242.252394135359 0 0 41 (C1) n - 1
REM
REM in /home/bkarasulu/work/CARBON/AIRSS/Generating-Clusters/EDIP-Nigel-Params/with-SteepDescent/Only-C1/SD-CG/HFTN-CG
REM
REM
REM
REM
REM
REM ./C.cell (11c1c37f851c82e70ff6c80c92926a4b)
REM
REM compiler GCC version 9.2.1 20190827 (Red Hat 9.2.1-1)
REM options -cpp -mtune=generic -march=x86-64 -g -O0 -fpre-include=/usr/include/finclude/math-vector-fortran.h
REM seed 322239145 -294960050 2104396845 716140828 -2110819542 -534805428 585054052 -467054832 298875533 -358532811 287129885 1432986865 1782650898 -2085402187 427837707 1545753140 -1525882235 853543945 -523123530 1975075217 -645341275 50400829 2108104214 1813535746 258003509 -1791445961 -1785980003 1875889454 1446802945 2126635459 -1873331196 -1247870971 798430645
REM
CELL 1.54180   50.00000   50.00000   50.00000   90.00000   90.00000   90.00000
LATT -1
SFAC C  
C      1  0.5433620000000  0.5275310000000  0.4668830000000 1.0
C      1  0.5217400000000  0.5119570000000  0.5066330000000 1.0
C      1  0.4522470000000  0.5550770000000  0.5240830000000 1.0
C      1  0.4812760000000  0.5364870000000  0.4853360000000 1.0
C      1  0.5461580000000  0.5090140000000  0.4900140000000 1.0
C      1  0.5436330000000  0.4914130000000  0.5472490000000 1.0
C      1  0.4448420000000  0.4924730000000  0.5447400000000 1.0
C      1  0.5599060000000  0.5379170000000  0.5207670000000 1.0
C      1  0.5105180000000  0.5508860000000  0.5250740000000 1.0
C      1  0.5359800000000  0.5149780000000  0.4434630000000 1.0
C      1  0.4632660000000  0.4641300000000  0.4545730000000 1.0
C      1  0.5097990000000  0.5390890000000  0.4964210000000 1.0
C      1  0.4513360000000  0.4904090000000  0.4506170000000 1.0
C      1  0.4396840000000  0.5098720000000  0.4677290000000 1.0
C      1  0.4779010000000  0.5150600000000  0.4649080000000 1.0
C      1  0.5370540000000  0.5403170000000  0.5373240000000 1.0
C      1  0.5282180000000  0.5494500000000  0.4760820000000 1.0
C      1  0.5146290000000  0.4652050000000  0.5143040000000 1.0
C      1  0.4385840000000  0.5153020000000  0.4963820000000 1.0
C      1  0.5582290000000  0.4801620000000  0.4899250000000 1.0
C      1  0.4800450000000  0.5028580000000  0.5239150000000 1.0
C      1  0.4427780000000  0.4910210000000  0.5146230000000 1.0
C      1  0.4512320000000  0.4633670000000  0.5054730000000 1.0
C      1  0.5416940000000  0.4598220000000  0.5025420000000 1.0
C      1  0.4585570000000  0.5357890000000  0.5042080000000 1.0
C      1  0.4673060000000  0.4551560000000  0.4824930000000 1.0
C      1  0.4866620000000  0.4598830000000  0.4385670000000 1.0
C      1  0.4686390000000  0.4544420000000  0.5285670000000 1.0
C      1  0.5798730000000  0.4928390000000  0.5050740000000 1.0
C      1  0.5274940000000  0.5119410000000  0.5369450000000 1.0
C      1  0.4923840000000  0.4907990000000  0.4748440000000 1.0
C      1  0.5016040000000  0.4912340000000  0.5040240000000 1.0
C      1  0.5059560000000  0.4757030000000  0.4525340000000 1.0
C      1  0.4661180000000  0.5479980000000  0.5461470000000 1.0
C      1  0.5314750000000  0.4678930000000  0.5387600000000 1.0
C      1  0.4856210000000  0.4344400000000  0.4896280000000 1.0
C      1  0.5218550000000  0.4930430000000  0.4374700000000 1.0
C      1  0.5787200000000  0.5193520000000  0.5137140000000 1.0
C      1  0.4880830000000  0.5325410000000  0.5372510000000 1.0
C      1  0.4938110000000  0.4431690000000  0.5157300000000 1.0
C      1  0.4717310000000  0.4799820000000  0.5449850000000 1.0
END
