TITL C-951337-3020-608 -9.98142117199218e-06 125000 -1066.01484011622 0 0 171 (C1) n - 1
REM
REM in /home/bkarasulu/work/CARBON/AIRSS/Generating-Clusters/EDIP-Nigel-Params/with-SteepDescent/Only-C1/SD-CG/HFTN-CG
REM
REM
REM
REM
REM
REM ./C.cell (11c1c37f851c82e70ff6c80c92926a4b)
REM
REM compiler GCC version 9.2.1 20190827 (Red Hat 9.2.1-1)
REM options -cpp -mtune=generic -march=x86-64 -g -O0 -fpre-include=/usr/include/finclude/math-vector-fortran.h
REM seed 1622721046 -633764366 -597857898 -549777481 -523595123 -1697711895 1867759355 405649344 -1156063842 -754188131 1967835833 -21416508 457321625 299808548 -1057126983 -1381645621 1793317509 -616185076 1726792683 1263745394 1205236367 -1062296800 -775030360 1518688315 -1462547647 1190171295 1212107589 -126538929 -497114640 -1157033998 -478885206 1296893727 492279111
REM
CELL 1.54180   50.00000   50.00000   50.00000   90.00000   90.00000   90.00000
LATT -1
SFAC C  
C      1  0.5638960000000  0.5727640000000  0.4647380000000 1.0
C      1  0.4853190000000  0.4849120000000  0.3977620000000 1.0
C      1  0.5270650000000  0.4394830000000  0.5350460000000 1.0
C      1  0.5107020000000  0.5735930000000  0.5704130000000 1.0
C      1  0.5199930000000  0.4573780000000  0.5079570000000 1.0
C      1  0.5353130000000  0.4109100000000  0.5416080000000 1.0
C      1  0.5166570000000  0.4648900000000  0.4209000000000 1.0
C      1  0.5592990000000  0.4892450000000  0.4690790000000 1.0
C      1  0.4769400000000  0.5057300000000  0.4169580000000 1.0
C      1  0.4129170000000  0.5099020000000  0.5493360000000 1.0
C      1  0.3982650000000  0.4590540000000  0.5246910000000 1.0
C      1  0.3802730000000  0.4741890000000  0.5394450000000 1.0
C      1  0.6060120000000  0.5167700000000  0.4726220000000 1.0
C      1  0.4589090000000  0.5985080000000  0.5328850000000 1.0
C      1  0.4083080000000  0.4332650000000  0.5338890000000 1.0
C      1  0.3867780000000  0.5430550000000  0.4777790000000 1.0
C      1  0.4498700000000  0.5208110000000  0.5901850000000 1.0
C      1  0.4259220000000  0.5684580000000  0.4562590000000 1.0
C      1  0.5871610000000  0.5645360000000  0.4827430000000 1.0
C      1  0.5513210000000  0.4478480000000  0.4127360000000 1.0
C      1  0.5580640000000  0.5416490000000  0.4226610000000 1.0
C      1  0.5466610000000  0.4605040000000  0.4916290000000 1.0
C      1  0.5684990000000  0.5023670000000  0.5834410000000 1.0
C      1  0.4552990000000  0.5200780000000  0.4700910000000 1.0
C      1  0.6040220000000  0.4528550000000  0.5217000000000 1.0
C      1  0.5822220000000  0.5280240000000  0.4293960000000 1.0
C      1  0.4917290000000  0.3955830000000  0.4747320000000 1.0
C      1  0.5468000000000  0.5908920000000  0.4797930000000 1.0
C      1  0.4211230000000  0.4999960000000  0.4995560000000 1.0
C      1  0.4638430000000  0.3913190000000  0.4782030000000 1.0
C      1  0.5546940000000  0.4778440000000  0.4040330000000 1.0
C      1  0.4318510000000  0.5226190000000  0.4194290000000 1.0
C      1  0.4364370000000  0.5225010000000  0.4929190000000 1.0
C      1  0.4570350000000  0.5105010000000  0.5642610000000 1.0
C      1  0.4214930000000  0.4545280000000  0.5890510000000 1.0
C      1  0.5077780000000  0.4606800000000  0.5994480000000 1.0
C      1  0.4601420000000  0.4845630000000  0.6003530000000 1.0
C      1  0.5395550000000  0.5154590000000  0.5530470000000 1.0
C      1  0.5081240000000  0.4460710000000  0.5587190000000 1.0
C      1  0.4270370000000  0.4738280000000  0.4887040000000 1.0
C      1  0.5520170000000  0.5476760000000  0.5915340000000 1.0
C      1  0.5306830000000  0.4397030000000  0.5796320000000 1.0
C      1  0.4284590000000  0.4276000000000  0.4626370000000 1.0
C      1  0.5236700000000  0.4356470000000  0.4171140000000 1.0
C      1  0.4854710000000  0.4259690000000  0.5636740000000 1.0
C      1  0.5183160000000  0.6103190000000  0.4383580000000 1.0
C      1  0.5972950000000  0.4476920000000  0.4781530000000 1.0
C      1  0.5604350000000  0.5618260000000  0.5684140000000 1.0
C      1  0.4910040000000  0.5348270000000  0.5994150000000 1.0
C      1  0.5265630000000  0.5913640000000  0.4201630000000 1.0
C      1  0.4025620000000  0.4958280000000  0.4517900000000 1.0
C      1  0.5046560000000  0.6106850000000  0.4627060000000 1.0
C      1  0.4876330000000  0.4769910000000  0.5456500000000 1.0
C      1  0.5567980000000  0.5650940000000  0.4382360000000 1.0
C      1  0.3774110000000  0.5195110000000  0.4899820000000 1.0
C      1  0.3759790000000  0.5176140000000  0.5178940000000 1.0
C      1  0.4919290000000  0.6216700000000  0.5100120000000 1.0
C      1  0.5083590000000  0.5075570000000  0.5160790000000 1.0
C      1  0.5101000000000  0.4911330000000  0.3872400000000 1.0
C      1  0.6098500000000  0.5369880000000  0.5162870000000 1.0
C      1  0.5155850000000  0.5673480000000  0.4478070000000 1.0
C      1  0.5525890000000  0.4634690000000  0.5406550000000 1.0
C      1  0.5800610000000  0.4859760000000  0.4134710000000 1.0
C      1  0.4779690000000  0.5086580000000  0.5135520000000 1.0
C      1  0.5074580000000  0.5438810000000  0.5765380000000 1.0
C      1  0.5540850000000  0.4286730000000  0.4837260000000 1.0
C      1  0.5699480000000  0.5127660000000  0.4865240000000 1.0
C      1  0.4782310000000  0.4598320000000  0.5975420000000 1.0
C      1  0.5185920000000  0.5943630000000  0.4823100000000 1.0
C      1  0.6177090000000  0.5126180000000  0.5279690000000 1.0
C      1  0.5197110000000  0.5281950000000  0.5348010000000 1.0
C      1  0.5461580000000  0.4909340000000  0.5959710000000 1.0
C      1  0.5678710000000  0.4395980000000  0.4374380000000 1.0
C      1  0.5019680000000  0.5739700000000  0.5237440000000 1.0
C      1  0.4638550000000  0.5581890000000  0.5629400000000 1.0
C      1  0.4509730000000  0.5451850000000  0.4129640000000 1.0
C      1  0.5058040000000  0.4123490000000  0.4957890000000 1.0
C      1  0.4389570000000  0.4369460000000  0.5761860000000 1.0
C      1  0.5881570000000  0.4284200000000  0.5218230000000 1.0
C      1  0.5827680000000  0.5158420000000  0.5617810000000 1.0
C      1  0.5228220000000  0.4229890000000  0.4447040000000 1.0
C      1  0.4335700000000  0.5835980000000  0.4812200000000 1.0
C      1  0.4648450000000  0.5470930000000  0.4580010000000 1.0
C      1  0.4749050000000  0.4241650000000  0.4410120000000 1.0
C      1  0.4816490000000  0.5125080000000  0.4813750000000 1.0
C      1  0.4921970000000  0.5035700000000  0.5945530000000 1.0
C      1  0.3889700000000  0.4944930000000  0.4786840000000 1.0
C      1  0.4411250000000  0.5418630000000  0.5142910000000 1.0
C      1  0.4853790000000  0.5028070000000  0.5638260000000 1.0
C      1  0.5078930000000  0.5728270000000  0.4099630000000 1.0
C      1  0.4734520000000  0.4731630000000  0.4568510000000 1.0
C      1  0.4333970000000  0.4798050000000  0.5852570000000 1.0
C      1  0.5010950000000  0.4428480000000  0.4888880000000 1.0
C      1  0.4262120000000  0.4768380000000  0.4580290000000 1.0
C      1  0.4889700000000  0.3969840000000  0.5620380000000 1.0
C      1  0.4855500000000  0.5788690000000  0.5527710000000 1.0
C      1  0.4967360000000  0.4075840000000  0.4479600000000 1.0
C      1  0.3882680000000  0.5007650000000  0.5368020000000 1.0
C      1  0.5076150000000  0.5445000000000  0.4108590000000 1.0
C      1  0.4489350000000  0.4998290000000  0.4233630000000 1.0
C      1  0.4700720000000  0.5377350000000  0.5244290000000 1.0
C      1  0.4759970000000  0.4608700000000  0.4846040000000 1.0
C      1  0.5122850000000  0.4822450000000  0.5288850000000 1.0
C      1  0.5827970000000  0.4264500000000  0.4927400000000 1.0
C      1  0.5847950000000  0.4577330000000  0.4531350000000 1.0
C      1  0.5180500000000  0.4874380000000  0.6018960000000 1.0
C      1  0.4357850000000  0.5818080000000  0.5320250000000 1.0
C      1  0.5165430000000  0.4690190000000  0.4507990000000 1.0
C      1  0.4869970000000  0.5546060000000  0.5072810000000 1.0
C      1  0.5360800000000  0.4080160000000  0.4974820000000 1.0
C      1  0.5782260000000  0.5715650000000  0.5108640000000 1.0
C      1  0.4048020000000  0.5472180000000  0.4565120000000 1.0
C      1  0.5337910000000  0.5287430000000  0.4095310000000 1.0
C      1  0.4187780000000  0.5380450000000  0.5451200000000 1.0
C      1  0.5333510000000  0.4995470000000  0.3998360000000 1.0
C      1  0.5488710000000  0.5619740000000  0.5047870000000 1.0
C      1  0.4830890000000  0.5738550000000  0.4463950000000 1.0
C      1  0.4499100000000  0.5632040000000  0.4372330000000 1.0
C      1  0.4531140000000  0.4173080000000  0.4788780000000 1.0
C      1  0.4001050000000  0.4610440000000  0.4948590000000 1.0
C      1  0.5365530000000  0.5743810000000  0.5546290000000 1.0
C      1  0.4664030000000  0.6108880000000  0.5083980000000 1.0
C      1  0.5201270000000  0.5161190000000  0.4493790000000 1.0
C      1  0.5341330000000  0.4860240000000  0.5495280000000 1.0
C      1  0.4597430000000  0.5968650000000  0.4836060000000 1.0
C      1  0.5092420000000  0.5993690000000  0.5091480000000 1.0
C      1  0.6128390000000  0.4630110000000  0.4962730000000 1.0
C      1  0.5470990000000  0.3963030000000  0.5208490000000 1.0
C      1  0.5515510000000  0.5017670000000  0.4389780000000 1.0
C      1  0.5722470000000  0.4990170000000  0.5140310000000 1.0
C      1  0.4360290000000  0.4913500000000  0.5562660000000 1.0
C      1  0.4669840000000  0.4365420000000  0.5840230000000 1.0
C      1  0.4054040000000  0.4332300000000  0.4830850000000 1.0
C      1  0.4917590000000  0.5044500000000  0.4445140000000 1.0
C      1  0.4129150000000  0.5226160000000  0.4427430000000 1.0
C      1  0.5761530000000  0.4287130000000  0.5579570000000 1.0
C      1  0.5271640000000  0.4910490000000  0.4673520000000 1.0
C      1  0.5497720000000  0.4184500000000  0.5669290000000 1.0
C      1  0.4360080000000  0.5612300000000  0.5528250000000 1.0
C      1  0.4865630000000  0.4593720000000  0.4118520000000 1.0
C      1  0.6038010000000  0.5402170000000  0.4881400000000 1.0
C      1  0.4648470000000  0.5453720000000  0.5905180000000 1.0
C      1  0.4555080000000  0.4181240000000  0.5322450000000 1.0
C      1  0.5757620000000  0.4576420000000  0.5593410000000 1.0
C      1  0.4768960000000  0.6002990000000  0.4597350000000 1.0
C      1  0.5746530000000  0.5425700000000  0.5513770000000 1.0
C      1  0.4981680000000  0.5378140000000  0.4855150000000 1.0
C      1  0.5478550000000  0.5372810000000  0.4858670000000 1.0
C      1  0.5523010000000  0.4212050000000  0.4541240000000 1.0
C      1  0.5918720000000  0.5545670000000  0.5309040000000 1.0
C      1  0.5987830000000  0.4706920000000  0.5451370000000 1.0
C      1  0.4332900000000  0.4266410000000  0.5496970000000 1.0
C      1  0.5930610000000  0.5099690000000  0.4487560000000 1.0
C      1  0.4495300000000  0.4936270000000  0.4524170000000 1.0
C      1  0.4167700000000  0.4219930000000  0.5080040000000 1.0
C      1  0.4458180000000  0.4283520000000  0.5059350000000 1.0
C      1  0.5283680000000  0.5594200000000  0.5291100000000 1.0
C      1  0.4796360000000  0.5333570000000  0.4068160000000 1.0
C      1  0.4337730000000  0.4504190000000  0.4436930000000 1.0
C      1  0.4658050000000  0.4511860000000  0.4352060000000 1.0
C      1  0.5932750000000  0.5001210000000  0.5374370000000 1.0
C      1  0.4525600000000  0.4606960000000  0.5034460000000 1.0
C      1  0.5219630000000  0.5406750000000  0.4673900000000 1.0
C      1  0.4747780000000  0.3980000000000  0.5383290000000 1.0
C      1  0.4611180000000  0.4813630000000  0.5284060000000 1.0
C      1  0.4233230000000  0.5747000000000  0.5065730000000 1.0
C      1  0.4952440000000  0.5297710000000  0.5522130000000 1.0
C      1  0.5160150000000  0.4446540000000  0.4635940000000 1.0
C      1  0.5639920000000  0.4708950000000  0.5140080000000 1.0
C      1  0.5914460000000  0.4826980000000  0.4391680000000 1.0
C      1  0.5331100000000  0.5293460000000  0.5801000000000 1.0
END
