TITL C-950527-2551-241 -4.98435955976919e-07 125000 -485.808453190962 0 0 78 (C1) n - 1
REM
REM in /home/bkarasulu/work/CARBON/AIRSS/Generating-Clusters/EDIP-Nigel-Params/with-SteepDescent/Only-C1/SD-CG/HFTN-CG
REM
REM
REM
REM
REM
REM ./C.cell (11c1c37f851c82e70ff6c80c92926a4b)
REM
REM compiler GCC version 9.2.1 20190827 (Red Hat 9.2.1-1)
REM options -cpp -mtune=generic -march=x86-64 -g -O0 -fpre-include=/usr/include/finclude/math-vector-fortran.h
REM seed 716045489 1958667918 1250156653 632648673 729711831 -1765486567 -330072855 667752601 -1610186074 1516317463 350197760 -1065355871 865326786 440791076 -839856786 -1807721193 -1928115702 87177793 -1139885126 -90912147 266757488 974199968 1693713124 1719969465 -234828886 1506722725 -181588422 -1909492215 -1806581108 2029647896 957199238 -1995767625 1728393097
REM
CELL 1.54180   50.00000   50.00000   50.00000   90.00000   90.00000   90.00000
LATT -1
SFAC C  
C      1  0.4801690000000  0.4173320000000  0.5004520000000 1.0
C      1  0.5506500000000  0.5590720000000  0.4911600000000 1.0
C      1  0.5603980000000  0.5012770000000  0.5338730000000 1.0
C      1  0.4633110000000  0.4231870000000  0.5234500000000 1.0
C      1  0.5682330000000  0.5387590000000  0.5024010000000 1.0
C      1  0.4459320000000  0.5466560000000  0.5318840000000 1.0
C      1  0.5099120000000  0.5261220000000  0.5237460000000 1.0
C      1  0.4787710000000  0.5394550000000  0.4179050000000 1.0
C      1  0.4807700000000  0.4612730000000  0.4540700000000 1.0
C      1  0.4523280000000  0.4777680000000  0.5659410000000 1.0
C      1  0.4860730000000  0.5201020000000  0.5707170000000 1.0
C      1  0.5380910000000  0.4797770000000  0.4359340000000 1.0
C      1  0.5271240000000  0.5292710000000  0.4243140000000 1.0
C      1  0.4914630000000  0.4930360000000  0.4262260000000 1.0
C      1  0.5052200000000  0.5360730000000  0.4954050000000 1.0
C      1  0.5309490000000  0.4374780000000  0.4949290000000 1.0
C      1  0.5906140000000  0.5279010000000  0.4890710000000 1.0
C      1  0.5324760000000  0.5441630000000  0.5347900000000 1.0
C      1  0.4857340000000  0.5664570000000  0.5558510000000 1.0
C      1  0.5402300000000  0.4303190000000  0.4685300000000 1.0
C      1  0.4788390000000  0.4673570000000  0.5559000000000 1.0
C      1  0.4276690000000  0.5186820000000  0.4957790000000 1.0
C      1  0.4495640000000  0.4620930000000  0.4507440000000 1.0
C      1  0.5010110000000  0.4456340000000  0.4365570000000 1.0
C      1  0.5002750000000  0.5206730000000  0.4208140000000 1.0
C      1  0.4393370000000  0.5200720000000  0.5425070000000 1.0
C      1  0.4672110000000  0.4800660000000  0.5082210000000 1.0
C      1  0.5264570000000  0.5028950000000  0.5148490000000 1.0
C      1  0.4540600000000  0.5078630000000  0.5659860000000 1.0
C      1  0.4802500000000  0.4382650000000  0.5439840000000 1.0
C      1  0.5074410000000  0.4332680000000  0.5340800000000 1.0
C      1  0.4610760000000  0.5558010000000  0.4886450000000 1.0
C      1  0.5628460000000  0.4450380000000  0.4608990000000 1.0
C      1  0.4985640000000  0.5478390000000  0.5721750000000 1.0
C      1  0.4335380000000  0.4741510000000  0.4736210000000 1.0
C      1  0.5533110000000  0.4715600000000  0.4593930000000 1.0
C      1  0.5328610000000  0.5137280000000  0.5747790000000 1.0
C      1  0.5796530000000  0.5107210000000  0.4700610000000 1.0
C      1  0.5103040000000  0.5652850000000  0.4629800000000 1.0
C      1  0.5285290000000  0.4611970000000  0.5653080000000 1.0
C      1  0.5252800000000  0.4567920000000  0.5363210000000 1.0
C      1  0.5203430000000  0.4292370000000  0.4488610000000 1.0
C      1  0.4830740000000  0.5155840000000  0.5396340000000 1.0
C      1  0.4306090000000  0.4688950000000  0.5506730000000 1.0
C      1  0.4230020000000  0.4757480000000  0.5244380000000 1.0
C      1  0.5319590000000  0.5679340000000  0.5136540000000 1.0
C      1  0.4477650000000  0.5104800000000  0.4440680000000 1.0
C      1  0.5355520000000  0.5503430000000  0.4667410000000 1.0
C      1  0.4784640000000  0.5713130000000  0.5072980000000 1.0
C      1  0.4938900000000  0.4801960000000  0.4726070000000 1.0
C      1  0.5066580000000  0.5678380000000  0.4959200000000 1.0
C      1  0.5464940000000  0.5382340000000  0.4427340000000 1.0
C      1  0.4229100000000  0.5053970000000  0.5223770000000 1.0
C      1  0.5159880000000  0.4951490000000  0.4630640000000 1.0
C      1  0.5524820000000  0.4980190000000  0.5613430000000 1.0
C      1  0.5316000000000  0.5099650000000  0.4831390000000 1.0
C      1  0.5111990000000  0.4796050000000  0.5233120000000 1.0
C      1  0.4789400000000  0.5327630000000  0.4804720000000 1.0
C      1  0.5272440000000  0.5421680000000  0.5654270000000 1.0
C      1  0.5584520000000  0.4923250000000  0.4809140000000 1.0
C      1  0.4416110000000  0.4655820000000  0.5027000000000 1.0
C      1  0.4562380000000  0.5365010000000  0.4350150000000 1.0
C      1  0.5586230000000  0.5303170000000  0.5280210000000 1.0
C      1  0.5627470000000  0.4792950000000  0.5095990000000 1.0
C      1  0.5698330000000  0.5235760000000  0.4471450000000 1.0
C      1  0.5067320000000  0.5009670000000  0.5803060000000 1.0
C      1  0.5119500000000  0.4712800000000  0.4250230000000 1.0
C      1  0.4841400000000  0.4855530000000  0.5320700000000 1.0
C      1  0.4463320000000  0.4365190000000  0.5043710000000 1.0
C      1  0.4729300000000  0.5580570000000  0.5326040000000 1.0
C      1  0.5035630000000  0.4725870000000  0.5736740000000 1.0
C      1  0.4880510000000  0.5461470000000  0.4547590000000 1.0
C      1  0.5479280000000  0.4529190000000  0.5153460000000 1.0
C      1  0.4372560000000  0.5462110000000  0.5032480000000 1.0
C      1  0.4609710000000  0.4863470000000  0.4316200000000 1.0
C      1  0.5079470000000  0.4231780000000  0.5070910000000 1.0
C      1  0.4347650000000  0.5036360000000  0.4702060000000 1.0
C      1  0.4752350000000  0.4956720000000  0.4862700000000 1.0
END
