TITL C-950536-5891-153 -1.61644902883918e-06 125000 -816.632498007772 0 0 131 (C1) n - 1
REM
REM in /home/bkarasulu/work/CARBON/AIRSS/Generating-Clusters/EDIP-Nigel-Params/with-SteepDescent/Only-C1/SD-CG/HFTN-CG
REM
REM
REM
REM
REM
REM ./C.cell (11c1c37f851c82e70ff6c80c92926a4b)
REM
REM compiler GCC version 9.2.1 20190827 (Red Hat 9.2.1-1)
REM options -cpp -mtune=generic -march=x86-64 -g -O0 -fpre-include=/usr/include/finclude/math-vector-fortran.h
REM seed 1127474352 2051874484 -1235279140 577139974 -1148795124 1017085882 -93911439 -1789538055 -830142723 724036503 629076611 -1032791030 523943517 -1197392496 -589943743 -1039410842 -1740033044 99417584 -1093890424 -409110978 -305966501 1549948347 1297097286 -1485214635 -1737011706 2053330352 -307693541 -1948175322 -953360154 -587929571 1126930573 -1966423986 -1905158373
REM
CELL 1.54180   50.00000   50.00000   50.00000   90.00000   90.00000   90.00000
LATT -1
SFAC C  
C      1  0.5054410000000  0.4099100000000  0.5502530000000 1.0
C      1  0.5859610000000  0.5524100000000  0.4831060000000 1.0
C      1  0.4845970000000  0.4995300000000  0.4574460000000 1.0
C      1  0.4621220000000  0.5010650000000  0.4075700000000 1.0
C      1  0.5807720000000  0.4694010000000  0.4423440000000 1.0
C      1  0.4939100000000  0.4426900000000  0.5973290000000 1.0
C      1  0.4794050000000  0.4333150000000  0.4357040000000 1.0
C      1  0.4140420000000  0.4913450000000  0.4660200000000 1.0
C      1  0.4374540000000  0.5110120000000  0.4627720000000 1.0
C      1  0.5249800000000  0.4279970000000  0.5625460000000 1.0
C      1  0.5024480000000  0.5671870000000  0.5501220000000 1.0
C      1  0.5002540000000  0.5916600000000  0.4540750000000 1.0
C      1  0.5177210000000  0.4916070000000  0.4107400000000 1.0
C      1  0.4794710000000  0.5228020000000  0.4162180000000 1.0
C      1  0.4737260000000  0.4618390000000  0.5940240000000 1.0
C      1  0.4855740000000  0.4748120000000  0.5224870000000 1.0
C      1  0.5673090000000  0.5075390000000  0.4865980000000 1.0
C      1  0.5231110000000  0.5196580000000  0.4665090000000 1.0
C      1  0.4870290000000  0.4302900000000  0.5385200000000 1.0
C      1  0.5499160000000  0.4777040000000  0.5529680000000 1.0
C      1  0.5603850000000  0.5535240000000  0.4325820000000 1.0
C      1  0.4077380000000  0.4693110000000  0.5465300000000 1.0
C      1  0.5840290000000  0.5659390000000  0.5111390000000 1.0
C      1  0.5827570000000  0.5486710000000  0.5332590000000 1.0
C      1  0.4568220000000  0.5449140000000  0.4932780000000 1.0
C      1  0.4820670000000  0.5064920000000  0.4838420000000 1.0
C      1  0.5061310000000  0.4564830000000  0.5340890000000 1.0
C      1  0.5087050000000  0.5187150000000  0.4164980000000 1.0
C      1  0.4427700000000  0.4722260000000  0.5102980000000 1.0
C      1  0.4445990000000  0.5006510000000  0.5128130000000 1.0
C      1  0.4585590000000  0.4358390000000  0.5523160000000 1.0
C      1  0.5584100000000  0.5804300000000  0.5108110000000 1.0
C      1  0.4711760000000  0.4728800000000  0.4059350000000 1.0
C      1  0.5454670000000  0.5869010000000  0.5364150000000 1.0
C      1  0.5029900000000  0.5491450000000  0.5751800000000 1.0
C      1  0.5369650000000  0.5148320000000  0.5815110000000 1.0
C      1  0.4726710000000  0.5690110000000  0.5434930000000 1.0
C      1  0.5224070000000  0.5052930000000  0.5170730000000 1.0
C      1  0.5606870000000  0.5444310000000  0.5499790000000 1.0
C      1  0.4494680000000  0.5798210000000  0.4628240000000 1.0
C      1  0.4275630000000  0.5370620000000  0.4508130000000 1.0
C      1  0.4736540000000  0.4311230000000  0.4661200000000 1.0
C      1  0.5311810000000  0.4449160000000  0.4408210000000 1.0
C      1  0.4996240000000  0.4688950000000  0.4109480000000 1.0
C      1  0.5454720000000  0.4867510000000  0.4171440000000 1.0
C      1  0.3948260000000  0.5381080000000  0.5025440000000 1.0
C      1  0.5645440000000  0.4529140000000  0.5565730000000 1.0
C      1  0.4589030000000  0.4525020000000  0.4247440000000 1.0
C      1  0.5869540000000  0.5044100000000  0.5332680000000 1.0
C      1  0.5922780000000  0.5230940000000  0.4797320000000 1.0
C      1  0.4588660000000  0.4966930000000  0.4454550000000 1.0
C      1  0.4496010000000  0.4874590000000  0.5615340000000 1.0
C      1  0.4415180000000  0.4264350000000  0.4802190000000 1.0
C      1  0.5299910000000  0.4565970000000  0.5099850000000 1.0
C      1  0.4969430000000  0.4949350000000  0.5670660000000 1.0
C      1  0.3967390000000  0.4869580000000  0.4906080000000 1.0
C      1  0.5172490000000  0.4713560000000  0.5604250000000 1.0
C      1  0.4477920000000  0.4180930000000  0.5079670000000 1.0
C      1  0.5086440000000  0.5274970000000  0.5332330000000 1.0
C      1  0.5192810000000  0.5981410000000  0.5342330000000 1.0
C      1  0.5536020000000  0.4615830000000  0.4300110000000 1.0
C      1  0.5842370000000  0.4986470000000  0.4370170000000 1.0
C      1  0.5368700000000  0.4620110000000  0.5956970000000 1.0
C      1  0.5369840000000  0.4265350000000  0.4622520000000 1.0
C      1  0.5514660000000  0.4269440000000  0.5202300000000 1.0
C      1  0.4156170000000  0.5556740000000  0.5152810000000 1.0
C      1  0.5128140000000  0.5223760000000  0.5655590000000 1.0
C      1  0.4324520000000  0.5626580000000  0.4899920000000 1.0
C      1  0.5638360000000  0.4566340000000  0.4813200000000 1.0
C      1  0.5544280000000  0.5558520000000  0.4814780000000 1.0
C      1  0.4756110000000  0.4945930000000  0.5441650000000 1.0
C      1  0.4173500000000  0.4438520000000  0.4757570000000 1.0
C      1  0.5947350000000  0.4607210000000  0.4774040000000 1.0
C      1  0.4025860000000  0.4566980000000  0.4995620000000 1.0
C      1  0.5044480000000  0.5443710000000  0.4839280000000 1.0
C      1  0.5506350000000  0.4304460000000  0.5487250000000 1.0
C      1  0.5610770000000  0.5219860000000  0.5677890000000 1.0
C      1  0.5051580000000  0.4458890000000  0.4276450000000 1.0
C      1  0.5603170000000  0.5099620000000  0.4254340000000 1.0
C      1  0.5329550000000  0.4088450000000  0.5084220000000 1.0
C      1  0.5204270000000  0.4396310000000  0.5893280000000 1.0
C      1  0.4773760000000  0.4599880000000  0.4760110000000 1.0
C      1  0.4546970000000  0.4589490000000  0.5713670000000 1.0
C      1  0.4920170000000  0.4155900000000  0.4841360000000 1.0
C      1  0.5410260000000  0.5645580000000  0.5534060000000 1.0
C      1  0.5196650000000  0.5719350000000  0.4458200000000 1.0
C      1  0.4828580000000  0.5948050000000  0.5014650000000 1.0
C      1  0.4479890000000  0.5566450000000  0.4421700000000 1.0
C      1  0.5722280000000  0.4984360000000  0.5564830000000 1.0
C      1  0.4565980000000  0.5060080000000  0.5847650000000 1.0
C      1  0.4360250000000  0.4316760000000  0.5318510000000 1.0
C      1  0.3973550000000  0.5103050000000  0.5116200000000 1.0
C      1  0.4779580000000  0.5219760000000  0.5326540000000 1.0
C      1  0.5123920000000  0.5565260000000  0.5092470000000 1.0
C      1  0.5878610000000  0.4658970000000  0.5053920000000 1.0
C      1  0.5436870000000  0.4827990000000  0.5228690000000 1.0
C      1  0.5000820000000  0.4912670000000  0.5024280000000 1.0
C      1  0.5479030000000  0.5556780000000  0.4079740000000 1.0
C      1  0.5267150000000  0.4883830000000  0.4659060000000 1.0
C      1  0.4596060000000  0.5418570000000  0.5467080000000 1.0
C      1  0.4813370000000  0.4908760000000  0.5937270000000 1.0
C      1  0.5634520000000  0.4294050000000  0.4694260000000 1.0
C      1  0.4679440000000  0.5468400000000  0.4247240000000 1.0
C      1  0.5370310000000  0.4894120000000  0.5937810000000 1.0
C      1  0.5561340000000  0.4846310000000  0.4677650000000 1.0
C      1  0.5994130000000  0.5142490000000  0.4544250000000 1.0
C      1  0.5201090000000  0.4210650000000  0.4853680000000 1.0
C      1  0.5118330000000  0.4697050000000  0.4843360000000 1.0
C      1  0.4674440000000  0.4573620000000  0.5053460000000 1.0
C      1  0.4224770000000  0.5108190000000  0.5286280000000 1.0
C      1  0.4772400000000  0.4199950000000  0.5105140000000 1.0
C      1  0.5141050000000  0.5818290000000  0.4195740000000 1.0
C      1  0.4802180000000  0.5485540000000  0.5914320000000 1.0
C      1  0.5168170000000  0.3968570000000  0.5281440000000 1.0
C      1  0.4611630000000  0.5344010000000  0.5765460000000 1.0
C      1  0.4217340000000  0.4925080000000  0.5515930000000 1.0
C      1  0.4660890000000  0.5853550000000  0.5218160000000 1.0
C      1  0.4210590000000  0.4569980000000  0.5238310000000 1.0
C      1  0.5095000000000  0.5857980000000  0.5102550000000 1.0
C      1  0.5470480000000  0.5664760000000  0.4541260000000 1.0
C      1  0.5720340000000  0.4906710000000  0.5124590000000 1.0
C      1  0.4788050000000  0.5842690000000  0.4732230000000 1.0
C      1  0.5302030000000  0.5299130000000  0.4362340000000 1.0
C      1  0.4779790000000  0.5536230000000  0.4745440000000 1.0
C      1  0.5270640000000  0.5701130000000  0.3981620000000 1.0
C      1  0.4239340000000  0.4654760000000  0.4568020000000 1.0
C      1  0.4530370000000  0.4676620000000  0.4500640000000 1.0
C      1  0.5450270000000  0.5275670000000  0.4862840000000 1.0
C      1  0.4297910000000  0.5390830000000  0.5362510000000 1.0
C      1  0.4123740000000  0.5502880000000  0.4713910000000 1.0
C      1  0.4542880000000  0.5157940000000  0.4893200000000 1.0
END
