TITL C-950531-5884-597 -5.23894920405519e-07 125000 -364.688700591628 0 0 61 (C1) n - 1
REM
REM in /home/bkarasulu/work/CARBON/AIRSS/Generating-Clusters/EDIP-Nigel-Params/with-SteepDescent/Only-C1/SD-CG/HFTN-CG
REM
REM
REM
REM
REM
REM ./C.cell (11c1c37f851c82e70ff6c80c92926a4b)
REM
REM compiler GCC version 9.2.1 20190827 (Red Hat 9.2.1-1)
REM options -cpp -mtune=generic -march=x86-64 -g -O0 -fpre-include=/usr/include/finclude/math-vector-fortran.h
REM seed -1957246474 -783685494 -588678994 1213645777 -1240774656 968967001 -1539296956 667954683 450796439 -36969307 1198610404 -796967419 -162215559 -1534545407 576977281 -997295635 189961944 497400774 363268689 -547902574 -986162487 -961137881 -423941131 656008508 1820005895 88589186 -1868110394 -691060268 1631218792 1383243945 1283291773 -475842090 646208171
REM
CELL 1.54180   50.00000   50.00000   50.00000   90.00000   90.00000   90.00000
LATT -1
SFAC C  
C      1  0.5207880000000  0.5560510000000  0.5316650000000 1.0
C      1  0.4640370000000  0.5679810000000  0.5109340000000 1.0
C      1  0.4386330000000  0.4716890000000  0.5023790000000 1.0
C      1  0.4697930000000  0.5141890000000  0.4358570000000 1.0
C      1  0.4348220000000  0.4531730000000  0.4808370000000 1.0
C      1  0.4660340000000  0.4228160000000  0.5274250000000 1.0
C      1  0.5382240000000  0.4277280000000  0.5017270000000 1.0
C      1  0.4995790000000  0.5678470000000  0.5481760000000 1.0
C      1  0.5132520000000  0.5358380000000  0.4179830000000 1.0
C      1  0.5671950000000  0.4793650000000  0.4750210000000 1.0
C      1  0.5122510000000  0.5219290000000  0.4675840000000 1.0
C      1  0.4911740000000  0.4353450000000  0.4795070000000 1.0
C      1  0.5716150000000  0.5012510000000  0.4923960000000 1.0
C      1  0.5079620000000  0.4283120000000  0.5034900000000 1.0
C      1  0.5442840000000  0.4697940000000  0.5541480000000 1.0
C      1  0.5234400000000  0.5188250000000  0.4392790000000 1.0
C      1  0.4363250000000  0.5198770000000  0.5109680000000 1.0
C      1  0.4944710000000  0.5255510000000  0.5755280000000 1.0
C      1  0.4845910000000  0.5165410000000  0.4708960000000 1.0
C      1  0.4786830000000  0.5735120000000  0.4882310000000 1.0
C      1  0.4949490000000  0.4546770000000  0.4571230000000 1.0
C      1  0.4743420000000  0.4876370000000  0.4249570000000 1.0
C      1  0.5574140000000  0.5261380000000  0.4826950000000 1.0
C      1  0.5520810000000  0.5743550000000  0.4781290000000 1.0
C      1  0.5221570000000  0.4895400000000  0.4315270000000 1.0
C      1  0.5325010000000  0.5312050000000  0.5414570000000 1.0
C      1  0.4418920000000  0.4697460000000  0.4582970000000 1.0
C      1  0.5109220000000  0.4926360000000  0.5317570000000 1.0
C      1  0.4763580000000  0.4986270000000  0.4913090000000 1.0
C      1  0.4890850000000  0.5350130000000  0.4310660000000 1.0
C      1  0.4337570000000  0.5059540000000  0.5371300000000 1.0
C      1  0.4930760000000  0.5526090000000  0.5704250000000 1.0
C      1  0.5294550000000  0.5871070000000  0.4911950000000 1.0
C      1  0.5563540000000  0.4685170000000  0.5286590000000 1.0
C      1  0.4292090000000  0.4740950000000  0.5306650000000 1.0
C      1  0.4594630000000  0.4979870000000  0.5519500000000 1.0
C      1  0.5203570000000  0.4837840000000  0.5591580000000 1.0
C      1  0.5484370000000  0.4354820000000  0.4765830000000 1.0
C      1  0.4361830000000  0.4977340000000  0.4640390000000 1.0
C      1  0.5077800000000  0.4666600000000  0.5159570000000 1.0
C      1  0.4769810000000  0.5760500000000  0.5341540000000 1.0
C      1  0.5479540000000  0.4613780000000  0.4651620000000 1.0
C      1  0.4532080000000  0.4684970000000  0.5496900000000 1.0
C      1  0.5002840000000  0.4849280000000  0.4145910000000 1.0
C      1  0.5369530000000  0.4588400000000  0.5075690000000 1.0
C      1  0.5298510000000  0.5206640000000  0.4909990000000 1.0
C      1  0.5035450000000  0.5817310000000  0.4829150000000 1.0
C      1  0.5643890000000  0.5527060000000  0.4921340000000 1.0
C      1  0.4716300000000  0.4508370000000  0.5359900000000 1.0
C      1  0.5402200000000  0.5719050000000  0.5153060000000 1.0
C      1  0.4968860000000  0.4381120000000  0.5452540000000 1.0
C      1  0.4684110000000  0.4657930000000  0.4440560000000 1.0
C      1  0.4900410000000  0.4719700000000  0.4920270000000 1.0
C      1  0.5606810000000  0.4965010000000  0.5201520000000 1.0
C      1  0.5338110000000  0.5103230000000  0.5201740000000 1.0
C      1  0.4466670000000  0.4982200000000  0.4920750000000 1.0
C      1  0.5220880000000  0.4697950000000  0.4533640000000 1.0
C      1  0.5196680000000  0.5144030000000  0.5642570000000 1.0
C      1  0.4478760000000  0.5454310000000  0.5115450000000 1.0
C      1  0.4948020000000  0.4143500000000  0.5266140000000 1.0
C      1  0.4711290000000  0.5104480000000  0.5738610000000 1.0
END
