TITL C-951335-1172-336 1.42183995500195e-06 125000 -561.233884750847 0 0 92 (C1) n - 1
REM
REM in /home/bkarasulu/work/CARBON/AIRSS/Generating-Clusters/EDIP-Nigel-Params/with-SteepDescent/Only-C1/SD-CG/HFTN-CG
REM
REM
REM
REM
REM
REM ./C.cell (11c1c37f851c82e70ff6c80c92926a4b)
REM
REM compiler GCC version 9.2.1 20190827 (Red Hat 9.2.1-1)
REM options -cpp -mtune=generic -march=x86-64 -g -O0 -fpre-include=/usr/include/finclude/math-vector-fortran.h
REM seed 160679264 1492725082 -1717791929 -1809789464 -1017525356 -975320343 -1364508332 1231671473 -59285006 -1571439937 -1161659350 -522152838 1326279366 -184973370 -2100582385 -63703671 -695233221 -1078867885 -67029830 -454211834 -446572915 1534591087 2061835392 -646876653 -2012617258 428135213 -1557663886 -1531056539 -1948691650 544403938 1368905485 2000568811 -947392952
REM
CELL 1.54180   50.00000   50.00000   50.00000   90.00000   90.00000   90.00000
LATT -1
SFAC C  
C      1  0.5333800000000  0.4124310000000  0.5105700000000 1.0
C      1  0.5037860000000  0.5160590000000  0.5122400000000 1.0
C      1  0.4845560000000  0.5817190000000  0.4747040000000 1.0
C      1  0.4262480000000  0.5148750000000  0.4719590000000 1.0
C      1  0.4629780000000  0.4804700000000  0.5770860000000 1.0
C      1  0.5592710000000  0.4661580000000  0.5581160000000 1.0
C      1  0.5508330000000  0.5226970000000  0.4238760000000 1.0
C      1  0.5456840000000  0.5600720000000  0.5406560000000 1.0
C      1  0.5191340000000  0.4324650000000  0.5523630000000 1.0
C      1  0.4549080000000  0.4496390000000  0.5362860000000 1.0
C      1  0.4459440000000  0.4687570000000  0.5565400000000 1.0
C      1  0.5233140000000  0.5451990000000  0.5488060000000 1.0
C      1  0.5276570000000  0.5048580000000  0.5237500000000 1.0
C      1  0.5072890000000  0.5048210000000  0.5696520000000 1.0
C      1  0.4997570000000  0.5802030000000  0.4513900000000 1.0
C      1  0.4537920000000  0.4816650000000  0.4998880000000 1.0
C      1  0.5002680000000  0.5133210000000  0.4849880000000 1.0
C      1  0.4346130000000  0.4442690000000  0.5161620000000 1.0
C      1  0.4870550000000  0.5721690000000  0.5259260000000 1.0
C      1  0.4763400000000  0.5234210000000  0.4754000000000 1.0
C      1  0.4436660000000  0.4769800000000  0.4572920000000 1.0
C      1  0.5453660000000  0.4435440000000  0.4462990000000 1.0
C      1  0.5664920000000  0.4558240000000  0.4621830000000 1.0
C      1  0.5193230000000  0.5623430000000  0.4427520000000 1.0
C      1  0.5238170000000  0.5205380000000  0.4703240000000 1.0
C      1  0.4326270000000  0.5421120000000  0.5479450000000 1.0
C      1  0.5753750000000  0.4863980000000  0.5159420000000 1.0
C      1  0.5869380000000  0.4420000000000  0.4759500000000 1.0
C      1  0.5110610000000  0.5334520000000  0.4432440000000 1.0
C      1  0.4842420000000  0.5509790000000  0.5727250000000 1.0
C      1  0.5267350000000  0.5683820000000  0.4933830000000 1.0
C      1  0.5090880000000  0.4576720000000  0.4886640000000 1.0
C      1  0.5436400000000  0.4437710000000  0.5610760000000 1.0
C      1  0.5112080000000  0.4161350000000  0.5291550000000 1.0
C      1  0.4415710000000  0.5657460000000  0.5064580000000 1.0
C      1  0.5401870000000  0.4933360000000  0.4714920000000 1.0
C      1  0.5756540000000  0.4330180000000  0.4987900000000 1.0
C      1  0.4972770000000  0.4396370000000  0.4435470000000 1.0
C      1  0.4436580000000  0.4289780000000  0.4930830000000 1.0
C      1  0.4792020000000  0.5299740000000  0.4472820000000 1.0
C      1  0.4319710000000  0.5400420000000  0.5187090000000 1.0
C      1  0.5350470000000  0.5401400000000  0.4920640000000 1.0
C      1  0.4471770000000  0.5670910000000  0.5544860000000 1.0
C      1  0.5822880000000  0.5225860000000  0.4912980000000 1.0
C      1  0.4622120000000  0.5672940000000  0.5784350000000 1.0
C      1  0.4542990000000  0.5189450000000  0.4330350000000 1.0
C      1  0.4186680000000  0.4902820000000  0.4595720000000 1.0
C      1  0.5218380000000  0.4671240000000  0.5354000000000 1.0
C      1  0.5229660000000  0.5176620000000  0.4209220000000 1.0
C      1  0.5777080000000  0.5201540000000  0.4630630000000 1.0
C      1  0.5216420000000  0.4268790000000  0.4543360000000 1.0
C      1  0.4812450000000  0.5200960000000  0.5311020000000 1.0
C      1  0.5724130000000  0.4883990000000  0.5461690000000 1.0
C      1  0.4930060000000  0.4717270000000  0.5348750000000 1.0
C      1  0.4582580000000  0.5093490000000  0.5826450000000 1.0
C      1  0.4580770000000  0.5784630000000  0.5285060000000 1.0
C      1  0.5604280000000  0.5366070000000  0.4468640000000 1.0
C      1  0.4558250000000  0.5806700000000  0.4735840000000 1.0
C      1  0.4124330000000  0.4865750000000  0.5260780000000 1.0
C      1  0.4302730000000  0.5378940000000  0.4549390000000 1.0
C      1  0.5962330000000  0.5020530000000  0.5041060000000 1.0
C      1  0.5500930000000  0.4358990000000  0.5096480000000 1.0
C      1  0.4401140000000  0.5158230000000  0.5595450000000 1.0
C      1  0.4907510000000  0.4927410000000  0.4471350000000 1.0
C      1  0.4721630000000  0.4239740000000  0.4901010000000 1.0
C      1  0.5656570000000  0.4845270000000  0.4570100000000 1.0
C      1  0.5466230000000  0.4879400000000  0.5034070000000 1.0
C      1  0.4261710000000  0.4709020000000  0.5069370000000 1.0
C      1  0.4866760000000  0.4208300000000  0.5148140000000 1.0
C      1  0.5105550000000  0.4636490000000  0.4198000000000 1.0
C      1  0.4488520000000  0.4488300000000  0.4612210000000 1.0
C      1  0.5436270000000  0.5589130000000  0.4596700000000 1.0
C      1  0.5366720000000  0.4645750000000  0.4300830000000 1.0
C      1  0.5648380000000  0.5393950000000  0.5348410000000 1.0
C      1  0.5153200000000  0.4288240000000  0.4827970000000 1.0
C      1  0.5040150000000  0.4930100000000  0.4206060000000 1.0
C      1  0.4315410000000  0.4912770000000  0.5460880000000 1.0
C      1  0.4937880000000  0.5487740000000  0.5445140000000 1.0
C      1  0.5594430000000  0.5304700000000  0.5069630000000 1.0
C      1  0.4986240000000  0.5729840000000  0.4984360000000 1.0
C      1  0.4522820000000  0.5105660000000  0.4865230000000 1.0
C      1  0.4519600000000  0.5167530000000  0.5169520000000 1.0
C      1  0.4612360000000  0.4905530000000  0.4391260000000 1.0
C      1  0.4849680000000  0.4954220000000  0.5507910000000 1.0
C      1  0.5329040000000  0.4611930000000  0.5081500000000 1.0
C      1  0.5612810000000  0.5156780000000  0.5550960000000 1.0
C      1  0.4761910000000  0.4398560000000  0.4649020000000 1.0
C      1  0.5301270000000  0.5168200000000  0.5520990000000 1.0
C      1  0.5167080000000  0.4741950000000  0.4616360000000 1.0
C      1  0.4857150000000  0.5236080000000  0.5846810000000 1.0
C      1  0.4792970000000  0.4629090000000  0.5094280000000 1.0
C      1  0.4338680000000  0.5629960000000  0.4688680000000 1.0
END
