TITL C-951337-3020-659 -1.05003539350415e-06 125000 -214.45382949809 0 0 36 (C1) n - 1
REM
REM in /home/bkarasulu/work/CARBON/AIRSS/Generating-Clusters/EDIP-Nigel-Params/with-SteepDescent/Only-C1/SD-CG/HFTN-CG
REM
REM
REM
REM
REM
REM ./C.cell (11c1c37f851c82e70ff6c80c92926a4b)
REM
REM compiler GCC version 9.2.1 20190827 (Red Hat 9.2.1-1)
REM options -cpp -mtune=generic -march=x86-64 -g -O0 -fpre-include=/usr/include/finclude/math-vector-fortran.h
REM seed 37602476 1609175334 420823043 1205520984 1104792680 -515422534 -1812177446 -2099070224 1635229197 -491009928 128257422 -860672242 -256099231 -590585930 242133666 -1565072616 1501134463 -395230336 92727642 1866655612 834880199 -1480128952 2115378642 1147834677 -1792036743 -24431751 -844693181 597947467 1038416929 -159312846 508059709 668717416 1263955080
REM
CELL 1.54180   50.00000   50.00000   50.00000   90.00000   90.00000   90.00000
LATT -1
SFAC C  
C      1  0.5522120000000  0.4868910000000  0.4851900000000 1.0
C      1  0.5638900000000  0.5324890000000  0.5016070000000 1.0
C      1  0.5110870000000  0.5223980000000  0.5097550000000 1.0
C      1  0.5167850000000  0.4852900000000  0.5504560000000 1.0
C      1  0.4783710000000  0.5628690000000  0.4959300000000 1.0
C      1  0.5038220000000  0.4861190000000  0.4613050000000 1.0
C      1  0.4661800000000  0.4943640000000  0.5255930000000 1.0
C      1  0.5078020000000  0.4367940000000  0.4786710000000 1.0
C      1  0.5313290000000  0.5069360000000  0.5237510000000 1.0
C      1  0.4608610000000  0.5190130000000  0.4893180000000 1.0
C      1  0.4871100000000  0.5069470000000  0.5037300000000 1.0
C      1  0.5485260000000  0.4600290000000  0.4920340000000 1.0
C      1  0.4750930000000  0.4656870000000  0.5317700000000 1.0
C      1  0.5222160000000  0.5409570000000  0.4880970000000 1.0
C      1  0.4650440000000  0.4451100000000  0.4862530000000 1.0
C      1  0.4639870000000  0.4448990000000  0.5150100000000 1.0
C      1  0.5053740000000  0.5315870000000  0.4462250000000 1.0
C      1  0.4579590000000  0.5456900000000  0.5036170000000 1.0
C      1  0.4941720000000  0.4592310000000  0.4653850000000 1.0
C      1  0.5311660000000  0.4966000000000  0.4658190000000 1.0
C      1  0.5031610000000  0.4618910000000  0.5399670000000 1.0
C      1  0.4875390000000  0.5080310000000  0.4497350000000 1.0
C      1  0.4616490000000  0.5163720000000  0.5456680000000 1.0
C      1  0.5181660000000  0.4431980000000  0.5255430000000 1.0
C      1  0.4561180000000  0.5401330000000  0.5313540000000 1.0
C      1  0.5021990000000  0.5015820000000  0.5674270000000 1.0
C      1  0.5007570000000  0.5606610000000  0.4795380000000 1.0
C      1  0.4845830000000  0.4237560000000  0.4900430000000 1.0
C      1  0.4800720000000  0.5165270000000  0.5662040000000 1.0
C      1  0.5295710000000  0.5258420000000  0.4623790000000 1.0
C      1  0.4623850000000  0.5151820000000  0.4603680000000 1.0
C      1  0.4946040000000  0.5571380000000  0.4523770000000 1.0
C      1  0.4442150000000  0.4977290000000  0.5041680000000 1.0
C      1  0.5281130000000  0.4426680000000  0.4993260000000 1.0
C      1  0.5569930000000  0.5059210000000  0.5087480000000 1.0
C      1  0.5468900000000  0.5534650000000  0.4976390000000 1.0
END
