TITL C-951335-1172-217 -1.45530320274637e-06 125000 -786.745895551932 0 0 127 (C1) n - 1
REM
REM in /home/bkarasulu/work/CARBON/AIRSS/Generating-Clusters/EDIP-Nigel-Params/with-SteepDescent/Only-C1/SD-CG/HFTN-CG
REM
REM
REM
REM
REM
REM ./C.cell (11c1c37f851c82e70ff6c80c92926a4b)
REM
REM compiler GCC version 9.2.1 20190827 (Red Hat 9.2.1-1)
REM options -cpp -mtune=generic -march=x86-64 -g -O0 -fpre-include=/usr/include/finclude/math-vector-fortran.h
REM seed -1597067802 -1348229970 -275430397 2073277979 1242273372 1331782511 -370526 -971506975 36310803 1423432155 570583684 -1796376632 -1763401756 1328848811 1779942601 1759487914 115466452 225350940 1556862975 -803534004 -747114942 1871973304 -1985908456 -1804559087 -378084782 -1860540675 -1239462488 -1542822289 -1675442551 2080452893 -1352172223 -946145349 220903698
REM
CELL 1.54180   50.00000   50.00000   50.00000   90.00000   90.00000   90.00000
LATT -1
SFAC C  
C      1  0.4403410000000  0.5541770000000  0.4642840000000 1.0
C      1  0.5597720000000  0.4530690000000  0.4336850000000 1.0
C      1  0.4621240000000  0.4550130000000  0.4201800000000 1.0
C      1  0.5218920000000  0.4548330000000  0.4780720000000 1.0
C      1  0.4552280000000  0.4412580000000  0.4432280000000 1.0
C      1  0.4987500000000  0.5039880000000  0.4911820000000 1.0
C      1  0.4804310000000  0.5553480000000  0.4387710000000 1.0
C      1  0.5222420000000  0.4408660000000  0.5753830000000 1.0
C      1  0.5793580000000  0.4466580000000  0.4793040000000 1.0
C      1  0.6003490000000  0.4990640000000  0.5014620000000 1.0
C      1  0.4871590000000  0.6063720000000  0.4759380000000 1.0
C      1  0.4817390000000  0.5155220000000  0.4587090000000 1.0
C      1  0.4289640000000  0.5035600000000  0.4913900000000 1.0
C      1  0.4844370000000  0.5192920000000  0.5982810000000 1.0
C      1  0.4311710000000  0.4623390000000  0.5373360000000 1.0
C      1  0.4758170000000  0.4086170000000  0.5085580000000 1.0
C      1  0.5200950000000  0.4357960000000  0.4228260000000 1.0
C      1  0.5115480000000  0.4318280000000  0.5266030000000 1.0
C      1  0.5134200000000  0.5514260000000  0.5745810000000 1.0
C      1  0.5625500000000  0.5190560000000  0.4295120000000 1.0
C      1  0.5868200000000  0.5428900000000  0.4840600000000 1.0
C      1  0.4188890000000  0.4634860000000  0.4662450000000 1.0
C      1  0.4299880000000  0.5060690000000  0.4443410000000 1.0
C      1  0.4764750000000  0.4564180000000  0.5646880000000 1.0
C      1  0.4308630000000  0.4864790000000  0.5552090000000 1.0
C      1  0.4938650000000  0.4404520000000  0.5804060000000 1.0
C      1  0.5007460000000  0.4062410000000  0.4890490000000 1.0
C      1  0.4926940000000  0.5217670000000  0.4071490000000 1.0
C      1  0.4084330000000  0.5483990000000  0.4983940000000 1.0
C      1  0.4598430000000  0.5286860000000  0.5817210000000 1.0
C      1  0.4263240000000  0.5684980000000  0.4851370000000 1.0
C      1  0.4869410000000  0.4169810000000  0.5344130000000 1.0
C      1  0.5317400000000  0.4352340000000  0.5480300000000 1.0
C      1  0.5362440000000  0.4578850000000  0.4159370000000 1.0
C      1  0.4935020000000  0.4917820000000  0.5923570000000 1.0
C      1  0.5097140000000  0.5352700000000  0.5991100000000 1.0
C      1  0.4965360000000  0.4923770000000  0.4058710000000 1.0
C      1  0.5065630000000  0.5751010000000  0.4881970000000 1.0
C      1  0.4389460000000  0.4150450000000  0.5196100000000 1.0
C      1  0.5546890000000  0.5276990000000  0.5825720000000 1.0
C      1  0.4701990000000  0.5342510000000  0.4206050000000 1.0
C      1  0.5335000000000  0.5711110000000  0.5231210000000 1.0
C      1  0.5065460000000  0.4555000000000  0.5074560000000 1.0
C      1  0.4469220000000  0.5762640000000  0.5630070000000 1.0
C      1  0.5519760000000  0.5590400000000  0.5427700000000 1.0
C      1  0.4658030000000  0.5878470000000  0.4775560000000 1.0
C      1  0.4793960000000  0.4858660000000  0.5671010000000 1.0
C      1  0.4378360000000  0.5511110000000  0.5236100000000 1.0
C      1  0.5635030000000  0.5355200000000  0.5275330000000 1.0
C      1  0.4778490000000  0.4908980000000  0.5088640000000 1.0
C      1  0.5399490000000  0.4175780000000  0.4642790000000 1.0
C      1  0.4098780000000  0.4669840000000  0.5176910000000 1.0
C      1  0.4927900000000  0.5964960000000  0.5212310000000 1.0
C      1  0.4103080000000  0.5406300000000  0.5317500000000 1.0
C      1  0.5378860000000  0.5422270000000  0.5630420000000 1.0
C      1  0.5912490000000  0.4920520000000  0.5268880000000 1.0
C      1  0.5609910000000  0.5453850000000  0.4991880000000 1.0
C      1  0.5300280000000  0.4137460000000  0.4917740000000 1.0
C      1  0.5227410000000  0.4894780000000  0.5916450000000 1.0
C      1  0.5428950000000  0.5252080000000  0.4874720000000 1.0
C      1  0.5336960000000  0.5157450000000  0.6008310000000 1.0
C      1  0.4772530000000  0.4604980000000  0.5017520000000 1.0
C      1  0.5259220000000  0.4945030000000  0.5392770000000 1.0
C      1  0.5046890000000  0.5296150000000  0.5094750000000 1.0
C      1  0.4755070000000  0.4742900000000  0.4075210000000 1.0
C      1  0.5183460000000  0.4175050000000  0.4444090000000 1.0
C      1  0.5881280000000  0.5128110000000  0.4808650000000 1.0
C      1  0.4944030000000  0.4979960000000  0.5429430000000 1.0
C      1  0.4070620000000  0.4574500000000  0.4912130000000 1.0
C      1  0.4767350000000  0.4851780000000  0.4654830000000 1.0
C      1  0.4116830000000  0.5245140000000  0.4804430000000 1.0
C      1  0.4667480000000  0.4334460000000  0.4887640000000 1.0
C      1  0.5654550000000  0.4516940000000  0.5058080000000 1.0
C      1  0.4451710000000  0.5858260000000  0.4991870000000 1.0
C      1  0.4955530000000  0.4146260000000  0.4616800000000 1.0
C      1  0.4280130000000  0.4393290000000  0.4529740000000 1.0
C      1  0.4611850000000  0.5707880000000  0.4542380000000 1.0
C      1  0.4101650000000  0.5245100000000  0.4523070000000 1.0
C      1  0.4925090000000  0.5549420000000  0.5538090000000 1.0
C      1  0.5828130000000  0.5158380000000  0.5428140000000 1.0
C      1  0.5511860000000  0.4853510000000  0.5589200000000 1.0
C      1  0.4457760000000  0.5771210000000  0.5354340000000 1.0
C      1  0.5115620000000  0.5195270000000  0.4484280000000 1.0
C      1  0.5561240000000  0.4970880000000  0.4494290000000 1.0
C      1  0.4094640000000  0.5117220000000  0.5378860000000 1.0
C      1  0.4573540000000  0.5289200000000  0.5257420000000 1.0
C      1  0.4680130000000  0.5350990000000  0.4794280000000 1.0
C      1  0.5917990000000  0.4675330000000  0.4644570000000 1.0
C      1  0.4864440000000  0.5284220000000  0.5353360000000 1.0
C      1  0.5514290000000  0.5770370000000  0.4700500000000 1.0
C      1  0.5252020000000  0.4784000000000  0.5148590000000 1.0
C      1  0.4407870000000  0.4340230000000  0.5414460000000 1.0
C      1  0.5236790000000  0.5653150000000  0.4635990000000 1.0
C      1  0.5595600000000  0.5022290000000  0.4791480000000 1.0
C      1  0.5244830000000  0.4923450000000  0.4454770000000 1.0
C      1  0.5089970000000  0.5636880000000  0.4357750000000 1.0
C      1  0.4691280000000  0.4185540000000  0.4529130000000 1.0
C      1  0.5478930000000  0.4262070000000  0.5148360000000 1.0
C      1  0.5260330000000  0.5361990000000  0.4673370000000 1.0
C      1  0.5250180000000  0.4875730000000  0.4153100000000 1.0
C      1  0.5407520000000  0.5167840000000  0.4101560000000 1.0
C      1  0.5060450000000  0.4734380000000  0.4603420000000 1.0
C      1  0.5718230000000  0.4527070000000  0.5559150000000 1.0
C      1  0.4538540000000  0.5007330000000  0.5668850000000 1.0
C      1  0.4240860000000  0.4175180000000  0.4714820000000 1.0
C      1  0.5487910000000  0.5816330000000  0.4996590000000 1.0
C      1  0.4380540000000  0.4868810000000  0.4660520000000 1.0
C      1  0.4661320000000  0.5568290000000  0.5694210000000 1.0
C      1  0.5317310000000  0.5224130000000  0.5296240000000 1.0
C      1  0.5367500000000  0.4619430000000  0.5910860000000 1.0
C      1  0.5163090000000  0.5336920000000  0.4206160000000 1.0
C      1  0.5697990000000  0.5069990000000  0.5676700000000 1.0
C      1  0.4093480000000  0.4954600000000  0.5137780000000 1.0
C      1  0.5759110000000  0.5601060000000  0.4605320000000 1.0
C      1  0.4386800000000  0.4271340000000  0.4941190000000 1.0
C      1  0.4893960000000  0.5512350000000  0.4953050000000 1.0
C      1  0.5651920000000  0.4597180000000  0.5831720000000 1.0
C      1  0.5464270000000  0.4730510000000  0.4939200000000 1.0
C      1  0.5704090000000  0.5444340000000  0.4378380000000 1.0
C      1  0.5759080000000  0.4759090000000  0.4421020000000 1.0
C      1  0.4501240000000  0.5166850000000  0.4284870000000 1.0
C      1  0.4565240000000  0.5142720000000  0.5009810000000 1.0
C      1  0.4676740000000  0.4290580000000  0.5543430000000 1.0
C      1  0.5064320000000  0.5764420000000  0.5347650000000 1.0
C      1  0.5778830000000  0.4654450000000  0.5303580000000 1.0
C      1  0.5004980000000  0.6117010000000  0.4995790000000 1.0
C      1  0.5550550000000  0.4422880000000  0.4618440000000 1.0
END
