TITL C-950525-1983-672 -3.17466603868251e-06 125000 -1153.16015764386 0 0 186 (C1) n - 1
REM
REM in /home/bkarasulu/work/CARBON/AIRSS/Generating-Clusters/EDIP-Nigel-Params/with-SteepDescent/Only-C1/SD-CG/HFTN-CG
REM
REM
REM
REM
REM
REM ./C.cell (11c1c37f851c82e70ff6c80c92926a4b)
REM
REM compiler GCC version 9.2.1 20190827 (Red Hat 9.2.1-1)
REM options -cpp -mtune=generic -march=x86-64 -g -O0 -fpre-include=/usr/include/finclude/math-vector-fortran.h
REM seed 343844153 1463096954 127838538 2139227489 -1407689158 -1235839493 -702533524 -1964918028 -528708733 -1807176398 1203906904 -1536085933 804442 -1265478149 -182696941 1047747645 669817624 526751208 1041918592 1274551798 -97393375 -856232669 1826818942 318068781 118479969 -531187562 253847124 -1131457797 1497161601 -1465501718 1933472727 -1092563313 474197611
REM
CELL 1.54180   50.00000   50.00000   50.00000   90.00000   90.00000   90.00000
LATT -1
SFAC C  
C      1  0.5251660000000  0.5952520000000  0.4299420000000 1.0
C      1  0.5012710000000  0.5317830000000  0.4583370000000 1.0
C      1  0.4031640000000  0.4610750000000  0.4833310000000 1.0
C      1  0.4594580000000  0.5760780000000  0.4438310000000 1.0
C      1  0.5288530000000  0.4343650000000  0.5722130000000 1.0
C      1  0.5764060000000  0.5416550000000  0.5118370000000 1.0
C      1  0.4591000000000  0.4936080000000  0.6046260000000 1.0
C      1  0.4007590000000  0.5609660000000  0.4869060000000 1.0
C      1  0.4415630000000  0.5994690000000  0.5380050000000 1.0
C      1  0.5975670000000  0.5243610000000  0.4594770000000 1.0
C      1  0.6009280000000  0.4596700000000  0.5307870000000 1.0
C      1  0.5523110000000  0.5930070000000  0.5744140000000 1.0
C      1  0.5587930000000  0.5513280000000  0.4906500000000 1.0
C      1  0.5569340000000  0.6042390000000  0.4803220000000 1.0
C      1  0.4528120000000  0.4740420000000  0.4525070000000 1.0
C      1  0.5141040000000  0.5308640000000  0.5342440000000 1.0
C      1  0.5100620000000  0.4538660000000  0.4634400000000 1.0
C      1  0.5292350000000  0.5155750000000  0.3921800000000 1.0
C      1  0.4337250000000  0.5608360000000  0.5874260000000 1.0
C      1  0.5970990000000  0.5193190000000  0.5072900000000 1.0
C      1  0.5452950000000  0.4762770000000  0.5937870000000 1.0
C      1  0.5792660000000  0.4945200000000  0.5137710000000 1.0
C      1  0.4492080000000  0.4135610000000  0.5119140000000 1.0
C      1  0.3828490000000  0.5347700000000  0.5090950000000 1.0
C      1  0.3684220000000  0.4936700000000  0.4870790000000 1.0
C      1  0.5849860000000  0.4580200000000  0.4258920000000 1.0
C      1  0.4853490000000  0.3848650000000  0.5261910000000 1.0
C      1  0.5087910000000  0.5171360000000  0.5082220000000 1.0
C      1  0.5217990000000  0.5207020000000  0.4788290000000 1.0
C      1  0.4130420000000  0.5674610000000  0.5119110000000 1.0
C      1  0.5060380000000  0.4106990000000  0.4558340000000 1.0
C      1  0.5208000000000  0.4920320000000  0.4367390000000 1.0
C      1  0.4757900000000  0.4745730000000  0.5251700000000 1.0
C      1  0.5993780000000  0.4783820000000  0.4776830000000 1.0
C      1  0.4292540000000  0.4875740000000  0.5676250000000 1.0
C      1  0.5337910000000  0.3988150000000  0.4523630000000 1.0
C      1  0.5783720000000  0.4418600000000  0.5721420000000 1.0
C      1  0.5282000000000  0.4281860000000  0.4841320000000 1.0
C      1  0.4522540000000  0.4646460000000  0.5030320000000 1.0
C      1  0.4009630000000  0.4614510000000  0.5151400000000 1.0
C      1  0.5193930000000  0.5108990000000  0.5552560000000 1.0
C      1  0.4238770000000  0.3927770000000  0.4659160000000 1.0
C      1  0.4426250000000  0.4362440000000  0.5582890000000 1.0
C      1  0.4981810000000  0.4027150000000  0.5686660000000 1.0
C      1  0.4997450000000  0.4410440000000  0.5710390000000 1.0
C      1  0.5212010000000  0.5340030000000  0.5971500000000 1.0
C      1  0.4362640000000  0.5065000000000  0.5896970000000 1.0
C      1  0.4161260000000  0.5387420000000  0.4478260000000 1.0
C      1  0.4665810000000  0.4288340000000  0.4319770000000 1.0
C      1  0.5447710000000  0.5772350000000  0.4393590000000 1.0
C      1  0.4268040000000  0.4380130000000  0.4533750000000 1.0
C      1  0.5173090000000  0.4844510000000  0.4650790000000 1.0
C      1  0.5373050000000  0.4423020000000  0.4449560000000 1.0
C      1  0.3957620000000  0.4931380000000  0.4482910000000 1.0
C      1  0.5486300000000  0.5021540000000  0.5167670000000 1.0
C      1  0.4485340000000  0.4916250000000  0.3955360000000 1.0
C      1  0.4267890000000  0.4549460000000  0.4284680000000 1.0
C      1  0.5569100000000  0.4173820000000  0.5428430000000 1.0
C      1  0.4457660000000  0.5965970000000  0.4884870000000 1.0
C      1  0.4646830000000  0.4665270000000  0.5942330000000 1.0
C      1  0.5498580000000  0.4458670000000  0.5345870000000 1.0
C      1  0.4732940000000  0.5509950000000  0.4019180000000 1.0
C      1  0.4861790000000  0.6088520000000  0.4638770000000 1.0
C      1  0.4800960000000  0.5088460000000  0.4217020000000 1.0
C      1  0.4771090000000  0.5161880000000  0.4693760000000 1.0
C      1  0.4637230000000  0.4240320000000  0.5389220000000 1.0
C      1  0.4981670000000  0.5771600000000  0.5734500000000 1.0
C      1  0.4959150000000  0.4271360000000  0.4309520000000 1.0
C      1  0.4166770000000  0.4839890000000  0.4297350000000 1.0
C      1  0.3982600000000  0.5195860000000  0.4575790000000 1.0
C      1  0.4585300000000  0.6222990000000  0.4869030000000 1.0
C      1  0.5271370000000  0.4067650000000  0.5644100000000 1.0
C      1  0.4464720000000  0.5356020000000  0.5825660000000 1.0
C      1  0.4337480000000  0.5331950000000  0.4260700000000 1.0
C      1  0.4382810000000  0.5163340000000  0.4979950000000 1.0
C      1  0.4726790000000  0.5596880000000  0.5288750000000 1.0
C      1  0.4999590000000  0.5629610000000  0.4553890000000 1.0
C      1  0.5791090000000  0.5662450000000  0.4742080000000 1.0
C      1  0.4436560000000  0.4135130000000  0.4588010000000 1.0
C      1  0.4140900000000  0.5016220000000  0.5456500000000 1.0
C      1  0.5360460000000  0.4907080000000  0.5411170000000 1.0
C      1  0.4890500000000  0.5836430000000  0.5271560000000 1.0
C      1  0.4537500000000  0.5186790000000  0.5321910000000 1.0
C      1  0.4439810000000  0.5817250000000  0.5715910000000 1.0
C      1  0.4424530000000  0.5416530000000  0.5526240000000 1.0
C      1  0.5639880000000  0.4538890000000  0.5074170000000 1.0
C      1  0.5598030000000  0.5010540000000  0.5850180000000 1.0
C      1  0.5136220000000  0.5810750000000  0.5476880000000 1.0
C      1  0.5905150000000  0.5294030000000  0.5559160000000 1.0
C      1  0.5649970000000  0.5870630000000  0.4592330000000 1.0
C      1  0.4995240000000  0.3956120000000  0.5046000000000 1.0
C      1  0.5459730000000  0.4775540000000  0.4970290000000 1.0
C      1  0.5438900000000  0.5507280000000  0.4255190000000 1.0
C      1  0.5086650000000  0.5081700000000  0.6087750000000 1.0
C      1  0.5393170000000  0.4409710000000  0.4056970000000 1.0
C      1  0.4617660000000  0.4169920000000  0.4843700000000 1.0
C      1  0.5096840000000  0.4457370000000  0.4108380000000 1.0
C      1  0.5592150000000  0.5973100000000  0.5310060000000 1.0
C      1  0.4979850000000  0.4868270000000  0.5071620000000 1.0
C      1  0.6013230000000  0.4592820000000  0.5009460000000 1.0
C      1  0.6000180000000  0.4963950000000  0.5841870000000 1.0
C      1  0.4305650000000  0.5047700000000  0.4138680000000 1.0
C      1  0.5637780000000  0.5302660000000  0.4263770000000 1.0
C      1  0.4082280000000  0.4080410000000  0.4845450000000 1.0
C      1  0.4870110000000  0.4012600000000  0.4788910000000 1.0
C      1  0.3827250000000  0.4774090000000  0.4693190000000 1.0
C      1  0.4038740000000  0.4341750000000  0.4702600000000 1.0
C      1  0.5015190000000  0.5789360000000  0.4295360000000 1.0
C      1  0.4704330000000  0.6042220000000  0.5418450000000 1.0
C      1  0.4672100000000  0.4948330000000  0.5457940000000 1.0
C      1  0.5121370000000  0.4920980000000  0.3901640000000 1.0
C      1  0.6083280000000  0.5530520000000  0.5460650000000 1.0
C      1  0.5549640000000  0.5095160000000  0.4071500000000 1.0
C      1  0.5690990000000  0.5180400000000  0.4535400000000 1.0
C      1  0.4311380000000  0.5048570000000  0.4718800000000 1.0
C      1  0.5379600000000  0.6001010000000  0.5511760000000 1.0
C      1  0.5281980000000  0.5569160000000  0.5352550000000 1.0
C      1  0.4187080000000  0.4397490000000  0.5427780000000 1.0
C      1  0.5575800000000  0.4728830000000  0.5519080000000 1.0
C      1  0.5166740000000  0.4813010000000  0.5981050000000 1.0
C      1  0.5321710000000  0.5692250000000  0.5040370000000 1.0
C      1  0.6030550000000  0.5017380000000  0.5561440000000 1.0
C      1  0.5499600000000  0.5286920000000  0.4748220000000 1.0
C      1  0.6064020000000  0.5071650000000  0.4811780000000 1.0
C      1  0.4211100000000  0.4101120000000  0.5097770000000 1.0
C      1  0.4842680000000  0.5807820000000  0.4736600000000 1.0
C      1  0.5875450000000  0.5754130000000  0.5451610000000 1.0
C      1  0.3971890000000  0.4895750000000  0.5250380000000 1.0
C      1  0.4669550000000  0.4709860000000  0.4030210000000 1.0
C      1  0.5063810000000  0.5178140000000  0.4319830000000 1.0
C      1  0.5581260000000  0.4359050000000  0.4839120000000 1.0
C      1  0.5663030000000  0.5302570000000  0.5377740000000 1.0
C      1  0.4774090000000  0.3990690000000  0.5488740000000 1.0
C      1  0.5499940000000  0.5479370000000  0.5551410000000 1.0
C      1  0.5649290000000  0.4870050000000  0.4513740000000 1.0
C      1  0.4769030000000  0.4533650000000  0.4604110000000 1.0
C      1  0.4683900000000  0.4448030000000  0.4867420000000 1.0
C      1  0.4601940000000  0.5052920000000  0.4464550000000 1.0
C      1  0.4145010000000  0.5312030000000  0.5476320000000 1.0
C      1  0.5390700000000  0.5243010000000  0.5756960000000 1.0
C      1  0.5208070000000  0.4155040000000  0.5105630000000 1.0
C      1  0.5991160000000  0.4686740000000  0.4489030000000 1.0
C      1  0.4743460000000  0.5341630000000  0.5163040000000 1.0
C      1  0.4896390000000  0.4904690000000  0.4785100000000 1.0
C      1  0.4963140000000  0.4691260000000  0.3981260000000 1.0
C      1  0.5472510000000  0.4151960000000  0.4329470000000 1.0
C      1  0.5468560000000  0.5949710000000  0.5051260000000 1.0
C      1  0.5522370000000  0.4485030000000  0.5837330000000 1.0
C      1  0.4740110000000  0.5377730000000  0.5937450000000 1.0
C      1  0.3990210000000  0.5480580000000  0.5290590000000 1.0
C      1  0.5588360000000  0.3862820000000  0.5043200000000 1.0
C      1  0.5823700000000  0.5083940000000  0.6011730000000 1.0
C      1  0.5008280000000  0.5605190000000  0.4059910000000 1.0
C      1  0.4942620000000  0.4614900000000  0.5919600000000 1.0
C      1  0.4985430000000  0.5504960000000  0.5857750000000 1.0
C      1  0.4309270000000  0.5905070000000  0.5128180000000 1.0
C      1  0.4755960000000  0.5237040000000  0.3972970000000 1.0
C      1  0.4838240000000  0.6309790000000  0.4801430000000 1.0
C      1  0.5595900000000  0.4623340000000  0.4124530000000 1.0
C      1  0.5671960000000  0.5704370000000  0.5654540000000 1.0
C      1  0.4191410000000  0.5609050000000  0.4654420000000 1.0
C      1  0.5529850000000  0.3922510000000  0.4756730000000 1.0
C      1  0.5856810000000  0.4825040000000  0.5399050000000 1.0
C      1  0.5750460000000  0.4115600000000  0.4798300000000 1.0
C      1  0.4531030000000  0.4493980000000  0.4159340000000 1.0
C      1  0.5200970000000  0.5374410000000  0.4122370000000 1.0
C      1  0.4408860000000  0.5798930000000  0.4649740000000 1.0
C      1  0.4823280000000  0.5095400000000  0.5943330000000 1.0
C      1  0.5179130000000  0.4434070000000  0.5248960000000 1.0
C      1  0.3800150000000  0.5063010000000  0.5089990000000 1.0
C      1  0.5485560000000  0.4869980000000  0.4253940000000 1.0
C      1  0.5940300000000  0.4397250000000  0.5495190000000 1.0
C      1  0.6005600000000  0.5519870000000  0.4626710000000 1.0
C      1  0.4331870000000  0.4745850000000  0.4779770000000 1.0
C      1  0.4615740000000  0.5308880000000  0.4903830000000 1.0
C      1  0.5432900000000  0.4004150000000  0.5235880000000 1.0
C      1  0.5590520000000  0.4552910000000  0.4609230000000 1.0
C      1  0.4899370000000  0.5016660000000  0.5650830000000 1.0
C      1  0.5190110000000  0.4656810000000  0.5047880000000 1.0
C      1  0.4294040000000  0.4525830000000  0.5193460000000 1.0
C      1  0.4717530000000  0.5919760000000  0.5695670000000 1.0
C      1  0.4478960000000  0.4633440000000  0.5699110000000 1.0
C      1  0.6181640000000  0.5265660000000  0.5288970000000 1.0
C      1  0.4886990000000  0.4471790000000  0.5401480000000 1.0
C      1  0.5018660000000  0.5802570000000  0.4994560000000 1.0
C      1  0.4543530000000  0.5549840000000  0.4238640000000 1.0
END
