TITL C-951333-8791-642 -1.00763404189537e-06 125000 -181.227235276911 0 0 32 (C1) n - 1
REM
REM in /home/bkarasulu/work/CARBON/AIRSS/Generating-Clusters/EDIP-Nigel-Params/with-SteepDescent/Only-C1/SD-CG/HFTN-CG
REM
REM
REM
REM
REM
REM ./C.cell (11c1c37f851c82e70ff6c80c92926a4b)
REM
REM compiler GCC version 9.2.1 20190827 (Red Hat 9.2.1-1)
REM options -cpp -mtune=generic -march=x86-64 -g -O0 -fpre-include=/usr/include/finclude/math-vector-fortran.h
REM seed -1474443218 131042048 378167076 1361250634 -2073095342 -269909910 648664113 1480571031 189430969 2064330247 1203303217 -931212309 -1761744610 -480978105 1879335940 416802817 -1411059327 727137293 -526990857 1267066818 1554602455 1956590405 670197757 243219154 -1396581765 1865743809 -310324155 -1194276021 -1580367014 203727780 -1769478161 -557417489 1967973906
REM
CELL 1.54180   50.00000   50.00000   50.00000   90.00000   90.00000   90.00000
LATT -1
SFAC C  
C      1  0.5078910000000  0.5574400000000  0.5213660000000 1.0
C      1  0.5448520000000  0.5252970000000  0.5366870000000 1.0
C      1  0.4631170000000  0.5327370000000  0.4553140000000 1.0
C      1  0.4485010000000  0.5213890000000  0.4758740000000 1.0
C      1  0.5010500000000  0.4933470000000  0.4788530000000 1.0
C      1  0.5017120000000  0.4513320000000  0.4639060000000 1.0
C      1  0.4747220000000  0.4781210000000  0.4726950000000 1.0
C      1  0.4822200000000  0.4709100000000  0.5561530000000 1.0
C      1  0.5362530000000  0.5178400000000  0.4517580000000 1.0
C      1  0.4600380000000  0.4745080000000  0.5393980000000 1.0
C      1  0.4993590000000  0.5073120000000  0.5048420000000 1.0
C      1  0.5629560000000  0.4789810000000  0.5280390000000 1.0
C      1  0.5175290000000  0.5303120000000  0.5304260000000 1.0
C      1  0.5496210000000  0.4593940000000  0.5158990000000 1.0
C      1  0.5008570000000  0.5591390000000  0.4717480000000 1.0
C      1  0.4727410000000  0.4578000000000  0.5211750000000 1.0
C      1  0.5226680000000  0.5050670000000  0.4320760000000 1.0
C      1  0.5612770000000  0.5043980000000  0.5356040000000 1.0
C      1  0.5253260000000  0.4563950000000  0.5030740000000 1.0
C      1  0.5202930000000  0.4700520000000  0.4781230000000 1.0
C      1  0.4961530000000  0.5154930000000  0.5481760000000 1.0
C      1  0.4870740000000  0.4347450000000  0.4830550000000 1.0
C      1  0.4776690000000  0.5124340000000  0.5244900000000 1.0
C      1  0.5096270000000  0.4330300000000  0.5005970000000 1.0
C      1  0.4530010000000  0.4966990000000  0.4643720000000 1.0
C      1  0.5073550000000  0.5134380000000  0.4560590000000 1.0
C      1  0.4678850000000  0.4551730000000  0.4926970000000 1.0
C      1  0.5008030000000  0.4908990000000  0.5605020000000 1.0
C      1  0.4801220000000  0.5569210000000  0.5255310000000 1.0
C      1  0.5131980000000  0.5643650000000  0.4949840000000 1.0
C      1  0.4627460000000  0.5363960000000  0.5211180000000 1.0
C      1  0.4913850000000  0.5386360000000  0.4554110000000 1.0
END
