TITL C-951347-9520-585 -1.72708559698924e-06 125000 -620.88408101941 0 0 99 (C1) n - 1
REM
REM in /home/bkarasulu/work/CARBON/AIRSS/Generating-Clusters/EDIP-Nigel-Params/with-SteepDescent/Only-C1/SD-CG/HFTN-CG
REM
REM
REM
REM
REM
REM ./C.cell (11c1c37f851c82e70ff6c80c92926a4b)
REM
REM compiler GCC version 9.2.1 20190827 (Red Hat 9.2.1-1)
REM options -cpp -mtune=generic -march=x86-64 -g -O0 -fpre-include=/usr/include/finclude/math-vector-fortran.h
REM seed 1226025716 -170310221 -1061727379 -79167408 -204841184 -852196374 1108955244 -2089495991 1385337287 1850009194 122942469 -877131776 1447502847 1887824030 638128117 -2089329850 -1183845182 1822912760 177814241 -827942565 1436085847 -985581931 -704412906 59914470 1342404111 662108113 1151951898 961073502 68246886 -908561613 -1167858531 -1873912413 -776064822
REM
CELL 1.54180   50.00000   50.00000   50.00000   90.00000   90.00000   90.00000
LATT -1
SFAC C  
C      1  0.4744320000000  0.4320250000000  0.4555930000000 1.0
C      1  0.4822410000000  0.4589480000000  0.4443900000000 1.0
C      1  0.5179540000000  0.4804730000000  0.5214080000000 1.0
C      1  0.5303400000000  0.4656630000000  0.5004350000000 1.0
C      1  0.5105660000000  0.4259040000000  0.5154160000000 1.0
C      1  0.4586250000000  0.4750620000000  0.4423010000000 1.0
C      1  0.4554780000000  0.4350980000000  0.4794020000000 1.0
C      1  0.5851480000000  0.4509180000000  0.4943480000000 1.0
C      1  0.4401810000000  0.5302560000000  0.5117300000000 1.0
C      1  0.4993780000000  0.5376080000000  0.4133730000000 1.0
C      1  0.5386530000000  0.5921180000000  0.4725930000000 1.0
C      1  0.5396910000000  0.4537990000000  0.5715830000000 1.0
C      1  0.5174200000000  0.5985710000000  0.4909090000000 1.0
C      1  0.4673440000000  0.5822210000000  0.5277930000000 1.0
C      1  0.4480140000000  0.5005350000000  0.4423150000000 1.0
C      1  0.5238450000000  0.4349860000000  0.4634480000000 1.0
C      1  0.4679910000000  0.5134640000000  0.5149840000000 1.0
C      1  0.4242520000000  0.4634880000000  0.5730340000000 1.0
C      1  0.4213870000000  0.4755490000000  0.5475830000000 1.0
C      1  0.4935290000000  0.4117720000000  0.4948270000000 1.0
C      1  0.5521850000000  0.5566230000000  0.5368080000000 1.0
C      1  0.5631720000000  0.5314650000000  0.4957600000000 1.0
C      1  0.5194380000000  0.5341740000000  0.4359260000000 1.0
C      1  0.4876800000000  0.5593000000000  0.4658870000000 1.0
C      1  0.5687770000000  0.5346020000000  0.5252180000000 1.0
C      1  0.4449890000000  0.4667920000000  0.5287540000000 1.0
C      1  0.4951190000000  0.4515770000000  0.5552710000000 1.0
C      1  0.5258360000000  0.4614350000000  0.4224530000000 1.0
C      1  0.4963450000000  0.5788390000000  0.5358810000000 1.0
C      1  0.4386960000000  0.5840090000000  0.4879050000000 1.0
C      1  0.4629640000000  0.4811860000000  0.5927280000000 1.0
C      1  0.4989620000000  0.4180870000000  0.4659920000000 1.0
C      1  0.5478730000000  0.5727020000000  0.4907280000000 1.0
C      1  0.4501000000000  0.4394210000000  0.5409660000000 1.0
C      1  0.4347380000000  0.5605430000000  0.4731370000000 1.0
C      1  0.5264710000000  0.4812590000000  0.4454730000000 1.0
C      1  0.4908600000000  0.5127740000000  0.5722090000000 1.0
C      1  0.4642570000000  0.4137280000000  0.4983940000000 1.0
C      1  0.4572650000000  0.5420400000000  0.5554450000000 1.0
C      1  0.5635460000000  0.4496160000000  0.4496670000000 1.0
C      1  0.4666370000000  0.4430500000000  0.5647510000000 1.0
C      1  0.4851560000000  0.5613870000000  0.4184050000000 1.0
C      1  0.5399830000000  0.5162290000000  0.5635330000000 1.0
C      1  0.4676630000000  0.4874270000000  0.5366520000000 1.0
C      1  0.5773120000000  0.4768890000000  0.5021650000000 1.0
C      1  0.4607860000000  0.5940400000000  0.5022960000000 1.0
C      1  0.5089410000000  0.4264290000000  0.5450770000000 1.0
C      1  0.5368220000000  0.4289340000000  0.5558560000000 1.0
C      1  0.5043150000000  0.5368530000000  0.4614650000000 1.0
C      1  0.5375050000000  0.5803980000000  0.4473120000000 1.0
C      1  0.5552150000000  0.4354010000000  0.5333880000000 1.0
C      1  0.4808380000000  0.5420940000000  0.5180110000000 1.0
C      1  0.5518230000000  0.4821590000000  0.4878350000000 1.0
C      1  0.4796030000000  0.5722730000000  0.4425700000000 1.0
C      1  0.4440570000000  0.5171310000000  0.5640030000000 1.0
C      1  0.5453300000000  0.4257870000000  0.4827660000000 1.0
C      1  0.5025510000000  0.4675310000000  0.4661760000000 1.0
C      1  0.4181300000000  0.5132980000000  0.5215210000000 1.0
C      1  0.4565670000000  0.5180150000000  0.4225560000000 1.0
C      1  0.5300520000000  0.5076850000000  0.5213620000000 1.0
C      1  0.4351180000000  0.5337790000000  0.4827030000000 1.0
C      1  0.4485190000000  0.5603970000000  0.5347560000000 1.0
C      1  0.5054820000000  0.5552280000000  0.5518740000000 1.0
C      1  0.5379630000000  0.4382600000000  0.4368180000000 1.0
C      1  0.4334730000000  0.4836680000000  0.4849080000000 1.0
C      1  0.5563800000000  0.5095700000000  0.5377860000000 1.0
C      1  0.5420390000000  0.5545330000000  0.4369070000000 1.0
C      1  0.5421380000000  0.5103700000000  0.4928750000000 1.0
C      1  0.4157350000000  0.4905600000000  0.5054850000000 1.0
C      1  0.5545390000000  0.4777670000000  0.4578360000000 1.0
C      1  0.4852220000000  0.4753530000000  0.4922160000000 1.0
C      1  0.5335800000000  0.5459230000000  0.5575350000000 1.0
C      1  0.5735500000000  0.4833460000000  0.5312590000000 1.0
C      1  0.4500820000000  0.4587230000000  0.5832750000000 1.0
C      1  0.5176960000000  0.5892410000000  0.5186560000000 1.0
C      1  0.4967650000000  0.4620030000000  0.4176770000000 1.0
C      1  0.5659650000000  0.5391180000000  0.4464350000000 1.0
C      1  0.5368150000000  0.4376780000000  0.5082580000000 1.0
C      1  0.4662200000000  0.4973100000000  0.5683650000000 1.0
C      1  0.5614850000000  0.5111830000000  0.4400600000000 1.0
C      1  0.5720070000000  0.4351220000000  0.4744460000000 1.0
C      1  0.4905590000000  0.4875580000000  0.4070200000000 1.0
C      1  0.4572260000000  0.4184350000000  0.5246620000000 1.0
C      1  0.4552070000000  0.4636820000000  0.4938470000000 1.0
C      1  0.5335320000000  0.5081190000000  0.4337450000000 1.0
C      1  0.5083010000000  0.5202860000000  0.4847830000000 1.0
C      1  0.5117370000000  0.5384540000000  0.5112640000000 1.0
C      1  0.4705270000000  0.5587730000000  0.4905110000000 1.0
C      1  0.5674880000000  0.4592630000000  0.5460030000000 1.0
C      1  0.4393000000000  0.5077200000000  0.4687750000000 1.0
C      1  0.5753280000000  0.5433550000000  0.4728810000000 1.0
C      1  0.5331570000000  0.5640400000000  0.5144960000000 1.0
C      1  0.4203170000000  0.5053100000000  0.5493520000000 1.0
C      1  0.5157390000000  0.4987450000000  0.5676690000000 1.0
C      1  0.4831570000000  0.5043960000000  0.4909190000000 1.0
C      1  0.4812040000000  0.5142600000000  0.4096720000000 1.0
C      1  0.4914560000000  0.4694410000000  0.5300710000000 1.0
C      1  0.4850600000000  0.5386960000000  0.5617430000000 1.0
C      1  0.5149020000000  0.4686960000000  0.5726980000000 1.0
END
