TITL C-951342-2639-462 -7.69765134417258e-07 125000 -412.665447613256 0 0 67 (C1) n - 1
REM
REM in /home/bkarasulu/work/CARBON/AIRSS/Generating-Clusters/EDIP-Nigel-Params/with-SteepDescent/Only-C1/SD-CG/HFTN-CG
REM
REM
REM
REM
REM
REM ./C.cell (11c1c37f851c82e70ff6c80c92926a4b)
REM
REM compiler GCC version 9.2.1 20190827 (Red Hat 9.2.1-1)
REM options -cpp -mtune=generic -march=x86-64 -g -O0 -fpre-include=/usr/include/finclude/math-vector-fortran.h
REM seed 396088947 1625009125 -1361700782 -1104723322 -956274129 -1680197158 2066111168 1935822023 -1986180292 1075996935 -1101594299 -865780839 871307612 419911198 1038055528 -1971340421 620131513 -185606112 293100579 646612669 -660746108 -1914174414 -23435751 -1224190774 834751761 -207180466 -189913631 -337985974 2137089446 -1075136997 1088771632 -1877840918 -995887936
REM
CELL 1.54180   50.00000   50.00000   50.00000   90.00000   90.00000   90.00000
LATT -1
SFAC C  
C      1  0.5384750000000  0.4344570000000  0.4787190000000 1.0
C      1  0.4751720000000  0.5476910000000  0.4515400000000 1.0
C      1  0.5159770000000  0.4163080000000  0.4814530000000 1.0
C      1  0.5265970000000  0.4127360000000  0.5086140000000 1.0
C      1  0.5700050000000  0.5292390000000  0.5488930000000 1.0
C      1  0.5111500000000  0.5516440000000  0.4878920000000 1.0
C      1  0.4900390000000  0.4805680000000  0.5122360000000 1.0
C      1  0.5409370000000  0.5613130000000  0.4897480000000 1.0
C      1  0.4981710000000  0.5637080000000  0.4624760000000 1.0
C      1  0.4783040000000  0.4468430000000  0.4609810000000 1.0
C      1  0.4681580000000  0.5376070000000  0.5568320000000 1.0
C      1  0.5647720000000  0.5013040000000  0.5431190000000 1.0
C      1  0.4969050000000  0.5400970000000  0.5620640000000 1.0
C      1  0.4686480000000  0.4965260000000  0.4730160000000 1.0
C      1  0.5216260000000  0.5589040000000  0.4438670000000 1.0
C      1  0.4824540000000  0.4766050000000  0.4222730000000 1.0
C      1  0.4501080000000  0.4916970000000  0.4487660000000 1.0
C      1  0.4721400000000  0.5668110000000  0.5105010000000 1.0
C      1  0.4542430000000  0.5278910000000  0.5802300000000 1.0
C      1  0.4380360000000  0.4458320000000  0.4850880000000 1.0
C      1  0.5617540000000  0.4783040000000  0.5123340000000 1.0
C      1  0.4952030000000  0.5111020000000  0.5139030000000 1.0
C      1  0.5095470000000  0.5196960000000  0.4861780000000 1.0
C      1  0.4667440000000  0.4752240000000  0.4929500000000 1.0
C      1  0.5126810000000  0.5483800000000  0.5379220000000 1.0
C      1  0.5408210000000  0.5099050000000  0.4841500000000 1.0
C      1  0.4989100000000  0.5610680000000  0.5134810000000 1.0
C      1  0.5338630000000  0.4881680000000  0.4365220000000 1.0
C      1  0.4424060000000  0.5297980000000  0.5145850000000 1.0
C      1  0.4361100000000  0.5172900000000  0.4677380000000 1.0
C      1  0.4696680000000  0.5012240000000  0.4269050000000 1.0
C      1  0.5466770000000  0.5549700000000  0.4610170000000 1.0
C      1  0.5172540000000  0.4904880000000  0.5613710000000 1.0
C      1  0.4947100000000  0.5066770000000  0.4644600000000 1.0
C      1  0.5019730000000  0.4659040000000  0.5557090000000 1.0
C      1  0.5059630000000  0.5147600000000  0.5706500000000 1.0
C      1  0.5524400000000  0.4818380000000  0.4850980000000 1.0
C      1  0.5590960000000  0.5456540000000  0.5083070000000 1.0
C      1  0.5464670000000  0.5187090000000  0.5134420000000 1.0
C      1  0.4893630000000  0.4289380000000  0.4813420000000 1.0
C      1  0.4301220000000  0.5094430000000  0.4969890000000 1.0
C      1  0.4820440000000  0.4256940000000  0.5179320000000 1.0
C      1  0.5189490000000  0.4714080000000  0.4528520000000 1.0
C      1  0.5303720000000  0.4627590000000  0.4794570000000 1.0
C      1  0.5085340000000  0.4220280000000  0.5295300000000 1.0
C      1  0.4505050000000  0.4551950000000  0.4610260000000 1.0
C      1  0.4888460000000  0.5225170000000  0.4400940000000 1.0
C      1  0.5401520000000  0.5153540000000  0.4348760000000 1.0
C      1  0.5372070000000  0.4706640000000  0.5274190000000 1.0
C      1  0.4636430000000  0.4444290000000  0.5298580000000 1.0
C      1  0.4415030000000  0.4843530000000  0.5063750000000 1.0
C      1  0.5527210000000  0.5256260000000  0.4600330000000 1.0
C      1  0.4949910000000  0.4603360000000  0.4416470000000 1.0
C      1  0.5198040000000  0.5206450000000  0.5293210000000 1.0
C      1  0.4393980000000  0.4469700000000  0.5135130000000 1.0
C      1  0.5367480000000  0.5625920000000  0.5452460000000 1.0
C      1  0.5164100000000  0.5328940000000  0.4289840000000 1.0
C      1  0.5159560000000  0.4672980000000  0.5060080000000 1.0
C      1  0.4652190000000  0.5190350000000  0.5319750000000 1.0
C      1  0.5183010000000  0.4433110000000  0.5470350000000 1.0
C      1  0.4520870000000  0.5429320000000  0.4700950000000 1.0
C      1  0.4588790000000  0.4930160000000  0.5460890000000 1.0
C      1  0.4777500000000  0.4703900000000  0.5382290000000 1.0
C      1  0.4516450000000  0.5523180000000  0.4983220000000 1.0
C      1  0.5458560000000  0.4877800000000  0.5611030000000 1.0
C      1  0.5617760000000  0.5533580000000  0.5367630000000 1.0
C      1  0.4570170000000  0.5017730000000  0.5728560000000 1.0
END
