TITL C-950531-5884-438 -6.23576652823482e-06 125000 -1161.72424841633 0 0 184 (C1) n - 1
REM
REM in /home/bkarasulu/work/CARBON/AIRSS/Generating-Clusters/EDIP-Nigel-Params/with-SteepDescent/Only-C1/SD-CG/HFTN-CG
REM
REM
REM
REM
REM
REM ./C.cell (11c1c37f851c82e70ff6c80c92926a4b)
REM
REM compiler GCC version 9.2.1 20190827 (Red Hat 9.2.1-1)
REM options -cpp -mtune=generic -march=x86-64 -g -O0 -fpre-include=/usr/include/finclude/math-vector-fortran.h
REM seed -33114906 -1113717194 -2000584514 -1888984937 264058042 -1424299254 -527117265 135721922 709311880 615818565 -900520357 -502482601 -1963914229 1581086495 1349956188 -1422662486 -192432919 -873304933 204475013 -927389719 -2036548496 1258238769 -212303154 -835770118 2012917586 -1063106805 -1755499497 -42804395 -969679686 922612005 -1860724736 -1405932684 734265465
REM
CELL 1.54180   50.00000   50.00000   50.00000   90.00000   90.00000   90.00000
LATT -1
SFAC C  
C      1  0.5499380000000  0.4689230000000  0.4113440000000 1.0
C      1  0.4491380000000  0.5892140000000  0.4489660000000 1.0
C      1  0.5667820000000  0.5671920000000  0.5063680000000 1.0
C      1  0.5107520000000  0.5463560000000  0.4321900000000 1.0
C      1  0.5308830000000  0.4116130000000  0.4545250000000 1.0
C      1  0.5653770000000  0.5202120000000  0.5628410000000 1.0
C      1  0.5772410000000  0.5522290000000  0.5298940000000 1.0
C      1  0.4819400000000  0.4175130000000  0.4542650000000 1.0
C      1  0.4968930000000  0.5458240000000  0.4788470000000 1.0
C      1  0.5583270000000  0.5027050000000  0.5170700000000 1.0
C      1  0.4676290000000  0.6028760000000  0.4933080000000 1.0
C      1  0.5663040000000  0.4464520000000  0.4654440000000 1.0
C      1  0.4935720000000  0.4920990000000  0.5476150000000 1.0
C      1  0.4695290000000  0.4837280000000  0.5304650000000 1.0
C      1  0.4233040000000  0.4655240000000  0.4926950000000 1.0
C      1  0.6005800000000  0.5511230000000  0.4695910000000 1.0
C      1  0.5751450000000  0.4363780000000  0.5679000000000 1.0
C      1  0.4709470000000  0.5314020000000  0.3717560000000 1.0
C      1  0.4557000000000  0.4629160000000  0.5435230000000 1.0
C      1  0.4789120000000  0.4006100000000  0.4796540000000 1.0
C      1  0.4605700000000  0.5299600000000  0.4204550000000 1.0
C      1  0.5209900000000  0.5875780000000  0.4575510000000 1.0
C      1  0.4862020000000  0.5279100000000  0.6207860000000 1.0
C      1  0.4539500000000  0.4973010000000  0.6027450000000 1.0
C      1  0.3860090000000  0.4652360000000  0.5227970000000 1.0
C      1  0.4911820000000  0.6118310000000  0.5377220000000 1.0
C      1  0.5511760000000  0.4514340000000  0.4905810000000 1.0
C      1  0.4875530000000  0.4798600000000  0.6327800000000 1.0
C      1  0.4348630000000  0.4042020000000  0.4497860000000 1.0
C      1  0.5051610000000  0.4456230000000  0.5980880000000 1.0
C      1  0.4279720000000  0.5727340000000  0.4605320000000 1.0
C      1  0.4820730000000  0.5516760000000  0.4220380000000 1.0
C      1  0.5815020000000  0.5108310000000  0.4875190000000 1.0
C      1  0.6070640000000  0.5271570000000  0.4849030000000 1.0
C      1  0.4041750000000  0.5643950000000  0.5341350000000 1.0
C      1  0.3839600000000  0.4903720000000  0.4819640000000 1.0
C      1  0.5444920000000  0.4963770000000  0.4448680000000 1.0
C      1  0.4774870000000  0.4709140000000  0.5047160000000 1.0
C      1  0.4324990000000  0.4183490000000  0.4740170000000 1.0
C      1  0.5534970000000  0.5465960000000  0.4084220000000 1.0
C      1  0.4782210000000  0.5834680000000  0.5748790000000 1.0
C      1  0.5928650000000  0.5283810000000  0.5264140000000 1.0
C      1  0.5622020000000  0.5618240000000  0.4348390000000 1.0
C      1  0.5068690000000  0.4157010000000  0.4378560000000 1.0
C      1  0.5693720000000  0.4322150000000  0.5378240000000 1.0
C      1  0.4589590000000  0.5316080000000  0.5440560000000 1.0
C      1  0.4465950000000  0.5112460000000  0.5014910000000 1.0
C      1  0.4494900000000  0.4908940000000  0.4551160000000 1.0
C      1  0.4155290000000  0.4952310000000  0.5893780000000 1.0
C      1  0.4666800000000  0.5499800000000  0.5199230000000 1.0
C      1  0.4705610000000  0.5546350000000  0.5818680000000 1.0
C      1  0.5162410000000  0.6018040000000  0.5515380000000 1.0
C      1  0.4562080000000  0.4167350000000  0.4929130000000 1.0
C      1  0.5319960000000  0.6005170000000  0.4864570000000 1.0
C      1  0.6166610000000  0.4781950000000  0.4712950000000 1.0
C      1  0.5416110000000  0.4419840000000  0.4197710000000 1.0
C      1  0.5945170000000  0.4674370000000  0.5157940000000 1.0
C      1  0.5256770000000  0.5486460000000  0.5987360000000 1.0
C      1  0.4503480000000  0.4688180000000  0.5709700000000 1.0
C      1  0.5273560000000  0.5805040000000  0.5325090000000 1.0
C      1  0.4751400000000  0.4075490000000  0.5377870000000 1.0
C      1  0.5021570000000  0.4793830000000  0.4921630000000 1.0
C      1  0.5249690000000  0.4396890000000  0.4922500000000 1.0
C      1  0.5477830000000  0.5887180000000  0.5107590000000 1.0
C      1  0.4780510000000  0.5958320000000  0.4238130000000 1.0
C      1  0.4279600000000  0.4470530000000  0.4688910000000 1.0
C      1  0.5919900000000  0.4374680000000  0.5188040000000 1.0
C      1  0.4518290000000  0.4445330000000  0.4283890000000 1.0
C      1  0.5368520000000  0.5031460000000  0.3864110000000 1.0
C      1  0.4716120000000  0.5358880000000  0.4701250000000 1.0
C      1  0.4929400000000  0.5988930000000  0.4496480000000 1.0
C      1  0.5340020000000  0.4529380000000  0.5970270000000 1.0
C      1  0.5117510000000  0.4668230000000  0.5497250000000 1.0
C      1  0.4256620000000  0.5455930000000  0.4501260000000 1.0
C      1  0.4310130000000  0.5153890000000  0.6016220000000 1.0
C      1  0.4833090000000  0.5316600000000  0.5652920000000 1.0
C      1  0.4704900000000  0.5027320000000  0.6272490000000 1.0
C      1  0.4260540000000  0.4561110000000  0.4393750000000 1.0
C      1  0.4802320000000  0.5009380000000  0.5744720000000 1.0
C      1  0.5723540000000  0.4741510000000  0.4569270000000 1.0
C      1  0.4054950000000  0.5277070000000  0.5046830000000 1.0
C      1  0.5389800000000  0.5169150000000  0.4986580000000 1.0
C      1  0.4682950000000  0.5150540000000  0.4472020000000 1.0
C      1  0.5505920000000  0.4730930000000  0.5114340000000 1.0
C      1  0.4968220000000  0.5498020000000  0.5077830000000 1.0
C      1  0.5177490000000  0.5181590000000  0.5425470000000 1.0
C      1  0.4479970000000  0.5054320000000  0.5299850000000 1.0
C      1  0.5520080000000  0.5483520000000  0.4617120000000 1.0
C      1  0.4530620000000  0.5388800000000  0.4938570000000 1.0
C      1  0.5175120000000  0.5291480000000  0.5155250000000 1.0
C      1  0.5288400000000  0.5634550000000  0.4140930000000 1.0
C      1  0.4483510000000  0.4228710000000  0.5746620000000 1.0
C      1  0.5400730000000  0.4751650000000  0.5594510000000 1.0
C      1  0.5080540000000  0.5056850000000  0.3832380000000 1.0
C      1  0.4097410000000  0.4680550000000  0.5392980000000 1.0
C      1  0.5238550000000  0.4154330000000  0.5367730000000 1.0
C      1  0.4635520000000  0.4878670000000  0.3900650000000 1.0
C      1  0.4955230000000  0.4744560000000  0.4323040000000 1.0
C      1  0.4339230000000  0.5440350000000  0.5600550000000 1.0
C      1  0.4255150000000  0.4689100000000  0.5845190000000 1.0
C      1  0.4440200000000  0.5917600000000  0.5060700000000 1.0
C      1  0.5927230000000  0.4685720000000  0.4352920000000 1.0
C      1  0.4859890000000  0.4567100000000  0.6163540000000 1.0
C      1  0.6163680000000  0.4494370000000  0.4700850000000 1.0
C      1  0.3988000000000  0.5168290000000  0.5312630000000 1.0
C      1  0.5497040000000  0.4317320000000  0.4457120000000 1.0
C      1  0.5148980000000  0.4426900000000  0.5241180000000 1.0
C      1  0.4707050000000  0.5930020000000  0.4670510000000 1.0
C      1  0.5245340000000  0.4680670000000  0.4453310000000 1.0
C      1  0.4358620000000  0.5431470000000  0.5916840000000 1.0
C      1  0.4274590000000  0.4247610000000  0.5312150000000 1.0
C      1  0.5136080000000  0.5568170000000  0.5741640000000 1.0
C      1  0.6003380000000  0.5412570000000  0.4431170000000 1.0
C      1  0.5154720000000  0.5259600000000  0.6112030000000 1.0
C      1  0.4694260000000  0.5957240000000  0.5494720000000 1.0
C      1  0.4620700000000  0.5157300000000  0.3933930000000 1.0
C      1  0.5771750000000  0.5060700000000  0.4163560000000 1.0
C      1  0.5184440000000  0.5166330000000  0.4355580000000 1.0
C      1  0.4324810000000  0.4938480000000  0.4824770000000 1.0
C      1  0.4688270000000  0.5491170000000  0.6106180000000 1.0
C      1  0.5930600000000  0.4327210000000  0.4698210000000 1.0
C      1  0.6164860000000  0.5311730000000  0.5112140000000 1.0
C      1  0.4793990000000  0.5745180000000  0.4065870000000 1.0
C      1  0.3939710000000  0.4686560000000  0.4962410000000 1.0
C      1  0.4944600000000  0.5024040000000  0.4405500000000 1.0
C      1  0.5518860000000  0.4090240000000  0.5282380000000 1.0
C      1  0.4696200000000  0.4634040000000  0.4457020000000 1.0
C      1  0.5403400000000  0.5859860000000  0.4333850000000 1.0
C      1  0.5404130000000  0.4753470000000  0.3858790000000 1.0
C      1  0.4069890000000  0.5571400000000  0.5050750000000 1.0
C      1  0.5054430000000  0.5769430000000  0.5132790000000 1.0
C      1  0.5092410000000  0.4577690000000  0.4729500000000 1.0
C      1  0.4302230000000  0.5697440000000  0.4904360000000 1.0
C      1  0.4232820000000  0.4256870000000  0.5612250000000 1.0
C      1  0.5523680000000  0.5177450000000  0.4076020000000 1.0
C      1  0.5243250000000  0.4178310000000  0.5662660000000 1.0
C      1  0.4190200000000  0.4972570000000  0.5408010000000 1.0
C      1  0.4090020000000  0.4525210000000  0.5663120000000 1.0
C      1  0.4978350000000  0.4549720000000  0.3986840000000 1.0
C      1  0.4977380000000  0.5281670000000  0.3701310000000 1.0
C      1  0.5458410000000  0.4352450000000  0.5773260000000 1.0
C      1  0.5181380000000  0.5568470000000  0.4603750000000 1.0
C      1  0.5946850000000  0.5140190000000  0.4380050000000 1.0
C      1  0.4740810000000  0.4162400000000  0.5655300000000 1.0
C      1  0.4934510000000  0.6040910000000  0.5087760000000 1.0
C      1  0.4527750000000  0.5784460000000  0.5307950000000 1.0
C      1  0.4294850000000  0.5710660000000  0.5477330000000 1.0
C      1  0.5313940000000  0.5538700000000  0.5491360000000 1.0
C      1  0.5208720000000  0.4800830000000  0.5149680000000 1.0
C      1  0.5895040000000  0.4819570000000  0.4845400000000 1.0
C      1  0.6119890000000  0.4900310000000  0.4437800000000 1.0
C      1  0.5134890000000  0.6201990000000  0.4951520000000 1.0
C      1  0.4660790000000  0.4466150000000  0.4916990000000 1.0
C      1  0.5008290000000  0.4003110000000  0.5253010000000 1.0
C      1  0.5288250000000  0.4106150000000  0.4844800000000 1.0
C      1  0.4907870000000  0.4819680000000  0.3893390000000 1.0
C      1  0.5858040000000  0.4194730000000  0.4952690000000 1.0
C      1  0.4817720000000  0.4458010000000  0.4664350000000 1.0
C      1  0.4505460000000  0.4081940000000  0.5214130000000 1.0
C      1  0.5775350000000  0.4777440000000  0.4127330000000 1.0
C      1  0.5737210000000  0.5627110000000  0.4778080000000 1.0
C      1  0.5233100000000  0.5004240000000  0.5986650000000 1.0
C      1  0.4973210000000  0.4883020000000  0.5968070000000 1.0
C      1  0.4325410000000  0.4541620000000  0.5250800000000 1.0
C      1  0.5915990000000  0.4799350000000  0.5436510000000 1.0
C      1  0.5562180000000  0.4044400000000  0.4994600000000 1.0
C      1  0.4284460000000  0.4866380000000  0.4345030000000 1.0
C      1  0.4990710000000  0.4242170000000  0.5790220000000 1.0
C      1  0.5533680000000  0.4588900000000  0.5368310000000 1.0
C      1  0.5877580000000  0.4623540000000  0.5662740000000 1.0
C      1  0.5894410000000  0.5095360000000  0.5480940000000 1.0
C      1  0.4095450000000  0.5091050000000  0.4310090000000 1.0
C      1  0.3978650000000  0.5396470000000  0.5487010000000 1.0
C      1  0.5450930000000  0.5040590000000  0.5470850000000 1.0
C      1  0.4570270000000  0.4163610000000  0.4370660000000 1.0
C      1  0.5436970000000  0.4800910000000  0.5973990000000 1.0
C      1  0.5128500000000  0.4368720000000  0.4169400000000 1.0
C      1  0.5035520000000  0.3974750000000  0.4958280000000 1.0
C      1  0.4324220000000  0.5388170000000  0.4232060000000 1.0
C      1  0.5605890000000  0.5485770000000  0.5541270000000 1.0
C      1  0.4049550000000  0.5255650000000  0.4549840000000 1.0
C      1  0.5071450000000  0.5862910000000  0.5758460000000 1.0
C      1  0.4056020000000  0.5095850000000  0.4802610000000 1.0
C      1  0.5536620000000  0.5182500000000  0.4706610000000 1.0
END
