TITL C-950532-2784-409 7.96198799537267e-09 125000 -1231.31742003411 0 0 197 (C1) n - 1
REM
REM in /home/bkarasulu/work/CARBON/AIRSS/Generating-Clusters/EDIP-Nigel-Params/with-SteepDescent/Only-C1/SD-CG/HFTN-CG
REM
REM
REM
REM
REM
REM ./C.cell (11c1c37f851c82e70ff6c80c92926a4b)
REM
REM compiler GCC version 9.2.1 20190827 (Red Hat 9.2.1-1)
REM options -cpp -mtune=generic -march=x86-64 -g -O0 -fpre-include=/usr/include/finclude/math-vector-fortran.h
REM seed -446993192 21977185 1944046950 979041090 1270358685 1459984898 -116268385 -224229330 -1655554928 1911885635 -644303017 -199000964 750849894 265318090 -337382231 -33952847 -1027298779 2146858381 2125065976 321676675 -816390075 774470074 1500887336 -232148147 765653034 -1753194269 88811138 1284154404 1833377945 -585803100 1905093650 -1030926942 496099524
REM
CELL 1.54180   50.00000   50.00000   50.00000   90.00000   90.00000   90.00000
LATT -1
SFAC C  
C      1  0.4546940000000  0.4899530000000  0.5576790000000 1.0
C      1  0.5715490000000  0.4159760000000  0.5183250000000 1.0
C      1  0.4451950000000  0.4746240000000  0.4884020000000 1.0
C      1  0.4232560000000  0.5845810000000  0.4683920000000 1.0
C      1  0.4360980000000  0.4145520000000  0.4347190000000 1.0
C      1  0.4315830000000  0.4198370000000  0.5352900000000 1.0
C      1  0.5292340000000  0.4417110000000  0.5448120000000 1.0
C      1  0.5726300000000  0.5218840000000  0.4331200000000 1.0
C      1  0.5507520000000  0.4867460000000  0.5585130000000 1.0
C      1  0.5052620000000  0.4376000000000  0.5943680000000 1.0
C      1  0.5217420000000  0.3981840000000  0.5153210000000 1.0
C      1  0.5771820000000  0.4105280000000  0.4909810000000 1.0
C      1  0.4893310000000  0.4958330000000  0.4483670000000 1.0
C      1  0.3797220000000  0.5276740000000  0.4679480000000 1.0
C      1  0.4756120000000  0.4513190000000  0.5653470000000 1.0
C      1  0.5461130000000  0.4678740000000  0.5067810000000 1.0
C      1  0.4096220000000  0.4668200000000  0.4736740000000 1.0
C      1  0.4111460000000  0.5058740000000  0.5587350000000 1.0
C      1  0.5532690000000  0.4953020000000  0.4669510000000 1.0
C      1  0.5224000000000  0.5593150000000  0.4746780000000 1.0
C      1  0.4832460000000  0.4661380000000  0.4531650000000 1.0
C      1  0.5191870000000  0.5616110000000  0.5067530000000 1.0
C      1  0.5251260000000  0.6238780000000  0.5143630000000 1.0
C      1  0.5653880000000  0.5593180000000  0.5706320000000 1.0
C      1  0.5705960000000  0.5299500000000  0.5774440000000 1.0
C      1  0.5619070000000  0.5342420000000  0.4085100000000 1.0
C      1  0.6018460000000  0.4793050000000  0.5238330000000 1.0
C      1  0.4360080000000  0.6038810000000  0.4869020000000 1.0
C      1  0.4368540000000  0.5572730000000  0.4273740000000 1.0
C      1  0.5298720000000  0.5189070000000  0.4749040000000 1.0
C      1  0.4567160000000  0.4066150000000  0.4787480000000 1.0
C      1  0.4141780000000  0.5744830000000  0.5255440000000 1.0
C      1  0.5508670000000  0.5147460000000  0.3904550000000 1.0
C      1  0.4385850000000  0.4360340000000  0.4143420000000 1.0
C      1  0.3768090000000  0.4863350000000  0.5015890000000 1.0
C      1  0.4176510000000  0.5580430000000  0.4796860000000 1.0
C      1  0.5927120000000  0.4602010000000  0.5723370000000 1.0
C      1  0.4793040000000  0.4350600000000  0.4918670000000 1.0
C      1  0.3876270000000  0.4601080000000  0.4921430000000 1.0
C      1  0.6013870000000  0.5582760000000  0.5397560000000 1.0
C      1  0.4123370000000  0.4509620000000  0.4496540000000 1.0
C      1  0.5306300000000  0.4578760000000  0.4624510000000 1.0
C      1  0.4990080000000  0.5114560000000  0.5826360000000 1.0
C      1  0.5198500000000  0.5391610000000  0.4391330000000 1.0
C      1  0.4904450000000  0.5422820000000  0.5479680000000 1.0
C      1  0.5967930000000  0.4848060000000  0.5849050000000 1.0
C      1  0.4413710000000  0.5151530000000  0.5638030000000 1.0
C      1  0.5341290000000  0.4420400000000  0.6038440000000 1.0
C      1  0.5589020000000  0.4466200000000  0.5869330000000 1.0
C      1  0.5142470000000  0.5247540000000  0.6058850000000 1.0
C      1  0.4399210000000  0.4991630000000  0.4733010000000 1.0
C      1  0.5189480000000  0.5504090000000  0.3939110000000 1.0
C      1  0.4692440000000  0.5493670000000  0.5952840000000 1.0
C      1  0.5606200000000  0.5153630000000  0.5521610000000 1.0
C      1  0.4587860000000  0.5102950000000  0.4527380000000 1.0
C      1  0.4873700000000  0.5983550000000  0.5159470000000 1.0
C      1  0.4829150000000  0.4339140000000  0.5208120000000 1.0
C      1  0.6075450000000  0.5311550000000  0.5351590000000 1.0
C      1  0.4642040000000  0.5970090000000  0.4475520000000 1.0
C      1  0.4650950000000  0.5368600000000  0.4681040000000 1.0
C      1  0.5719510000000  0.4362010000000  0.4416020000000 1.0
C      1  0.4422620000000  0.5326970000000  0.5391190000000 1.0
C      1  0.4017210000000  0.5572520000000  0.5047510000000 1.0
C      1  0.5027310000000  0.5995460000000  0.4495930000000 1.0
C      1  0.5213810000000  0.5103560000000  0.4318150000000 1.0
C      1  0.4978040000000  0.4811180000000  0.4938080000000 1.0
C      1  0.4438260000000  0.5135050000000  0.4260080000000 1.0
C      1  0.5375480000000  0.5635690000000  0.5732250000000 1.0
C      1  0.5102780000000  0.5831690000000  0.5276990000000 1.0
C      1  0.3906680000000  0.5180160000000  0.5378430000000 1.0
C      1  0.4938120000000  0.4545380000000  0.6166860000000 1.0
C      1  0.5811070000000  0.5001950000000  0.4800770000000 1.0
C      1  0.4872000000000  0.4931420000000  0.5198190000000 1.0
C      1  0.5419980000000  0.4819730000000  0.5875940000000 1.0
C      1  0.5355940000000  0.5418410000000  0.5193760000000 1.0
C      1  0.3916910000000  0.5096270000000  0.4874080000000 1.0
C      1  0.5965820000000  0.5035850000000  0.4328890000000 1.0
C      1  0.4635020000000  0.4353540000000  0.4013130000000 1.0
C      1  0.5817840000000  0.4421390000000  0.4142300000000 1.0
C      1  0.4326510000000  0.5187180000000  0.5125420000000 1.0
C      1  0.4941340000000  0.6264270000000  0.5123880000000 1.0
C      1  0.4948340000000  0.4710860000000  0.3987730000000 1.0
C      1  0.5213980000000  0.4825150000000  0.3974780000000 1.0
C      1  0.4146030000000  0.4665820000000  0.5879330000000 1.0
C      1  0.5616090000000  0.5898710000000  0.5293670000000 1.0
C      1  0.4626390000000  0.6093860000000  0.4747390000000 1.0
C      1  0.5089510000000  0.5001810000000  0.6247740000000 1.0
C      1  0.4804000000000  0.3862830000000  0.4846610000000 1.0
C      1  0.5044080000000  0.4267180000000  0.4276600000000 1.0
C      1  0.4681650000000  0.4522010000000  0.5369070000000 1.0
C      1  0.5553920000000  0.4548840000000  0.5571360000000 1.0
C      1  0.4403010000000  0.4668950000000  0.5989260000000 1.0
C      1  0.5518750000000  0.4090920000000  0.4755640000000 1.0
C      1  0.4677860000000  0.5218460000000  0.5851660000000 1.0
C      1  0.5491730000000  0.5739400000000  0.4647330000000 1.0
C      1  0.5057050000000  0.4457390000000  0.4521220000000 1.0
C      1  0.5383810000000  0.5520670000000  0.4173830000000 1.0
C      1  0.4783970000000  0.5191990000000  0.5111190000000 1.0
C      1  0.5843280000000  0.4357690000000  0.5321550000000 1.0
C      1  0.4469330000000  0.4807940000000  0.3909060000000 1.0
C      1  0.5968750000000  0.4577350000000  0.5430600000000 1.0
C      1  0.5234480000000  0.4649540000000  0.6236160000000 1.0
C      1  0.5310200000000  0.4153810000000  0.4273690000000 1.0
C      1  0.4605600000000  0.4127340000000  0.4500740000000 1.0
C      1  0.4912750000000  0.5438940000000  0.4295520000000 1.0
C      1  0.4070990000000  0.4571310000000  0.5624100000000 1.0
C      1  0.4636620000000  0.5612160000000  0.5106540000000 1.0
C      1  0.5286230000000  0.6121680000000  0.4878930000000 1.0
C      1  0.4091800000000  0.4785330000000  0.5411650000000 1.0
C      1  0.4114820000000  0.4961240000000  0.4692130000000 1.0
C      1  0.6011800000000  0.4221930000000  0.4816970000000 1.0
C      1  0.4867310000000  0.4830630000000  0.6160800000000 1.0
C      1  0.5794750000000  0.5453500000000  0.4524460000000 1.0
C      1  0.4701270000000  0.5180690000000  0.4091820000000 1.0
C      1  0.4683680000000  0.5824950000000  0.5566910000000 1.0
C      1  0.5252370000000  0.4696050000000  0.4884870000000 1.0
C      1  0.5109230000000  0.5709320000000  0.5804520000000 1.0
C      1  0.5573950000000  0.4614530000000  0.4491740000000 1.0
C      1  0.6228040000000  0.4837350000000  0.4685290000000 1.0
C      1  0.5092660000000  0.6210880000000  0.4678260000000 1.0
C      1  0.4337990000000  0.4860100000000  0.4151680000000 1.0
C      1  0.5563560000000  0.5005150000000  0.6067520000000 1.0
C      1  0.3810940000000  0.4893760000000  0.5307970000000 1.0
C      1  0.5734800000000  0.5230430000000  0.4983040000000 1.0
C      1  0.5363970000000  0.5340210000000  0.5483280000000 1.0
C      1  0.5839920000000  0.5064990000000  0.5969050000000 1.0
C      1  0.4620860000000  0.4109230000000  0.5741780000000 1.0
C      1  0.4441380000000  0.4336070000000  0.5804000000000 1.0
C      1  0.4376030000000  0.4859130000000  0.5157680000000 1.0
C      1  0.5532420000000  0.4134310000000  0.4451220000000 1.0
C      1  0.5018760000000  0.5053550000000  0.4750060000000 1.0
C      1  0.4550430000000  0.4026560000000  0.5453290000000 1.0
C      1  0.5104510000000  0.4806220000000  0.5853690000000 1.0
C      1  0.4227740000000  0.4327350000000  0.5600220000000 1.0
C      1  0.4387350000000  0.5821100000000  0.4432390000000 1.0
C      1  0.5092040000000  0.5198040000000  0.5548230000000 1.0
C      1  0.5429860000000  0.4409900000000  0.5166410000000 1.0
C      1  0.4027760000000  0.5422320000000  0.4590830000000 1.0
C      1  0.4032300000000  0.5265210000000  0.5112570000000 1.0
C      1  0.5923170000000  0.4736570000000  0.4333360000000 1.0
C      1  0.4164670000000  0.5382150000000  0.4339170000000 1.0
C      1  0.5722110000000  0.5931490000000  0.5020840000000 1.0
C      1  0.4825160000000  0.4064290000000  0.5327920000000 1.0
C      1  0.4986640000000  0.5737250000000  0.4620470000000 1.0
C      1  0.5038720000000  0.4251140000000  0.4765390000000 1.0
C      1  0.5881430000000  0.5717920000000  0.4937130000000 1.0
C      1  0.4914250000000  0.4140080000000  0.5813950000000 1.0
C      1  0.4864020000000  0.4048780000000  0.4390210000000 1.0
C      1  0.4159920000000  0.4219500000000  0.5100070000000 1.0
C      1  0.5440730000000  0.5259910000000  0.6006600000000 1.0
C      1  0.4458750000000  0.5564120000000  0.4009510000000 1.0
C      1  0.4696790000000  0.5392500000000  0.5287110000000 1.0
C      1  0.4614840000000  0.5868340000000  0.5261850000000 1.0
C      1  0.4994840000000  0.3972770000000  0.4646440000000 1.0
C      1  0.5920700000000  0.4478560000000  0.4725270000000 1.0
C      1  0.4446460000000  0.5449640000000  0.4900970000000 1.0
C      1  0.5817620000000  0.5176380000000  0.5280010000000 1.0
C      1  0.4267680000000  0.5567730000000  0.5436270000000 1.0
C      1  0.4930650000000  0.3861990000000  0.5122460000000 1.0
C      1  0.4624210000000  0.4801340000000  0.5312140000000 1.0
C      1  0.4753720000000  0.5595640000000  0.4496780000000 1.0
C      1  0.4845260000000  0.6285390000000  0.4833670000000 1.0
C      1  0.5773430000000  0.5704650000000  0.4384980000000 1.0
C      1  0.5947070000000  0.4751680000000  0.4935480000000 1.0
C      1  0.5800320000000  0.5478580000000  0.4818490000000 1.0
C      1  0.4905690000000  0.4420100000000  0.4036320000000 1.0
C      1  0.4984600000000  0.5536660000000  0.6019170000000 1.0
C      1  0.3934250000000  0.4386230000000  0.5093880000000 1.0
C      1  0.5056710000000  0.3990350000000  0.5615710000000 1.0
C      1  0.5487730000000  0.4769160000000  0.3885160000000 1.0
C      1  0.4958860000000  0.5705380000000  0.5541240000000 1.0
C      1  0.4338700000000  0.5967730000000  0.5165760000000 1.0
C      1  0.5067380000000  0.4927540000000  0.5408390000000 1.0
C      1  0.5249140000000  0.4103060000000  0.5435280000000 1.0
C      1  0.4749070000000  0.4638430000000  0.4820480000000 1.0
C      1  0.4276970000000  0.4148820000000  0.4837710000000 1.0
C      1  0.6105740000000  0.4621270000000  0.4540950000000 1.0
C      1  0.5496750000000  0.5766410000000  0.4318800000000 1.0
C      1  0.5502250000000  0.5036560000000  0.4394940000000 1.0
C      1  0.5223080000000  0.5122980000000  0.4001170000000 1.0
C      1  0.5534880000000  0.5993950000000  0.4802490000000 1.0
C      1  0.4568730000000  0.5691260000000  0.5787360000000 1.0
C      1  0.4310680000000  0.4600480000000  0.4290980000000 1.0
C      1  0.4866540000000  0.5273120000000  0.4854020000000 1.0
C      1  0.4162520000000  0.4222230000000  0.4561790000000 1.0
C      1  0.5774300000000  0.5709800000000  0.5470770000000 1.0
C      1  0.6049060000000  0.5056170000000  0.4615540000000 1.0
C      1  0.5050120000000  0.4660100000000  0.5575750000000 1.0
C      1  0.5340900000000  0.6026370000000  0.5347120000000 1.0
C      1  0.4684660000000  0.5431240000000  0.3917690000000 1.0
C      1  0.6170830000000  0.5026840000000  0.5325220000000 1.0
C      1  0.5441290000000  0.5216590000000  0.5012800000000 1.0
C      1  0.5294410000000  0.4192970000000  0.4946650000000 1.0
C      1  0.4728400000000  0.4909750000000  0.3943800000000 1.0
C      1  0.5685280000000  0.4610180000000  0.3993560000000 1.0
C      1  0.4622120000000  0.4737800000000  0.5805460000000 1.0
C      1  0.4924090000000  0.5563820000000  0.4024730000000 1.0
END
