TITL C-950533-5798-720 -1.58425354678857e-06 125000 -670.458224294164 0 0 107 (C1) n - 1
REM
REM in /home/bkarasulu/work/CARBON/AIRSS/Generating-Clusters/EDIP-Nigel-Params/with-SteepDescent/Only-C1/SD-CG/HFTN-CG
REM
REM
REM
REM
REM
REM ./C.cell (11c1c37f851c82e70ff6c80c92926a4b)
REM
REM compiler GCC version 9.2.1 20190827 (Red Hat 9.2.1-1)
REM options -cpp -mtune=generic -march=x86-64 -g -O0 -fpre-include=/usr/include/finclude/math-vector-fortran.h
REM seed -2003943313 1217765139 -1674116249 -294280018 -1852291192 2060759418 1349602578 1142501492 1556482559 943753984 -1373103440 -524656603 -2059805956 1821291527 1274287974 -72254 -189577989 1301801684 1301588151 4648850 181661725 -1929428129 752896180 1451666159 1100589742 1020195360 -1963191992 -184033381 697378874 1230167977 157944088 1922302423 1280140373
REM
CELL 1.54180   50.00000   50.00000   50.00000   90.00000   90.00000   90.00000
LATT -1
SFAC C  
C      1  0.4852640000000  0.4203950000000  0.5348770000000 1.0
C      1  0.4826530000000  0.5446180000000  0.5085220000000 1.0
C      1  0.5298330000000  0.4655370000000  0.5764220000000 1.0
C      1  0.5021220000000  0.4728570000000  0.5843090000000 1.0
C      1  0.4985190000000  0.4330310000000  0.5576950000000 1.0
C      1  0.4938210000000  0.4940570000000  0.5164440000000 1.0
C      1  0.4981880000000  0.5149900000000  0.4688760000000 1.0
C      1  0.5059260000000  0.5414340000000  0.4188950000000 1.0
C      1  0.5373850000000  0.5053060000000  0.4936010000000 1.0
C      1  0.4411890000000  0.5402070000000  0.4667840000000 1.0
C      1  0.4685850000000  0.4841640000000  0.5060380000000 1.0
C      1  0.4295010000000  0.5411830000000  0.5258860000000 1.0
C      1  0.5625390000000  0.5426430000000  0.5100340000000 1.0
C      1  0.4579110000000  0.4128290000000  0.5403050000000 1.0
C      1  0.4322820000000  0.4395030000000  0.5074860000000 1.0
C      1  0.4216710000000  0.4909280000000  0.5128140000000 1.0
C      1  0.5260620000000  0.4434830000000  0.5566770000000 1.0
C      1  0.4848810000000  0.4565930000000  0.5672520000000 1.0
C      1  0.5379320000000  0.4833390000000  0.4510060000000 1.0
C      1  0.5656970000000  0.5413340000000  0.5396170000000 1.0
C      1  0.4136150000000  0.5509050000000  0.5022910000000 1.0
C      1  0.4272850000000  0.4639820000000  0.5254960000000 1.0
C      1  0.5099710000000  0.5524710000000  0.4957870000000 1.0
C      1  0.4403900000000  0.4707980000000  0.5522300000000 1.0
C      1  0.5784680000000  0.5152220000000  0.5454610000000 1.0
C      1  0.5152200000000  0.5869660000000  0.4625810000000 1.0
C      1  0.5369120000000  0.4297880000000  0.4618670000000 1.0
C      1  0.5542940000000  0.5028430000000  0.4686140000000 1.0
C      1  0.3987790000000  0.5308770000000  0.4885540000000 1.0
C      1  0.4658930000000  0.5703880000000  0.5166510000000 1.0
C      1  0.4694830000000  0.5819120000000  0.4703620000000 1.0
C      1  0.5366480000000  0.5830940000000  0.5114700000000 1.0
C      1  0.5830280000000  0.5229150000000  0.4947120000000 1.0
C      1  0.4834540000000  0.5916570000000  0.5271060000000 1.0
C      1  0.5284170000000  0.4486230000000  0.5183390000000 1.0
C      1  0.4298210000000  0.5651370000000  0.4813060000000 1.0
C      1  0.4441640000000  0.4996800000000  0.5548750000000 1.0
C      1  0.4804050000000  0.5539390000000  0.4320360000000 1.0
C      1  0.5922530000000  0.4454500000000  0.4896830000000 1.0
C      1  0.5606180000000  0.5696570000000  0.4985430000000 1.0
C      1  0.4924400000000  0.5233930000000  0.5298740000000 1.0
C      1  0.5524200000000  0.5299010000000  0.4340450000000 1.0
C      1  0.4397000000000  0.4154260000000  0.5196210000000 1.0
C      1  0.5382700000000  0.4140710000000  0.4848330000000 1.0
C      1  0.5002250000000  0.4085290000000  0.5130690000000 1.0
C      1  0.5794400000000  0.4616740000000  0.4705400000000 1.0
C      1  0.4589370000000  0.4488280000000  0.4367410000000 1.0
C      1  0.4492490000000  0.4253920000000  0.5636540000000 1.0
C      1  0.4473740000000  0.5609430000000  0.5379060000000 1.0
C      1  0.5364080000000  0.5694360000000  0.4532270000000 1.0
C      1  0.4594040000000  0.4288560000000  0.4586380000000 1.0
C      1  0.4327160000000  0.4924910000000  0.4248540000000 1.0
C      1  0.5370190000000  0.5040210000000  0.4280850000000 1.0
C      1  0.4802260000000  0.4508630000000  0.4178370000000 1.0
C      1  0.5261050000000  0.4202140000000  0.5091710000000 1.0
C      1  0.4861290000000  0.4162550000000  0.4636640000000 1.0
C      1  0.4886620000000  0.4026000000000  0.4882840000000 1.0
C      1  0.5104710000000  0.4725020000000  0.5352440000000 1.0
C      1  0.4521750000000  0.5808440000000  0.4918160000000 1.0
C      1  0.4992640000000  0.5016030000000  0.5858480000000 1.0
C      1  0.5226560000000  0.5247620000000  0.5345580000000 1.0
C      1  0.5336890000000  0.5327530000000  0.5067700000000 1.0
C      1  0.5432350000000  0.5545100000000  0.5542390000000 1.0
C      1  0.4536900000000  0.5396850000000  0.4373990000000 1.0
C      1  0.4646230000000  0.5300960000000  0.4852870000000 1.0
C      1  0.5604770000000  0.5641310000000  0.4688640000000 1.0
C      1  0.5799380000000  0.4996350000000  0.5198850000000 1.0
C      1  0.5698580000000  0.5368940000000  0.4598810000000 1.0
C      1  0.5918580000000  0.4728660000000  0.5296130000000 1.0
C      1  0.4739200000000  0.4598590000000  0.4918610000000 1.0
C      1  0.5789710000000  0.4515040000000  0.5136540000000 1.0
C      1  0.4826200000000  0.5307720000000  0.5571340000000 1.0
C      1  0.4924090000000  0.5002870000000  0.4430880000000 1.0
C      1  0.5060350000000  0.4417520000000  0.4242730000000 1.0
C      1  0.4582340000000  0.5002190000000  0.4820360000000 1.0
C      1  0.4463800000000  0.5174370000000  0.4199210000000 1.0
C      1  0.4470620000000  0.4472580000000  0.4815470000000 1.0
C      1  0.5098080000000  0.4289470000000  0.4497730000000 1.0
C      1  0.4631120000000  0.4986030000000  0.4485690000000 1.0
C      1  0.5301400000000  0.5382640000000  0.5734970000000 1.0
C      1  0.5495000000000  0.4575710000000  0.4666740000000 1.0
C      1  0.5163260000000  0.5903000000000  0.4918250000000 1.0
C      1  0.5512220000000  0.4898690000000  0.5150800000000 1.0
C      1  0.4350480000000  0.4666860000000  0.4391750000000 1.0
C      1  0.4957110000000  0.4707600000000  0.4474310000000 1.0
C      1  0.4320370000000  0.5120500000000  0.5311460000000 1.0
C      1  0.5722980000000  0.4952260000000  0.5667440000000 1.0
C      1  0.5088450000000  0.4949390000000  0.4890910000000 1.0
C      1  0.4279620000000  0.4675170000000  0.4679940000000 1.0
C      1  0.5420900000000  0.4917740000000  0.5676830000000 1.0
C      1  0.5030910000000  0.5446690000000  0.4692000000000 1.0
C      1  0.4178580000000  0.5198800000000  0.4709560000000 1.0
C      1  0.4789070000000  0.5593760000000  0.5594800000000 1.0
C      1  0.5864810000000  0.4723750000000  0.5575620000000 1.0
C      1  0.4653530000000  0.5118930000000  0.5707770000000 1.0
C      1  0.5805120000000  0.4903860000000  0.4750490000000 1.0
C      1  0.5086930000000  0.5113000000000  0.4196240000000 1.0
C      1  0.4906300000000  0.5695570000000  0.4559180000000 1.0
C      1  0.4984880000000  0.5772360000000  0.5460210000000 1.0
C      1  0.5323580000000  0.4948620000000  0.5391940000000 1.0
C      1  0.4556560000000  0.4522760000000  0.5695210000000 1.0
C      1  0.5330120000000  0.5517750000000  0.4295940000000 1.0
C      1  0.5520060000000  0.4617050000000  0.5051350000000 1.0
C      1  0.4284920000000  0.4943480000000  0.4830170000000 1.0
C      1  0.5251710000000  0.5690440000000  0.5358460000000 1.0
C      1  0.4994110000000  0.4676050000000  0.4771930000000 1.0
C      1  0.5264140000000  0.5122120000000  0.5827720000000 1.0
END
