TITL C-950529-3362-92 2.81871000952404e-07 125000 -160.692645039793 0 0 28 (C1) n - 1
REM
REM in /home/bkarasulu/work/CARBON/AIRSS/Generating-Clusters/EDIP-Nigel-Params/with-SteepDescent/Only-C1/SD-CG/HFTN-CG
REM
REM
REM
REM
REM
REM ./C.cell (11c1c37f851c82e70ff6c80c92926a4b)
REM
REM compiler GCC version 9.2.1 20190827 (Red Hat 9.2.1-1)
REM options -cpp -mtune=generic -march=x86-64 -g -O0 -fpre-include=/usr/include/finclude/math-vector-fortran.h
REM seed 1660610120 -1227879472 -392859817 -1375918902 -270776820 -1316073379 -257601035 -183886956 -963897514 917973555 -792292032 -787804630 -971325033 -1796493914 -649351557 700001384 744058555 1507151625 -1006753623 -1342915829 -1876207549 1843648356 -307640999 13835536 -584118937 -749234153 966079651 -1097914304 -330619186 -315059179 -1438962731 2076238218 745355633
REM
CELL 1.54180   50.00000   50.00000   50.00000   90.00000   90.00000   90.00000
LATT -1
SFAC C  
C      1  0.4867060000000  0.4644090000000  0.5142980000000 1.0
C      1  0.4493100000000  0.5015480000000  0.4693330000000 1.0
C      1  0.5148640000000  0.5040920000000  0.5321850000000 1.0
C      1  0.5233560000000  0.5197110000000  0.4654500000000 1.0
C      1  0.5074630000000  0.4844650000000  0.5120610000000 1.0
C      1  0.4964780000000  0.5246090000000  0.5411860000000 1.0
C      1  0.4834050000000  0.5370320000000  0.4834280000000 1.0
C      1  0.5135610000000  0.5689670000000  0.5221860000000 1.0
C      1  0.5089720000000  0.4577320000000  0.4362060000000 1.0
C      1  0.4687290000000  0.4538710000000  0.4662950000000 1.0
C      1  0.5107680000000  0.5388080000000  0.4808470000000 1.0
C      1  0.5324000000000  0.4810770000000  0.4952810000000 1.0
C      1  0.5254280000000  0.4760280000000  0.4463680000000 1.0
C      1  0.4519440000000  0.4756310000000  0.4639350000000 1.0
C      1  0.4611250000000  0.5237700000000  0.4776870000000 1.0
C      1  0.5529480000000  0.4958500000000  0.5095540000000 1.0
C      1  0.4853860000000  0.4487660000000  0.4448810000000 1.0
C      1  0.5393210000000  0.4547510000000  0.4935210000000 1.0
C      1  0.5267660000000  0.5568880000000  0.4973470000000 1.0
C      1  0.4799540000000  0.4506130000000  0.4913390000000 1.0
C      1  0.5053850000000  0.5509060000000  0.5420700000000 1.0
C      1  0.4720260000000  0.5174340000000  0.5515550000000 1.0
C      1  0.5414940000000  0.5118840000000  0.5283020000000 1.0
C      1  0.5401970000000  0.5761300000000  0.5147210000000 1.0
C      1  0.4658830000000  0.4665200000000  0.5336630000000 1.0
C      1  0.5293460000000  0.4928200000000  0.4678300000000 1.0
C      1  0.4574010000000  0.4952060000000  0.5575960000000 1.0
C      1  0.4693830000000  0.4704830000000  0.5608730000000 1.0
END
