TITL C-950523-3027-736 -2.31737794198307e-06 125000 -794.581598472662 0 0 127 (C1) n - 1
REM
REM in /home/bkarasulu/work/CARBON/AIRSS/Generating-Clusters/EDIP-Nigel-Params/with-SteepDescent/Only-C1/SD-CG/HFTN-CG
REM
REM
REM
REM
REM
REM ./C.cell (11c1c37f851c82e70ff6c80c92926a4b)
REM
REM compiler GCC version 9.2.1 20190827 (Red Hat 9.2.1-1)
REM options -cpp -mtune=generic -march=x86-64 -g -O0 -fpre-include=/usr/include/finclude/math-vector-fortran.h
REM seed -258689066 -1265097748 -1949090016 -413163388 -473992532 -825563262 1178911703 -1870526947 1462279584 497438906 888280219 71965548 -63990788 321152605 1974896842 1181726760 -2138049163 1552163297 464382999 665471210 697924216 -1005861296 -995951092 299475287 -1490794089 -1308408384 1528551609 278871897 -843892100 344384642 876236392 103053326 1138249986
REM
CELL 1.54180   50.00000   50.00000   50.00000   90.00000   90.00000   90.00000
LATT -1
SFAC C  
C      1  0.5224450000000  0.4564800000000  0.5668800000000 1.0
C      1  0.5224260000000  0.5943030000000  0.4733120000000 1.0
C      1  0.5107690000000  0.4639750000000  0.4259410000000 1.0
C      1  0.4526750000000  0.5493880000000  0.4377080000000 1.0
C      1  0.5553880000000  0.5622680000000  0.4952450000000 1.0
C      1  0.4489940000000  0.4562590000000  0.4523280000000 1.0
C      1  0.4355030000000  0.5026410000000  0.4464820000000 1.0
C      1  0.5873610000000  0.5171110000000  0.4841090000000 1.0
C      1  0.5898040000000  0.4644780000000  0.5429080000000 1.0
C      1  0.5222910000000  0.4990230000000  0.5860800000000 1.0
C      1  0.5762400000000  0.4403400000000  0.5336830000000 1.0
C      1  0.5732110000000  0.5386020000000  0.4988370000000 1.0
C      1  0.5014650000000  0.5500960000000  0.4832550000000 1.0
C      1  0.4658260000000  0.4167250000000  0.5417880000000 1.0
C      1  0.4613280000000  0.4520380000000  0.5293940000000 1.0
C      1  0.5218580000000  0.5899360000000  0.5249510000000 1.0
C      1  0.5695060000000  0.5343480000000  0.5274610000000 1.0
C      1  0.4628480000000  0.4793560000000  0.3973700000000 1.0
C      1  0.5412690000000  0.4876760000000  0.4960330000000 1.0
C      1  0.4223080000000  0.5587250000000  0.5479380000000 1.0
C      1  0.5117740000000  0.4317150000000  0.5505800000000 1.0
C      1  0.4695080000000  0.4331850000000  0.4503010000000 1.0
C      1  0.4910250000000  0.5176770000000  0.4463570000000 1.0
C      1  0.4839550000000  0.5266890000000  0.4751090000000 1.0
C      1  0.5040110000000  0.4588690000000  0.4819020000000 1.0
C      1  0.5927970000000  0.5137870000000  0.4554650000000 1.0
C      1  0.5122050000000  0.5134740000000  0.5457580000000 1.0
C      1  0.5471580000000  0.5411310000000  0.5833300000000 1.0
C      1  0.6151150000000  0.4769010000000  0.4848600000000 1.0
C      1  0.5104420000000  0.4326650000000  0.5203790000000 1.0
C      1  0.4963350000000  0.5755310000000  0.5294770000000 1.0
C      1  0.4118490000000  0.5429400000000  0.5261040000000 1.0
C      1  0.4637270000000  0.5284600000000  0.5594630000000 1.0
C      1  0.4757880000000  0.5202770000000  0.5865320000000 1.0
C      1  0.3997490000000  0.5104820000000  0.4786320000000 1.0
C      1  0.4844010000000  0.5833280000000  0.4423360000000 1.0
C      1  0.4866240000000  0.4299370000000  0.4746390000000 1.0
C      1  0.5196780000000  0.5466880000000  0.5862360000000 1.0
C      1  0.4936950000000  0.5041190000000  0.4919070000000 1.0
C      1  0.5551430000000  0.4464980000000  0.5149920000000 1.0
C      1  0.4171570000000  0.4701120000000  0.5177050000000 1.0
C      1  0.4432650000000  0.5742130000000  0.5368930000000 1.0
C      1  0.4896840000000  0.4675660000000  0.4049000000000 1.0
C      1  0.5308460000000  0.4086770000000  0.5532670000000 1.0
C      1  0.4246890000000  0.5158870000000  0.5266700000000 1.0
C      1  0.4563010000000  0.5298060000000  0.4825700000000 1.0
C      1  0.4156850000000  0.4527980000000  0.4938340000000 1.0
C      1  0.4662580000000  0.4212530000000  0.4941400000000 1.0
C      1  0.5252950000000  0.5130070000000  0.4970030000000 1.0
C      1  0.5467230000000  0.5763550000000  0.4712610000000 1.0
C      1  0.5366020000000  0.4703950000000  0.5186000000000 1.0
C      1  0.4671050000000  0.4959810000000  0.5972210000000 1.0
C      1  0.4565720000000  0.4814890000000  0.4354340000000 1.0
C      1  0.4838280000000  0.4296180000000  0.5600990000000 1.0
C      1  0.5189240000000  0.4837890000000  0.5503850000000 1.0
C      1  0.4627130000000  0.4756750000000  0.5789410000000 1.0
C      1  0.5399190000000  0.4428100000000  0.4609390000000 1.0
C      1  0.3846600000000  0.5027080000000  0.5008190000000 1.0
C      1  0.5259930000000  0.5301820000000  0.5241590000000 1.0
C      1  0.5515500000000  0.4489210000000  0.5720540000000 1.0
C      1  0.4815700000000  0.6034060000000  0.4984610000000 1.0
C      1  0.5049920000000  0.5221280000000  0.5886280000000 1.0
C      1  0.5558050000000  0.5077500000000  0.4167110000000 1.0
C      1  0.4417620000000  0.4830660000000  0.5599780000000 1.0
C      1  0.4577630000000  0.4677760000000  0.4800750000000 1.0
C      1  0.4033560000000  0.4956440000000  0.5204630000000 1.0
C      1  0.4383160000000  0.5116660000000  0.5533990000000 1.0
C      1  0.5007130000000  0.5486760000000  0.5156120000000 1.0
C      1  0.5249140000000  0.5642170000000  0.4293710000000 1.0
C      1  0.4835580000000  0.4727570000000  0.5262580000000 1.0
C      1  0.5348880000000  0.4197750000000  0.4786880000000 1.0
C      1  0.5442330000000  0.5704420000000  0.5203720000000 1.0
C      1  0.5524030000000  0.5526270000000  0.5408370000000 1.0
C      1  0.4480430000000  0.5103660000000  0.5039750000000 1.0
C      1  0.5301690000000  0.5228630000000  0.4163910000000 1.0
C      1  0.5454050000000  0.5597120000000  0.4475910000000 1.0
C      1  0.5122600000000  0.6057000000000  0.5006210000000 1.0
C      1  0.4158400000000  0.4598710000000  0.4649690000000 1.0
C      1  0.4856990000000  0.4797970000000  0.4746300000000 1.0
C      1  0.6324380000000  0.4837900000000  0.4643760000000 1.0
C      1  0.4098310000000  0.4901800000000  0.4580600000000 1.0
C      1  0.4758740000000  0.5009250000000  0.5165940000000 1.0
C      1  0.4379850000000  0.4895130000000  0.4846900000000 1.0
C      1  0.5074170000000  0.4604430000000  0.5121120000000 1.0
C      1  0.5291830000000  0.5359600000000  0.4715630000000 1.0
C      1  0.4845940000000  0.5218810000000  0.5363570000000 1.0
C      1  0.4801290000000  0.4516210000000  0.5801040000000 1.0
C      1  0.5213690000000  0.5185500000000  0.4461910000000 1.0
C      1  0.4792420000000  0.5392720000000  0.4278890000000 1.0
C      1  0.5320650000000  0.4703610000000  0.4726510000000 1.0
C      1  0.5380020000000  0.4235920000000  0.5081950000000 1.0
C      1  0.4390060000000  0.5313330000000  0.4588570000000 1.0
C      1  0.4809450000000  0.4185990000000  0.4291840000000 1.0
C      1  0.4555520000000  0.5787130000000  0.4420970000000 1.0
C      1  0.4950080000000  0.5793930000000  0.4712050000000 1.0
C      1  0.5058100000000  0.4571290000000  0.5912800000000 1.0
C      1  0.5114160000000  0.5117540000000  0.3984080000000 1.0
C      1  0.5072090000000  0.4131370000000  0.4391940000000 1.0
C      1  0.5745740000000  0.5188920000000  0.4348150000000 1.0
C      1  0.5085140000000  0.4076000000000  0.4711650000000 1.0
C      1  0.4432230000000  0.5706010000000  0.5080700000000 1.0
C      1  0.5720810000000  0.4702930000000  0.5663220000000 1.0
C      1  0.4970060000000  0.5638050000000  0.4247140000000 1.0
C      1  0.5044710000000  0.3957480000000  0.5081320000000 1.0
C      1  0.4763530000000  0.4054460000000  0.5162920000000 1.0
C      1  0.4364760000000  0.4640000000000  0.5389310000000 1.0
C      1  0.4567960000000  0.5894120000000  0.4908560000000 1.0
C      1  0.5282530000000  0.3930580000000  0.5281260000000 1.0
C      1  0.4854750000000  0.4869870000000  0.4445730000000 1.0
C      1  0.4133380000000  0.5372510000000  0.4754340000000 1.0
C      1  0.5331660000000  0.4913730000000  0.4512420000000 1.0
C      1  0.4886460000000  0.4958200000000  0.3935400000000 1.0
C      1  0.5647010000000  0.4987340000000  0.5638580000000 1.0
C      1  0.4521710000000  0.4455680000000  0.5014670000000 1.0
C      1  0.4457650000000  0.5900750000000  0.4654040000000 1.0
C      1  0.5234310000000  0.4380270000000  0.4364350000000 1.0
C      1  0.5064550000000  0.5691930000000  0.5771360000000 1.0
C      1  0.5892200000000  0.4894510000000  0.5257080000000 1.0
C      1  0.5481010000000  0.5124030000000  0.5835280000000 1.0
C      1  0.4184770000000  0.5555010000000  0.5002070000000 1.0
C      1  0.5782080000000  0.5107400000000  0.5412230000000 1.0
C      1  0.5447470000000  0.4823400000000  0.4265620000000 1.0
C      1  0.4868210000000  0.5738910000000  0.5578030000000 1.0
C      1  0.6099310000000  0.4914530000000  0.4501110000000 1.0
C      1  0.5564440000000  0.4221970000000  0.5600510000000 1.0
C      1  0.6005720000000  0.4963240000000  0.4997950000000 1.0
C      1  0.4595550000000  0.5600720000000  0.5595110000000 1.0
END
