TITL C-951345-2650-90 -8.22597435031134e-09 125000 -181.904091569341 0 0 31 (C1) n - 1
REM
REM in /home/bkarasulu/work/CARBON/AIRSS/Generating-Clusters/EDIP-Nigel-Params/with-SteepDescent/Only-C1/SD-CG/HFTN-CG
REM
REM
REM
REM
REM
REM ./C.cell (11c1c37f851c82e70ff6c80c92926a4b)
REM
REM compiler GCC version 9.2.1 20190827 (Red Hat 9.2.1-1)
REM options -cpp -mtune=generic -march=x86-64 -g -O0 -fpre-include=/usr/include/finclude/math-vector-fortran.h
REM seed -2139522275 1616908213 -1048192263 2126100903 -1353734256 1386721594 -1077963480 -321061299 390849884 572958772 -1502101982 -785023262 1112692688 900414990 -872778558 -701789012 -1724818403 1056637189 -30061538 132498181 651975744 -1413280021 -88034975 -1413145397 -1783406017 1504871819 161895005 -861481463 2059818363 113046609 817529882 -355846967 -586393984
REM
CELL 1.54180   50.00000   50.00000   50.00000   90.00000   90.00000   90.00000
LATT -1
SFAC C  
C      1  0.5381990000000  0.5006660000000  0.5476910000000 1.0
C      1  0.4461840000000  0.4863590000000  0.4993460000000 1.0
C      1  0.4939750000000  0.4811550000000  0.5011590000000 1.0
C      1  0.4694960000000  0.4584840000000  0.4665030000000 1.0
C      1  0.5319250000000  0.4603950000000  0.5239710000000 1.0
C      1  0.4366250000000  0.5110050000000  0.5072360000000 1.0
C      1  0.4521460000000  0.5289910000000  0.5290500000000 1.0
C      1  0.4965780000000  0.4702830000000  0.4417350000000 1.0
C      1  0.4962960000000  0.5257850000000  0.5527280000000 1.0
C      1  0.4936860000000  0.5129810000000  0.5038050000000 1.0
C      1  0.5225960000000  0.5224080000000  0.5023230000000 1.0
C      1  0.5177530000000  0.5144470000000  0.4541900000000 1.0
C      1  0.5466920000000  0.4734370000000  0.5447210000000 1.0
C      1  0.4739500000000  0.5278730000000  0.4799610000000 1.0
C      1  0.4462050000000  0.5354000000000  0.4906550000000 1.0
C      1  0.4869900000000  0.5526290000000  0.4701070000000 1.0
C      1  0.4785180000000  0.5351760000000  0.4511900000000 1.0
C      1  0.4500350000000  0.5539970000000  0.5131900000000 1.0
C      1  0.5027860000000  0.4665040000000  0.5263400000000 1.0
C      1  0.4948090000000  0.4472630000000  0.4593340000000 1.0
C      1  0.5149690000000  0.4713390000000  0.4809120000000 1.0
C      1  0.5166090000000  0.4865750000000  0.4545520000000 1.0
C      1  0.4679100000000  0.4715030000000  0.4917210000000 1.0
C      1  0.5347840000000  0.5212700000000  0.4755670000000 1.0
C      1  0.4808620000000  0.5209140000000  0.5299830000000 1.0
C      1  0.5603060000000  0.5088740000000  0.4758720000000 1.0
C      1  0.5428130000000  0.5155270000000  0.5226910000000 1.0
C      1  0.5410450000000  0.4679170000000  0.4965280000000 1.0
C      1  0.5585900000000  0.4915290000000  0.4979400000000 1.0
C      1  0.5100520000000  0.5017920000000  0.5573850000000 1.0
C      1  0.4966150000000  0.4775190000000  0.5516140000000 1.0
END
