TITL C-950528-5794-609 -6.16747825048125e-07 125000 -426.717815025489 0 0 70 (C1) n - 1
REM
REM in /home/bkarasulu/work/CARBON/AIRSS/Generating-Clusters/EDIP-Nigel-Params/with-SteepDescent/Only-C1/SD-CG/HFTN-CG
REM
REM
REM
REM
REM
REM ./C.cell (11c1c37f851c82e70ff6c80c92926a4b)
REM
REM compiler GCC version 9.2.1 20190827 (Red Hat 9.2.1-1)
REM options -cpp -mtune=generic -march=x86-64 -g -O0 -fpre-include=/usr/include/finclude/math-vector-fortran.h
REM seed 1136925420 -1593187858 -1242162837 -1207046450 911724900 2052916958 1831205813 1066198761 -619726656 1652227639 -1829882517 -449523187 742312668 1602826752 -60776193 -1225208325 814899081 473170975 1585035804 -1870706294 -914884456 751912691 -1203037749 2046588710 553212288 1154958750 1587672367 2031415345 -701574987 -1731120188 917860928 -1812554122 458005432
REM
CELL 1.54180   50.00000   50.00000   50.00000   90.00000   90.00000   90.00000
LATT -1
SFAC C  
C      1  0.4905650000000  0.5320310000000  0.4245950000000 1.0
C      1  0.5181070000000  0.4298030000000  0.4964670000000 1.0
C      1  0.5060610000000  0.4341410000000  0.4716020000000 1.0
C      1  0.4758520000000  0.4664380000000  0.4471010000000 1.0
C      1  0.4335160000000  0.4939070000000  0.4516790000000 1.0
C      1  0.4699160000000  0.5893650000000  0.4974230000000 1.0
C      1  0.4639240000000  0.5502380000000  0.4552510000000 1.0
C      1  0.4423710000000  0.5581540000000  0.5203110000000 1.0
C      1  0.5268830000000  0.5481630000000  0.4452700000000 1.0
C      1  0.5200170000000  0.5536950000000  0.4958750000000 1.0
C      1  0.4677710000000  0.4996420000000  0.5762520000000 1.0
C      1  0.5417300000000  0.4448590000000  0.5041980000000 1.0
C      1  0.5589970000000  0.4591810000000  0.4837260000000 1.0
C      1  0.4260960000000  0.5112830000000  0.5132330000000 1.0
C      1  0.5769940000000  0.4802700000000  0.5415180000000 1.0
C      1  0.4436990000000  0.5510890000000  0.4767470000000 1.0
C      1  0.5575040000000  0.5094090000000  0.4434960000000 1.0
C      1  0.4358660000000  0.5002110000000  0.5381890000000 1.0
C      1  0.5629220000000  0.4895360000000  0.4906040000000 1.0
C      1  0.5205020000000  0.4491260000000  0.4522480000000 1.0
C      1  0.4447240000000  0.5764470000000  0.4951460000000 1.0
C      1  0.4921840000000  0.5218680000000  0.5211660000000 1.0
C      1  0.5176210000000  0.4306680000000  0.5407450000000 1.0
C      1  0.4637870000000  0.5287800000000  0.4357420000000 1.0
C      1  0.4930960000000  0.5467640000000  0.5026390000000 1.0
C      1  0.5023140000000  0.4630990000000  0.4343500000000 1.0
C      1  0.4330300000000  0.4437610000000  0.5058840000000 1.0
C      1  0.4611370000000  0.4732020000000  0.5367560000000 1.0
C      1  0.4365950000000  0.4527790000000  0.4791070000000 1.0
C      1  0.5708480000000  0.5096770000000  0.4685800000000 1.0
C      1  0.5111870000000  0.5108780000000  0.4259210000000 1.0
C      1  0.4989780000000  0.5552800000000  0.4394100000000 1.0
C      1  0.5367080000000  0.5506750000000  0.5209310000000 1.0
C      1  0.4989910000000  0.4690740000000  0.5747070000000 1.0
C      1  0.4598050000000  0.5017200000000  0.4458650000000 1.0
C      1  0.5246570000000  0.5008980000000  0.5205260000000 1.0
C      1  0.4154250000000  0.4932600000000  0.4949820000000 1.0
C      1  0.4966970000000  0.5066710000000  0.5792100000000 1.0
C      1  0.5367480000000  0.5237980000000  0.4302820000000 1.0
C      1  0.5473830000000  0.4552740000000  0.4581360000000 1.0
C      1  0.4244430000000  0.4789650000000  0.4731040000000 1.0
C      1  0.5306650000000  0.5348710000000  0.5475960000000 1.0
C      1  0.5629350000000  0.4946190000000  0.5620730000000 1.0
C      1  0.5025020000000  0.4219910000000  0.5182340000000 1.0
C      1  0.4816740000000  0.4893840000000  0.5203510000000 1.0
C      1  0.4783460000000  0.5336670000000  0.5453890000000 1.0
C      1  0.4580450000000  0.4480630000000  0.5177210000000 1.0
C      1  0.5173630000000  0.5075100000000  0.4741740000000 1.0
C      1  0.4638510000000  0.4468770000000  0.4672360000000 1.0
C      1  0.4675330000000  0.5610960000000  0.5366940000000 1.0
C      1  0.4814020000000  0.4785800000000  0.4936280000000 1.0
C      1  0.5102660000000  0.4840850000000  0.4174910000000 1.0
C      1  0.4701300000000  0.4712620000000  0.5669430000000 1.0
C      1  0.5579020000000  0.5219230000000  0.5537170000000 1.0
C      1  0.4554310000000  0.5155540000000  0.5549150000000 1.0
C      1  0.4423490000000  0.5331410000000  0.5029840000000 1.0
C      1  0.5151250000000  0.4622610000000  0.5512150000000 1.0
C      1  0.5606920000000  0.5355080000000  0.4795760000000 1.0
C      1  0.5794010000000  0.4954080000000  0.5168970000000 1.0
C      1  0.5327970000000  0.4931930000000  0.4947890000000 1.0
C      1  0.4785720000000  0.4490670000000  0.4938200000000 1.0
C      1  0.5749320000000  0.5228060000000  0.5283820000000 1.0
C      1  0.5077100000000  0.4808380000000  0.5293600000000 1.0
C      1  0.5309230000000  0.5368170000000  0.4732320000000 1.0
C      1  0.5470820000000  0.4378570000000  0.5326640000000 1.0
C      1  0.5475020000000  0.4599870000000  0.5546510000000 1.0
C      1  0.5034400000000  0.5307590000000  0.5628010000000 1.0
C      1  0.4887840000000  0.4948490000000  0.4702420000000 1.0
C      1  0.4841890000000  0.5719270000000  0.5148510000000 1.0
C      1  0.5628050000000  0.5420230000000  0.5093980000000 1.0
END
