TITL C-951338-5626-463 4.65346539404152e-07 125000 -416.815369916257 0 0 69 (C1) n - 1
REM
REM in /home/bkarasulu/work/CARBON/AIRSS/Generating-Clusters/EDIP-Nigel-Params/with-SteepDescent/Only-C1/SD-CG/HFTN-CG
REM
REM
REM
REM
REM
REM ./C.cell (11c1c37f851c82e70ff6c80c92926a4b)
REM
REM compiler GCC version 9.2.1 20190827 (Red Hat 9.2.1-1)
REM options -cpp -mtune=generic -march=x86-64 -g -O0 -fpre-include=/usr/include/finclude/math-vector-fortran.h
REM seed 1782499179 663413954 460896924 215131829 150842086 1354522443 671751479 -330277305 -2029160679 -254976989 1147593841 -81021217 149204495 1715614216 -1525289313 2001302944 -1665676432 -2098729737 459279041 804651273 475296798 190133257 1750245540 388250781 -1126391412 -1171607516 52949887 -602451981 1889930383 -621471035 -1821073488 611070715 -1716000990
REM
CELL 1.54180   50.00000   50.00000   50.00000   90.00000   90.00000   90.00000
LATT -1
SFAC C  
C      1  0.5510410000000  0.4929990000000  0.5501540000000 1.0
C      1  0.5419490000000  0.4447600000000  0.5271910000000 1.0
C      1  0.5211810000000  0.4656390000000  0.5214900000000 1.0
C      1  0.4134310000000  0.5079640000000  0.5045360000000 1.0
C      1  0.4851380000000  0.4361260000000  0.5224980000000 1.0
C      1  0.4842310000000  0.5615990000000  0.5196230000000 1.0
C      1  0.5288750000000  0.5200050000000  0.4538150000000 1.0
C      1  0.5073820000000  0.5641690000000  0.4795380000000 1.0
C      1  0.4738100000000  0.4607750000000  0.4393360000000 1.0
C      1  0.5436810000000  0.4861720000000  0.4892520000000 1.0
C      1  0.4636820000000  0.5235920000000  0.5482060000000 1.0
C      1  0.4333420000000  0.4717000000000  0.5534040000000 1.0
C      1  0.5076210000000  0.4977860000000  0.4220060000000 1.0
C      1  0.5242750000000  0.5714560000000  0.5038160000000 1.0
C      1  0.5759710000000  0.4904070000000  0.4705640000000 1.0
C      1  0.5029490000000  0.5221150000000  0.4377440000000 1.0
C      1  0.5174030000000  0.4510940000000  0.4608860000000 1.0
C      1  0.5575980000000  0.5408140000000  0.5274790000000 1.0
C      1  0.4594880000000  0.4339330000000  0.5380020000000 1.0
C      1  0.4782360000000  0.4526530000000  0.4973520000000 1.0
C      1  0.5615370000000  0.5481140000000  0.4788110000000 1.0
C      1  0.5359880000000  0.5082440000000  0.5709670000000 1.0
C      1  0.5063950000000  0.5320250000000  0.5083820000000 1.0
C      1  0.5623490000000  0.4641430000000  0.4628550000000 1.0
C      1  0.5042940000000  0.4691800000000  0.4930250000000 1.0
C      1  0.5803480000000  0.5021720000000  0.4978860000000 1.0
C      1  0.4489840000000  0.5518630000000  0.4820660000000 1.0
C      1  0.4595240000000  0.4563780000000  0.5606030000000 1.0
C      1  0.4333140000000  0.4997300000000  0.5497740000000 1.0
C      1  0.5560360000000  0.4442860000000  0.4849470000000 1.0
C      1  0.4587790000000  0.5644510000000  0.5318680000000 1.0
C      1  0.5077060000000  0.4989380000000  0.5754860000000 1.0
C      1  0.4515730000000  0.4664670000000  0.5016880000000 1.0
C      1  0.5631160000000  0.4534930000000  0.5119110000000 1.0
C      1  0.4776420000000  0.5297640000000  0.4501080000000 1.0
C      1  0.5535950000000  0.5644950000000  0.5056590000000 1.0
C      1  0.4424560000000  0.5489490000000  0.5114330000000 1.0
C      1  0.4519430000000  0.4705980000000  0.4533090000000 1.0
C      1  0.5093920000000  0.5708660000000  0.5290180000000 1.0
C      1  0.5006520000000  0.4551970000000  0.5392280000000 1.0
C      1  0.4251420000000  0.5045060000000  0.4785840000000 1.0
C      1  0.4385090000000  0.4540890000000  0.5268030000000 1.0
C      1  0.4354630000000  0.5024710000000  0.5213970000000 1.0
C      1  0.4864230000000  0.4722460000000  0.5581660000000 1.0
C      1  0.4967890000000  0.4966320000000  0.4838470000000 1.0
C      1  0.4593090000000  0.5510660000000  0.5568390000000 1.0
C      1  0.4565200000000  0.5224310000000  0.5178680000000 1.0
C      1  0.4516000000000  0.5247950000000  0.4407910000000 1.0
C      1  0.4918230000000  0.5106920000000  0.5526390000000 1.0
C      1  0.5601970000000  0.5253860000000  0.5003260000000 1.0
C      1  0.5347660000000  0.5360050000000  0.5474510000000 1.0
C      1  0.4817610000000  0.5200720000000  0.4962850000000 1.0
C      1  0.5705120000000  0.4818720000000  0.5187660000000 1.0
C      1  0.5237020000000  0.5091540000000  0.4819240000000 1.0
C      1  0.5140730000000  0.5180320000000  0.5333040000000 1.0
C      1  0.4877270000000  0.4782090000000  0.4227770000000 1.0
C      1  0.5278700000000  0.4333960000000  0.4819920000000 1.0
C      1  0.4785870000000  0.5437380000000  0.4761520000000 1.0
C      1  0.4395170000000  0.4780960000000  0.4769680000000 1.0
C      1  0.5226530000000  0.5684660000000  0.4564040000000 1.0
C      1  0.4357780000000  0.5296600000000  0.4643300000000 1.0
C      1  0.5302450000000  0.4930800000000  0.5299170000000 1.0
C      1  0.4908390000000  0.4404450000000  0.4523410000000 1.0
C      1  0.5056290000000  0.4179720000000  0.4949690000000 1.0
C      1  0.5387860000000  0.4650490000000  0.4443720000000 1.0
C      1  0.5344320000000  0.4901690000000  0.4309460000000 1.0
C      1  0.4816000000000  0.4287130000000  0.4787270000000 1.0
C      1  0.5213920000000  0.5610530000000  0.5526050000000 1.0
C      1  0.5414480000000  0.5473930000000  0.4565960000000 1.0
END
