TITL C-950535-5962-57 3.72228231354526e-08 125000 -126.188317437131 0 0 22 (C1) n - 1
REM
REM in /home/bkarasulu/work/CARBON/AIRSS/Generating-Clusters/EDIP-Nigel-Params/with-SteepDescent/Only-C1/SD-CG/HFTN-CG
REM
REM
REM
REM
REM
REM ./C.cell (11c1c37f851c82e70ff6c80c92926a4b)
REM
REM compiler GCC version 9.2.1 20190827 (Red Hat 9.2.1-1)
REM options -cpp -mtune=generic -march=x86-64 -g -O0 -fpre-include=/usr/include/finclude/math-vector-fortran.h
REM seed -6681460 -761148535 409189439 -1805600535 1736244254 31766871 -1103140222 1855780761 -1367605917 -1657768176 -220200127 605717290 -105232846 -22105276 2083601418 -42840322 290713964 -1924546388 -1173179192 -1720942365 -311601723 479903405 -1462748869 -1425650963 646443962 2066328669 219465760 501316909 1656944306 1117707078 1347031961 247013027 -624429961
REM
CELL 1.54180   50.00000   50.00000   50.00000   90.00000   90.00000   90.00000
LATT -1
SFAC C  
C      1  0.5485430000000  0.4957280000000  0.5049930000000 1.0
C      1  0.5137110000000  0.5143320000000  0.4749350000000 1.0
C      1  0.5157610000000  0.4466900000000  0.5133750000000 1.0
C      1  0.5054580000000  0.5023030000000  0.5572870000000 1.0
C      1  0.4849630000000  0.4825370000000  0.4992410000000 1.0
C      1  0.5063780000000  0.4632290000000  0.4925060000000 1.0
C      1  0.4500720000000  0.5485120000000  0.4872030000000 1.0
C      1  0.5396990000000  0.4882340000000  0.5327250000000 1.0
C      1  0.4247650000000  0.5279240000000  0.4527500000000 1.0
C      1  0.5340740000000  0.5177550000000  0.4942340000000 1.0
C      1  0.4760450000000  0.4802820000000  0.5258990000000 1.0
C      1  0.5275460000000  0.4722130000000  0.4736420000000 1.0
C      1  0.5306350000000  0.5095970000000  0.5493750000000 1.0
C      1  0.4480520000000  0.5309330000000  0.4648770000000 1.0
C      1  0.4667660000000  0.5104700000000  0.4640890000000 1.0
C      1  0.5201620000000  0.4649940000000  0.5348470000000 1.0
C      1  0.4858970000000  0.5096100000000  0.4856650000000 1.0
C      1  0.4740280000000  0.5573980000000  0.4978900000000 1.0
C      1  0.4959140000000  0.4782710000000  0.5459290000000 1.0
C      1  0.5201920000000  0.4939220000000  0.4567160000000 1.0
C      1  0.4785600000000  0.5310060000000  0.5049810000000 1.0
C      1  0.5527780000000  0.4740590000000  0.4868400000000 1.0
END
