TITL C-951338-5626-488 3.26712367125727e-06 125000 -738.336399406187 0 0 119 (C1) n - 1
REM
REM in /home/bkarasulu/work/CARBON/AIRSS/Generating-Clusters/EDIP-Nigel-Params/with-SteepDescent/Only-C1/SD-CG/HFTN-CG
REM
REM
REM
REM
REM
REM ./C.cell (11c1c37f851c82e70ff6c80c92926a4b)
REM
REM compiler GCC version 9.2.1 20190827 (Red Hat 9.2.1-1)
REM options -cpp -mtune=generic -march=x86-64 -g -O0 -fpre-include=/usr/include/finclude/math-vector-fortran.h
REM seed -504710556 -1937014055 -702598345 535692569 -521134562 -1086472101 947376015 253900249 -1002689749 1126991583 1637724339 -1571966868 1262240495 1655188680 743933311 -1202792230 1341429158 1413976957 -47200662 97291103 1605772732 922660907 -1834319053 -1977456019 1633618773 1749252244 -1137875856 1663960828 -1869513695 -698351854 -901187021 -1907755361 -551791419
REM
CELL 1.54180   50.00000   50.00000   50.00000   90.00000   90.00000   90.00000
LATT -1
SFAC C  
C      1  0.5126950000000  0.4225670000000  0.4987240000000 1.0
C      1  0.5165020000000  0.5520530000000  0.5802110000000 1.0
C      1  0.4245220000000  0.4877480000000  0.5154760000000 1.0
C      1  0.4793360000000  0.4391400000000  0.5608420000000 1.0
C      1  0.5635200000000  0.4196860000000  0.4715760000000 1.0
C      1  0.5882580000000  0.5237900000000  0.5232490000000 1.0
C      1  0.5397070000000  0.5013410000000  0.5849410000000 1.0
C      1  0.4669100000000  0.5207750000000  0.5177290000000 1.0
C      1  0.3924020000000  0.5059000000000  0.5487760000000 1.0
C      1  0.4898760000000  0.4617140000000  0.5429770000000 1.0
C      1  0.4883720000000  0.4158380000000  0.5440530000000 1.0
C      1  0.5047310000000  0.4686700000000  0.4199830000000 1.0
C      1  0.4000660000000  0.5047150000000  0.5212020000000 1.0
C      1  0.4337820000000  0.5047360000000  0.4431820000000 1.0
C      1  0.5743410000000  0.4320970000000  0.4948220000000 1.0
C      1  0.5606690000000  0.4988250000000  0.5649930000000 1.0
C      1  0.5231030000000  0.5968330000000  0.5292520000000 1.0
C      1  0.4417060000000  0.4494330000000  0.5403590000000 1.0
C      1  0.5354890000000  0.5123770000000  0.5190390000000 1.0
C      1  0.5403470000000  0.4411470000000  0.4362860000000 1.0
C      1  0.4302020000000  0.5703900000000  0.4750180000000 1.0
C      1  0.4870930000000  0.5564400000000  0.5784540000000 1.0
C      1  0.5591890000000  0.5288380000000  0.5323050000000 1.0
C      1  0.4588660000000  0.5502480000000  0.4421540000000 1.0
C      1  0.4992550000000  0.4539750000000  0.4446430000000 1.0
C      1  0.4000350000000  0.5296120000000  0.5067140000000 1.0
C      1  0.5666980000000  0.4475930000000  0.5183770000000 1.0
C      1  0.4616480000000  0.4174590000000  0.4765770000000 1.0
C      1  0.5229110000000  0.4620370000000  0.4650430000000 1.0
C      1  0.4602600000000  0.5184480000000  0.4321180000000 1.0
C      1  0.4437120000000  0.4299270000000  0.5186540000000 1.0
C      1  0.4807050000000  0.5700540000000  0.4491570000000 1.0
C      1  0.4230490000000  0.5245590000000  0.4621220000000 1.0
C      1  0.5505970000000  0.5152050000000  0.4129580000000 1.0
C      1  0.5846420000000  0.4704390000000  0.5292700000000 1.0
C      1  0.4575600000000  0.4656330000000  0.4234000000000 1.0
C      1  0.5219170000000  0.4907360000000  0.4774710000000 1.0
C      1  0.5502060000000  0.5546250000000  0.4694030000000 1.0
C      1  0.5858080000000  0.4755190000000  0.4700620000000 1.0
C      1  0.4823650000000  0.4309600000000  0.4972590000000 1.0
C      1  0.4996350000000  0.4887990000000  0.5596130000000 1.0
C      1  0.5073670000000  0.5461130000000  0.4151940000000 1.0
C      1  0.4502760000000  0.5834140000000  0.5175870000000 1.0
C      1  0.5677790000000  0.4359570000000  0.4470440000000 1.0
C      1  0.5273460000000  0.5174010000000  0.4618900000000 1.0
C      1  0.4698480000000  0.4136400000000  0.5201020000000 1.0
C      1  0.4204190000000  0.5471800000000  0.5184510000000 1.0
C      1  0.5269710000000  0.4470560000000  0.4906500000000 1.0
C      1  0.5257280000000  0.5316700000000  0.4975030000000 1.0
C      1  0.4657020000000  0.5301830000000  0.4890580000000 1.0
C      1  0.4926290000000  0.5437090000000  0.4824540000000 1.0
C      1  0.4768920000000  0.5898580000000  0.5069930000000 1.0
C      1  0.4690410000000  0.4534090000000  0.4474240000000 1.0
C      1  0.4756890000000  0.5081420000000  0.4062480000000 1.0
C      1  0.4739130000000  0.5415530000000  0.5371260000000 1.0
C      1  0.4867650000000  0.4980240000000  0.5181010000000 1.0
C      1  0.4777270000000  0.5801680000000  0.5615120000000 1.0
C      1  0.4302320000000  0.5692640000000  0.5026320000000 1.0
C      1  0.5332260000000  0.5808330000000  0.5043380000000 1.0
C      1  0.5623010000000  0.4289600000000  0.5418610000000 1.0
C      1  0.5606260000000  0.4487740000000  0.5645460000000 1.0
C      1  0.4711970000000  0.5326270000000  0.5668670000000 1.0
C      1  0.5268870000000  0.5030280000000  0.4027740000000 1.0
C      1  0.4567540000000  0.4889750000000  0.5832120000000 1.0
C      1  0.5362920000000  0.5914660000000  0.5532620000000 1.0
C      1  0.5850300000000  0.4571730000000  0.4508560000000 1.0
C      1  0.4429360000000  0.5455530000000  0.4672810000000 1.0
C      1  0.5274190000000  0.5269530000000  0.5875200000000 1.0
C      1  0.5754930000000  0.4740420000000  0.5576000000000 1.0
C      1  0.4729870000000  0.4622170000000  0.5127600000000 1.0
C      1  0.4512240000000  0.4404400000000  0.5653200000000 1.0
C      1  0.5406670000000  0.4106170000000  0.5402440000000 1.0
C      1  0.4943160000000  0.5862670000000  0.5323840000000 1.0
C      1  0.5210390000000  0.4794950000000  0.5788730000000 1.0
C      1  0.5303630000000  0.5724090000000  0.4562950000000 1.0
C      1  0.5851510000000  0.5424570000000  0.4988180000000 1.0
C      1  0.5074010000000  0.5654650000000  0.4363950000000 1.0
C      1  0.4216210000000  0.4699800000000  0.5384000000000 1.0
C      1  0.4943330000000  0.4927390000000  0.4899190000000 1.0
C      1  0.4406760000000  0.5318180000000  0.5679860000000 1.0
C      1  0.5316570000000  0.4547900000000  0.5652780000000 1.0
C      1  0.5394610000000  0.4613480000000  0.5129590000000 1.0
C      1  0.5714330000000  0.5237280000000  0.5579700000000 1.0
C      1  0.5357710000000  0.4085350000000  0.4715590000000 1.0
C      1  0.5191220000000  0.4517730000000  0.5377930000000 1.0
C      1  0.4312370000000  0.4756210000000  0.4492690000000 1.0
C      1  0.4786470000000  0.5040120000000  0.5741250000000 1.0
C      1  0.4382160000000  0.4338430000000  0.4875900000000 1.0
C      1  0.4788010000000  0.4779240000000  0.4072250000000 1.0
C      1  0.5176680000000  0.5866840000000  0.4786970000000 1.0
C      1  0.5644070000000  0.5636210000000  0.4936090000000 1.0
C      1  0.4694490000000  0.5022250000000  0.4766990000000 1.0
C      1  0.4981090000000  0.5575880000000  0.5290860000000 1.0
C      1  0.4117490000000  0.4883240000000  0.5606910000000 1.0
C      1  0.5445610000000  0.4791700000000  0.4002470000000 1.0
C      1  0.4011240000000  0.5240770000000  0.4791760000000 1.0
C      1  0.5303790000000  0.4570460000000  0.4111930000000 1.0
C      1  0.4489280000000  0.4799760000000  0.4965410000000 1.0
C      1  0.5756070000000  0.4954870000000  0.4873480000000 1.0
C      1  0.5216630000000  0.5553040000000  0.5132980000000 1.0
C      1  0.4281320000000  0.5504800000000  0.5476780000000 1.0
C      1  0.5010730000000  0.5310130000000  0.4546330000000 1.0
C      1  0.5029610000000  0.5203900000000  0.4049400000000 1.0
C      1  0.5512380000000  0.5153470000000  0.4417310000000 1.0
C      1  0.4679960000000  0.4237230000000  0.4485910000000 1.0
C      1  0.5105780000000  0.5046650000000  0.5355170000000 1.0
C      1  0.4954460000000  0.4151810000000  0.4413700000000 1.0
C      1  0.5238810000000  0.4177520000000  0.4464740000000 1.0
C      1  0.4808440000000  0.5094440000000  0.4504290000000 1.0
C      1  0.4523650000000  0.5698450000000  0.5439850000000 1.0
C      1  0.5831320000000  0.5233110000000  0.4765390000000 1.0
C      1  0.5159450000000  0.4223620000000  0.5307720000000 1.0
C      1  0.5325480000000  0.5737810000000  0.5731820000000 1.0
C      1  0.5436370000000  0.4898670000000  0.4999080000000 1.0
C      1  0.4367670000000  0.4626540000000  0.4761560000000 1.0
C      1  0.4892620000000  0.5756860000000  0.4800120000000 1.0
C      1  0.5668780000000  0.5354060000000  0.4552210000000 1.0
C      1  0.5900810000000  0.4949490000000  0.5130390000000 1.0
C      1  0.4342970000000  0.5031600000000  0.5735450000000 1.0
END
