TITL C-950525-1983-54 -2.46032497153135e-06 125000 -1181.75964803749 0 0 188 (C1) n - 1
REM
REM in /home/bkarasulu/work/CARBON/AIRSS/Generating-Clusters/EDIP-Nigel-Params/with-SteepDescent/Only-C1/SD-CG/HFTN-CG
REM
REM
REM
REM
REM
REM ./C.cell (11c1c37f851c82e70ff6c80c92926a4b)
REM
REM compiler GCC version 9.2.1 20190827 (Red Hat 9.2.1-1)
REM options -cpp -mtune=generic -march=x86-64 -g -O0 -fpre-include=/usr/include/finclude/math-vector-fortran.h
REM seed 1345903571 -1808019269 554840326 -473514285 -390502673 -1561818294 -866389492 -859889427 2062121534 278280789 1866742130 -1500905589 -602357893 1889888319 937271432 -651617881 1342111885 1610018678 -1236176713 -305238794 651734204 -748873669 -815988561 -972734520 4534561 1604360416 1310627603 1641461596 1462593926 -1338819108 -1962198189 -190007102 -144991136
REM
CELL 1.54180   50.00000   50.00000   50.00000   90.00000   90.00000   90.00000
LATT -1
SFAC C  
C      1  0.5836880000000  0.5532570000000  0.4797330000000 1.0
C      1  0.5025220000000  0.4286600000000  0.5962440000000 1.0
C      1  0.3885930000000  0.4780780000000  0.5382670000000 1.0
C      1  0.5329980000000  0.6035750000000  0.4929710000000 1.0
C      1  0.3936780000000  0.4455540000000  0.4694980000000 1.0
C      1  0.5219640000000  0.5919320000000  0.4663300000000 1.0
C      1  0.5875210000000  0.5562250000000  0.5290180000000 1.0
C      1  0.4439490000000  0.5551760000000  0.5517410000000 1.0
C      1  0.5353350000000  0.5873750000000  0.5673900000000 1.0
C      1  0.4139890000000  0.5501370000000  0.5450250000000 1.0
C      1  0.4385710000000  0.5444050000000  0.4681000000000 1.0
C      1  0.5669380000000  0.4554750000000  0.5738750000000 1.0
C      1  0.4938870000000  0.6045370000000  0.4615890000000 1.0
C      1  0.5040640000000  0.5177470000000  0.4650780000000 1.0
C      1  0.5839000000000  0.4176010000000  0.4946530000000 1.0
C      1  0.5998110000000  0.4637880000000  0.4977140000000 1.0
C      1  0.5771880000000  0.4810820000000  0.5686970000000 1.0
C      1  0.4858560000000  0.4294350000000  0.5033950000000 1.0
C      1  0.6031070000000  0.5128750000000  0.5381790000000 1.0
C      1  0.6090330000000  0.5203670000000  0.5094690000000 1.0
C      1  0.6165550000000  0.4811250000000  0.4800510000000 1.0
C      1  0.4652430000000  0.5747510000000  0.4356390000000 1.0
C      1  0.5979370000000  0.4377770000000  0.4812700000000 1.0
C      1  0.4102820000000  0.4387570000000  0.5274290000000 1.0
C      1  0.4914480000000  0.4680350000000  0.4402760000000 1.0
C      1  0.4699200000000  0.5983570000000  0.5345570000000 1.0
C      1  0.4676630000000  0.4490010000000  0.4854460000000 1.0
C      1  0.4543230000000  0.4324950000000  0.5753830000000 1.0
C      1  0.5926170000000  0.5471400000000  0.4517870000000 1.0
C      1  0.3795710000000  0.4945200000000  0.4728130000000 1.0
C      1  0.5856600000000  0.4918310000000  0.4280370000000 1.0
C      1  0.4631940000000  0.4326300000000  0.4582960000000 1.0
C      1  0.4842090000000  0.4311190000000  0.5358780000000 1.0
C      1  0.3975280000000  0.5367950000000  0.4942950000000 1.0
C      1  0.5240800000000  0.4566950000000  0.4124990000000 1.0
C      1  0.5616010000000  0.4804430000000  0.4718270000000 1.0
C      1  0.4197570000000  0.4356570000000  0.4628240000000 1.0
C      1  0.5418100000000  0.4467700000000  0.5642410000000 1.0
C      1  0.5694020000000  0.5943630000000  0.4567180000000 1.0
C      1  0.4017440000000  0.5018690000000  0.4537700000000 1.0
C      1  0.4538590000000  0.4022470000000  0.4621980000000 1.0
C      1  0.4775020000000  0.5926440000000  0.4850890000000 1.0
C      1  0.5320070000000  0.5027200000000  0.4351790000000 1.0
C      1  0.5054310000000  0.4788370000000  0.5740220000000 1.0
C      1  0.5330900000000  0.5090580000000  0.5496820000000 1.0
C      1  0.5019250000000  0.5255300000000  0.5871650000000 1.0
C      1  0.4417290000000  0.4116690000000  0.5039790000000 1.0
C      1  0.5202530000000  0.5159630000000  0.6086360000000 1.0
C      1  0.4969970000000  0.3809200000000  0.4710430000000 1.0
C      1  0.4302760000000  0.5493410000000  0.5936180000000 1.0
C      1  0.5133720000000  0.6062350000000  0.5580930000000 1.0
C      1  0.5746020000000  0.4439880000000  0.4206480000000 1.0
C      1  0.3967270000000  0.4813390000000  0.5107050000000 1.0
C      1  0.4474510000000  0.4619730000000  0.5760840000000 1.0
C      1  0.5217580000000  0.6239290000000  0.5375980000000 1.0
C      1  0.5707650000000  0.5429220000000  0.4328040000000 1.0
C      1  0.4846670000000  0.4726050000000  0.5974150000000 1.0
C      1  0.5206600000000  0.3825120000000  0.5202360000000 1.0
C      1  0.5381420000000  0.4866280000000  0.5294900000000 1.0
C      1  0.5700860000000  0.4237500000000  0.5181070000000 1.0
C      1  0.4084380000000  0.4602840000000  0.5474800000000 1.0
C      1  0.5245160000000  0.5076680000000  0.4827580000000 1.0
C      1  0.5841130000000  0.4458620000000  0.4535800000000 1.0
C      1  0.5317850000000  0.4560400000000  0.5375940000000 1.0
C      1  0.4736580000000  0.3884730000000  0.5334180000000 1.0
C      1  0.5027100000000  0.5954240000000  0.4147320000000 1.0
C      1  0.5569350000000  0.4368960000000  0.4650430000000 1.0
C      1  0.4849390000000  0.6067860000000  0.5104270000000 1.0
C      1  0.4786770000000  0.4866840000000  0.4866140000000 1.0
C      1  0.5034190000000  0.4921140000000  0.3961880000000 1.0
C      1  0.3807940000000  0.5127190000000  0.4956950000000 1.0
C      1  0.5151860000000  0.5629490000000  0.4743010000000 1.0
C      1  0.4475240000000  0.5879620000000  0.4822050000000 1.0
C      1  0.5523000000000  0.5496730000000  0.5869210000000 1.0
C      1  0.3778960000000  0.4666200000000  0.4810840000000 1.0
C      1  0.4781440000000  0.5167650000000  0.4779620000000 1.0
C      1  0.4828720000000  0.6016920000000  0.5616520000000 1.0
C      1  0.6169020000000  0.5342930000000  0.4483860000000 1.0
C      1  0.5136440000000  0.6111980000000  0.5140420000000 1.0
C      1  0.5123190000000  0.4261410000000  0.4587880000000 1.0
C      1  0.4506070000000  0.5076530000000  0.4051690000000 1.0
C      1  0.4518740000000  0.4393520000000  0.4083460000000 1.0
C      1  0.4998260000000  0.4980360000000  0.4257170000000 1.0
C      1  0.3982930000000  0.5292930000000  0.4445600000000 1.0
C      1  0.5223380000000  0.4248920000000  0.5725080000000 1.0
C      1  0.4134920000000  0.4545920000000  0.5019690000000 1.0
C      1  0.4801410000000  0.4283450000000  0.4126170000000 1.0
C      1  0.4078780000000  0.5562760000000  0.5156470000000 1.0
C      1  0.4110900000000  0.5337700000000  0.4201410000000 1.0
C      1  0.4363170000000  0.5706130000000  0.5068670000000 1.0
C      1  0.4772070000000  0.5419700000000  0.4997930000000 1.0
C      1  0.5393550000000  0.4244960000000  0.4458290000000 1.0
C      1  0.4436150000000  0.4642330000000  0.5022380000000 1.0
C      1  0.4611060000000  0.5356340000000  0.3971930000000 1.0
C      1  0.5892920000000  0.5354970000000  0.5523730000000 1.0
C      1  0.5665800000000  0.4936960000000  0.5210010000000 1.0
C      1  0.4522240000000  0.5752260000000  0.5310440000000 1.0
C      1  0.5589340000000  0.5351260000000  0.4874290000000 1.0
C      1  0.4464970000000  0.5423030000000  0.4989190000000 1.0
C      1  0.5065050000000  0.5081150000000  0.5631140000000 1.0
C      1  0.4293610000000  0.4115980000000  0.4771400000000 1.0
C      1  0.4993680000000  0.4447870000000  0.3969030000000 1.0
C      1  0.4460660000000  0.5712710000000  0.4578460000000 1.0
C      1  0.5364400000000  0.5554710000000  0.4952610000000 1.0
C      1  0.5088630000000  0.4164340000000  0.5461850000000 1.0
C      1  0.4351360000000  0.4976420000000  0.4659600000000 1.0
C      1  0.5736870000000  0.4779960000000  0.4977940000000 1.0
C      1  0.4128390000000  0.4855800000000  0.4296110000000 1.0
C      1  0.4890440000000  0.5653960000000  0.4868470000000 1.0
C      1  0.5879210000000  0.4770680000000  0.4557360000000 1.0
C      1  0.5323210000000  0.4867830000000  0.3922380000000 1.0
C      1  0.4361490000000  0.4729530000000  0.4463360000000 1.0
C      1  0.5458210000000  0.4331590000000  0.4181890000000 1.0
C      1  0.4329690000000  0.4202150000000  0.5298150000000 1.0
C      1  0.5530860000000  0.5817490000000  0.5006640000000 1.0
C      1  0.4916710000000  0.4921640000000  0.5124740000000 1.0
C      1  0.5888910000000  0.4864140000000  0.5413110000000 1.0
C      1  0.4734040000000  0.5790890000000  0.5808650000000 1.0
C      1  0.4710060000000  0.3855000000000  0.4800450000000 1.0
C      1  0.5670330000000  0.5789630000000  0.5275340000000 1.0
C      1  0.4878560000000  0.4360100000000  0.4409270000000 1.0
C      1  0.5114830000000  0.4481560000000  0.4803230000000 1.0
C      1  0.5664590000000  0.4723720000000  0.4165570000000 1.0
C      1  0.4834760000000  0.5973110000000  0.4353450000000 1.0
C      1  0.5388320000000  0.4955210000000  0.5979380000000 1.0
C      1  0.4591680000000  0.5239030000000  0.5569890000000 1.0
C      1  0.5297000000000  0.5670580000000  0.5874520000000 1.0
C      1  0.5033540000000  0.5547340000000  0.5804810000000 1.0
C      1  0.4734630000000  0.5575110000000  0.4128250000000 1.0
C      1  0.5231970000000  0.4067870000000  0.5052940000000 1.0
C      1  0.4750400000000  0.4235040000000  0.5917100000000 1.0
C      1  0.5683120000000  0.5301960000000  0.5737740000000 1.0
C      1  0.6018730000000  0.5480760000000  0.5037310000000 1.0
C      1  0.5028900000000  0.5056360000000  0.6279930000000 1.0
C      1  0.4217000000000  0.5087010000000  0.4126980000000 1.0
C      1  0.5230770000000  0.5449530000000  0.5200720000000 1.0
C      1  0.4355340000000  0.4758670000000  0.5975900000000 1.0
C      1  0.5439960000000  0.5348220000000  0.5373090000000 1.0
C      1  0.4857410000000  0.4695020000000  0.3884180000000 1.0
C      1  0.4624220000000  0.4751480000000  0.4317560000000 1.0
C      1  0.4394610000000  0.5032190000000  0.5902940000000 1.0
C      1  0.5413790000000  0.4506000000000  0.4872300000000 1.0
C      1  0.4453660000000  0.5680080000000  0.5781960000000 1.0
C      1  0.4086060000000  0.5435280000000  0.4677150000000 1.0
C      1  0.5448050000000  0.5872910000000  0.4456130000000 1.0
C      1  0.4191180000000  0.5239020000000  0.5854520000000 1.0
C      1  0.5025530000000  0.3882510000000  0.5410550000000 1.0
C      1  0.5222910000000  0.5516580000000  0.4171880000000 1.0
C      1  0.5198290000000  0.4906030000000  0.5060810000000 1.0
C      1  0.5747170000000  0.5814400000000  0.4807560000000 1.0
C      1  0.5504380000000  0.5708970000000  0.5486610000000 1.0
C      1  0.4817720000000  0.4746800000000  0.5329320000000 1.0
C      1  0.4717180000000  0.5170910000000  0.4295560000000 1.0
C      1  0.5061280000000  0.4549450000000  0.6101020000000 1.0
C      1  0.4691170000000  0.4016180000000  0.5052790000000 1.0
C      1  0.4376870000000  0.5146080000000  0.5133720000000 1.0
C      1  0.5464720000000  0.5610640000000  0.4312610000000 1.0
C      1  0.4801480000000  0.4972880000000  0.6130750000000 1.0
C      1  0.4942560000000  0.5422640000000  0.5286930000000 1.0
C      1  0.5112710000000  0.4037020000000  0.4783600000000 1.0
C      1  0.5627890000000  0.5026630000000  0.5817520000000 1.0
C      1  0.4587980000000  0.4698650000000  0.4021030000000 1.0
C      1  0.4546960000000  0.4638970000000  0.5299600000000 1.0
C      1  0.5005870000000  0.5683180000000  0.4061820000000 1.0
C      1  0.4358020000000  0.4731970000000  0.5506540000000 1.0
C      1  0.5124320000000  0.5427690000000  0.4527790000000 1.0
C      1  0.4115250000000  0.5226680000000  0.5561120000000 1.0
C      1  0.4653960000000  0.5167290000000  0.5951640000000 1.0
C      1  0.6321160000000  0.5230310000000  0.4672720000000 1.0
C      1  0.5703530000000  0.5165340000000  0.4194860000000 1.0
C      1  0.4857320000000  0.5170070000000  0.5422880000000 1.0
C      1  0.5480670000000  0.5076160000000  0.4660850000000 1.0
C      1  0.6020060000000  0.4617930000000  0.5284770000000 1.0
C      1  0.5309260000000  0.4679400000000  0.6014230000000 1.0
C      1  0.4553790000000  0.5196530000000  0.4578570000000 1.0
C      1  0.4356960000000  0.5078390000000  0.5439120000000 1.0
C      1  0.5868460000000  0.4389000000000  0.5348920000000 1.0
C      1  0.6251190000000  0.5069110000000  0.4888100000000 1.0
C      1  0.5483560000000  0.5100960000000  0.4010750000000 1.0
C      1  0.5019280000000  0.4601610000000  0.5495140000000 1.0
C      1  0.4576290000000  0.4177030000000  0.5483810000000 1.0
C      1  0.4331800000000  0.4362430000000  0.4341630000000 1.0
C      1  0.4362410000000  0.4921070000000  0.4948320000000 1.0
C      1  0.5413080000000  0.4745460000000  0.4332480000000 1.0
C      1  0.5661510000000  0.5255530000000  0.5167540000000 1.0
C      1  0.5413400000000  0.4326260000000  0.5131370000000 1.0
C      1  0.4920190000000  0.5598560000000  0.5527820000000 1.0
C      1  0.4994230000000  0.4735430000000  0.4689650000000 1.0
END
