TITL C-950532-2784-602 -4.51109781316645e-08 125000 -197.844238829118 0 0 33 (C1) n - 1
REM
REM in /home/bkarasulu/work/CARBON/AIRSS/Generating-Clusters/EDIP-Nigel-Params/with-SteepDescent/Only-C1/SD-CG/HFTN-CG
REM
REM
REM
REM
REM
REM ./C.cell (11c1c37f851c82e70ff6c80c92926a4b)
REM
REM compiler GCC version 9.2.1 20190827 (Red Hat 9.2.1-1)
REM options -cpp -mtune=generic -march=x86-64 -g -O0 -fpre-include=/usr/include/finclude/math-vector-fortran.h
REM seed -2024496491 1021424076 -1987002597 1013694580 637117498 82885418 1161477274 -659920340 -1141391444 -1382782496 -470141234 184514187 2013180868 784532071 -968011711 143560161 2085818361 1888179983 -22720515 912441326 -194681973 -1663853072 1365764511 -14947278 329053623 454239968 -1463285627 1534879669 -1512674199 2058849837 -992811337 680213163 1444378612
REM
CELL 1.54180   50.00000   50.00000   50.00000   90.00000   90.00000   90.00000
LATT -1
SFAC C  
C      1  0.5705120000000  0.4908030000000  0.5310610000000 1.0
C      1  0.4969750000000  0.4343100000000  0.4763320000000 1.0
C      1  0.5108720000000  0.5463840000000  0.4841210000000 1.0
C      1  0.4662600000000  0.4797620000000  0.5231560000000 1.0
C      1  0.5396560000000  0.4548990000000  0.5132420000000 1.0
C      1  0.5151050000000  0.4686610000000  0.5191050000000 1.0
C      1  0.5196620000000  0.5110960000000  0.4541750000000 1.0
C      1  0.5517370000000  0.5339130000000  0.5141630000000 1.0
C      1  0.4661070000000  0.5215570000000  0.5497040000000 1.0
C      1  0.5226680000000  0.5320030000000  0.5093090000000 1.0
C      1  0.4986300000000  0.5266150000000  0.4641880000000 1.0
C      1  0.4628170000000  0.4951160000000  0.5461650000000 1.0
C      1  0.4872030000000  0.4594600000000  0.5190300000000 1.0
C      1  0.4793340000000  0.5356090000000  0.5293720000000 1.0
C      1  0.4772630000000  0.4423130000000  0.4956770000000 1.0
C      1  0.4500070000000  0.5448120000000  0.4894730000000 1.0
C      1  0.4791450000000  0.4791800000000  0.4673060000000 1.0
C      1  0.4679450000000  0.5539380000000  0.5089120000000 1.0
C      1  0.5023890000000  0.4594360000000  0.4636080000000 1.0
C      1  0.4771850000000  0.5084440000000  0.4732070000000 1.0
C      1  0.4449800000000  0.4773070000000  0.5030200000000 1.0
C      1  0.5071580000000  0.5445350000000  0.5325790000000 1.0
C      1  0.5437330000000  0.4506470000000  0.4857150000000 1.0
C      1  0.5065600000000  0.5718870000000  0.5225510000000 1.0
C      1  0.5613680000000  0.4655500000000  0.5272030000000 1.0
C      1  0.4509720000000  0.5188430000000  0.4799130000000 1.0
C      1  0.4585520000000  0.4616530000000  0.4816610000000 1.0
C      1  0.5355330000000  0.4942340000000  0.4698990000000 1.0
C      1  0.4336250000000  0.5006510000000  0.4920700000000 1.0
C      1  0.5335380000000  0.4964180000000  0.4998140000000 1.0
C      1  0.5313400000000  0.4659170000000  0.4652040000000 1.0
C      1  0.4923430000000  0.5671760000000  0.4976590000000 1.0
C      1  0.5588270000000  0.5068710000000  0.5114050000000 1.0
END
