TITL C-950529-3362-114 -3.12713128929459e-06 125000 -318.699085254194 0 0 53 (C1) n - 1
REM
REM in /home/bkarasulu/work/CARBON/AIRSS/Generating-Clusters/EDIP-Nigel-Params/with-SteepDescent/Only-C1/SD-CG/HFTN-CG
REM
REM
REM
REM
REM
REM ./C.cell (11c1c37f851c82e70ff6c80c92926a4b)
REM
REM compiler GCC version 9.2.1 20190827 (Red Hat 9.2.1-1)
REM options -cpp -mtune=generic -march=x86-64 -g -O0 -fpre-include=/usr/include/finclude/math-vector-fortran.h
REM seed 428628922 674659700 -723227999 930324361 -1137838343 480905426 -496843049 900911697 1872724106 394187257 -849929345 1921752130 -624357002 -1287284359 -884051988 -10837311 611547606 1878929105 -1745454417 -685365310 -860900657 1802584411 -961346180 1996230171 1685261991 -767309977 -576009218 -857929811 -1922922788 991785444 1913327768 -1234167737 1043601118
REM
CELL 1.54180   50.00000   50.00000   50.00000   90.00000   90.00000   90.00000
LATT -1
SFAC C  
C      1  0.5568230000000  0.4689720000000  0.4932470000000 1.0
C      1  0.5155930000000  0.4788600000000  0.4547370000000 1.0
C      1  0.5117460000000  0.5421130000000  0.5446230000000 1.0
C      1  0.5277520000000  0.5013910000000  0.5220870000000 1.0
C      1  0.5562650000000  0.5386100000000  0.4948300000000 1.0
C      1  0.4650350000000  0.4909160000000  0.5559720000000 1.0
C      1  0.5483250000000  0.5152280000000  0.4782220000000 1.0
C      1  0.5356510000000  0.4554300000000  0.5568370000000 1.0
C      1  0.4620870000000  0.5460720000000  0.4618200000000 1.0
C      1  0.4295080000000  0.4658610000000  0.5048760000000 1.0
C      1  0.4476960000000  0.4545860000000  0.5228460000000 1.0
C      1  0.4730490000000  0.4486680000000  0.5086660000000 1.0
C      1  0.4961180000000  0.4901610000000  0.5583740000000 1.0
C      1  0.5346180000000  0.5201470000000  0.4515680000000 1.0
C      1  0.5109680000000  0.4918760000000  0.4819270000000 1.0
C      1  0.4837320000000  0.4976180000000  0.5165440000000 1.0
C      1  0.4884830000000  0.5488130000000  0.5262670000000 1.0
C      1  0.5344500000000  0.5587530000000  0.5003370000000 1.0
C      1  0.5269260000000  0.4349230000000  0.5364890000000 1.0
C      1  0.4909030000000  0.5486630000000  0.4553100000000 1.0
C      1  0.5217650000000  0.4774510000000  0.5055720000000 1.0
C      1  0.5090330000000  0.4653020000000  0.5680000000000 1.0
C      1  0.4523690000000  0.4664870000000  0.5485020000000 1.0
C      1  0.5179180000000  0.5122430000000  0.5490350000000 1.0
C      1  0.4558570000000  0.4648060000000  0.4637300000000 1.0
C      1  0.4887830000000  0.5118630000000  0.4910930000000 1.0
C      1  0.4608210000000  0.5069880000000  0.5312530000000 1.0
C      1  0.4606070000000  0.5366350000000  0.5303180000000 1.0
C      1  0.4456340000000  0.5448070000000  0.5063490000000 1.0
C      1  0.5364180000000  0.5546300000000  0.5313560000000 1.0
C      1  0.4999530000000  0.4480950000000  0.5439970000000 1.0
C      1  0.4913670000000  0.4954290000000  0.4421900000000 1.0
C      1  0.5394960000000  0.4923230000000  0.4409290000000 1.0
C      1  0.5015360000000  0.5621240000000  0.4801170000000 1.0
C      1  0.5649190000000  0.4827000000000  0.4489300000000 1.0
C      1  0.5528260000000  0.5079630000000  0.5340040000000 1.0
C      1  0.5417650000000  0.4451060000000  0.4850970000000 1.0
C      1  0.5659810000000  0.4908520000000  0.4761940000000 1.0
C      1  0.4643040000000  0.4890640000000  0.4498080000000 1.0
C      1  0.5018780000000  0.5386420000000  0.5009300000000 1.0
C      1  0.4588530000000  0.5211660000000  0.4799140000000 1.0
C      1  0.4553190000000  0.5644580000000  0.4856670000000 1.0
C      1  0.5609270000000  0.5346340000000  0.5258710000000 1.0
C      1  0.4846980000000  0.5776180000000  0.5220890000000 1.0
C      1  0.4359300000000  0.5035390000000  0.4720030000000 1.0
C      1  0.5209850000000  0.4492520000000  0.4631730000000 1.0
C      1  0.4939330000000  0.4673780000000  0.5201410000000 1.0
C      1  0.4969200000000  0.4358890000000  0.4672130000000 1.0
C      1  0.5325380000000  0.4333090000000  0.5090160000000 1.0
C      1  0.4328410000000  0.4752180000000  0.4784920000000 1.0
C      1  0.4732500000000  0.4456870000000  0.4789170000000 1.0
C      1  0.4805940000000  0.5782670000000  0.4939070000000 1.0
C      1  0.5042510000000  0.5224160000000  0.4506120000000 1.0
END
