TITL C-951341-1326-546 1.49555994028163e-06 125000 -1054.59898973426 0 0 171 (C1) n - 1
REM
REM in /home/bkarasulu/work/CARBON/AIRSS/Generating-Clusters/EDIP-Nigel-Params/with-SteepDescent/Only-C1/SD-CG/HFTN-CG
REM
REM
REM
REM
REM
REM ./C.cell (11c1c37f851c82e70ff6c80c92926a4b)
REM
REM compiler GCC version 9.2.1 20190827 (Red Hat 9.2.1-1)
REM options -cpp -mtune=generic -march=x86-64 -g -O0 -fpre-include=/usr/include/finclude/math-vector-fortran.h
REM seed -1519429471 -558270293 1233705288 375783039 1780041639 -1371028217 -642347805 -1844587961 1788659675 -1214563959 -1503706441 1416765630 1814979780 1736078742 -1314248016 -1052428594 -1869827045 759591297 -700578350 -1329962692 1673358894 562430068 -1516856188 429009868 -694877494 77243539 -504521717 -1824878513 -2118957046 549907794 1311506886 1188017311 -1123609325
REM
CELL 1.54180   50.00000   50.00000   50.00000   90.00000   90.00000   90.00000
LATT -1
SFAC C  
C      1  0.5686330000000  0.4497900000000  0.5305090000000 1.0
C      1  0.4170870000000  0.4518290000000  0.5643450000000 1.0
C      1  0.5277700000000  0.4263010000000  0.4325860000000 1.0
C      1  0.4677270000000  0.5636860000000  0.4470210000000 1.0
C      1  0.4663830000000  0.5919470000000  0.5223650000000 1.0
C      1  0.4575950000000  0.4459170000000  0.5937350000000 1.0
C      1  0.5752260000000  0.5056040000000  0.5237550000000 1.0
C      1  0.4760350000000  0.4241280000000  0.5878160000000 1.0
C      1  0.5698000000000  0.5670480000000  0.5878320000000 1.0
C      1  0.4646080000000  0.5405480000000  0.3950860000000 1.0
C      1  0.5830240000000  0.5019470000000  0.4247540000000 1.0
C      1  0.4688110000000  0.4490230000000  0.4750650000000 1.0
C      1  0.4857200000000  0.5821650000000  0.4324890000000 1.0
C      1  0.4927550000000  0.4761250000000  0.4346000000000 1.0
C      1  0.5453150000000  0.4892590000000  0.3975860000000 1.0
C      1  0.3959560000000  0.4884860000000  0.4935270000000 1.0
C      1  0.5770070000000  0.5804430000000  0.5100740000000 1.0
C      1  0.4383220000000  0.5330880000000  0.4605090000000 1.0
C      1  0.5699240000000  0.4802130000000  0.4091910000000 1.0
C      1  0.4590000000000  0.4353670000000  0.4077230000000 1.0
C      1  0.4386760000000  0.4396360000000  0.4266940000000 1.0
C      1  0.5714310000000  0.5387870000000  0.5872630000000 1.0
C      1  0.4290610000000  0.4329230000000  0.5224390000000 1.0
C      1  0.4116390000000  0.4454770000000  0.4735240000000 1.0
C      1  0.4182380000000  0.5493010000000  0.5623480000000 1.0
C      1  0.5000170000000  0.5618990000000  0.5089050000000 1.0
C      1  0.4256020000000  0.5707870000000  0.5450370000000 1.0
C      1  0.5350200000000  0.4661700000000  0.5616910000000 1.0
C      1  0.5887580000000  0.4955470000000  0.5515180000000 1.0
C      1  0.5463920000000  0.4776360000000  0.6110230000000 1.0
C      1  0.4253410000000  0.5765140000000  0.4841400000000 1.0
C      1  0.5055680000000  0.4843570000000  0.5300610000000 1.0
C      1  0.5351340000000  0.5102380000000  0.5751080000000 1.0
C      1  0.5039490000000  0.4601640000000  0.3948540000000 1.0
C      1  0.4398440000000  0.5015630000000  0.3949620000000 1.0
C      1  0.5336100000000  0.4876590000000  0.5348840000000 1.0
C      1  0.5809940000000  0.5515850000000  0.4709510000000 1.0
C      1  0.5779530000000  0.4782850000000  0.5742360000000 1.0
C      1  0.4458740000000  0.4215230000000  0.4487450000000 1.0
C      1  0.4629170000000  0.4967280000000  0.5177980000000 1.0
C      1  0.5350790000000  0.4518970000000  0.6165180000000 1.0
C      1  0.4786580000000  0.5390140000000  0.4369980000000 1.0
C      1  0.5480900000000  0.4053030000000  0.5251300000000 1.0
C      1  0.5795490000000  0.5320410000000  0.5138900000000 1.0
C      1  0.4877570000000  0.3997790000000  0.5127810000000 1.0
C      1  0.5243750000000  0.4175510000000  0.4826830000000 1.0
C      1  0.5675950000000  0.4324550000000  0.4604680000000 1.0
C      1  0.4467330000000  0.5803470000000  0.4386180000000 1.0
C      1  0.4873070000000  0.5983130000000  0.4788170000000 1.0
C      1  0.4780150000000  0.4502540000000  0.4420930000000 1.0
C      1  0.4851070000000  0.5316900000000  0.5441130000000 1.0
C      1  0.4153600000000  0.4828180000000  0.4412760000000 1.0
C      1  0.4430040000000  0.4656330000000  0.4851410000000 1.0
C      1  0.5490150000000  0.5415490000000  0.5063580000000 1.0
C      1  0.5039460000000  0.5759280000000  0.5594370000000 1.0
C      1  0.4535280000000  0.5135840000000  0.4974010000000 1.0
C      1  0.5878570000000  0.4939150000000  0.4532620000000 1.0
C      1  0.5928260000000  0.4654540000000  0.5279580000000 1.0
C      1  0.5632460000000  0.5357930000000  0.4521700000000 1.0
C      1  0.5439500000000  0.4154640000000  0.5514410000000 1.0
C      1  0.5056650000000  0.5039180000000  0.5798490000000 1.0
C      1  0.5104060000000  0.4496370000000  0.4656120000000 1.0
C      1  0.3918100000000  0.5324420000000  0.4719250000000 1.0
C      1  0.5060830000000  0.5536410000000  0.5385900000000 1.0
C      1  0.4164550000000  0.5275250000000  0.5440560000000 1.0
C      1  0.4882040000000  0.4844210000000  0.4051740000000 1.0
C      1  0.5343530000000  0.5910630000000  0.5293360000000 1.0
C      1  0.5557290000000  0.4367160000000  0.4358860000000 1.0
C      1  0.4467570000000  0.5242740000000  0.4091710000000 1.0
C      1  0.5952050000000  0.4737110000000  0.5002060000000 1.0
C      1  0.4901440000000  0.4008180000000  0.4602040000000 1.0
C      1  0.4624060000000  0.4665070000000  0.5509540000000 1.0
C      1  0.5487870000000  0.5700740000000  0.5462140000000 1.0
C      1  0.5189130000000  0.4078650000000  0.4548250000000 1.0
C      1  0.4318440000000  0.4244310000000  0.4743480000000 1.0
C      1  0.4277820000000  0.5862910000000  0.4580360000000 1.0
C      1  0.4446230000000  0.4812680000000  0.5331470000000 1.0
C      1  0.5226500000000  0.4297880000000  0.6058880000000 1.0
C      1  0.4886810000000  0.5073640000000  0.5258020000000 1.0
C      1  0.5498210000000  0.4837760000000  0.5815540000000 1.0
C      1  0.4128530000000  0.5631240000000  0.5176180000000 1.0
C      1  0.5199790000000  0.4382220000000  0.5156130000000 1.0
C      1  0.4551170000000  0.4808950000000  0.4058320000000 1.0
C      1  0.4928250000000  0.4649210000000  0.4853830000000 1.0
C      1  0.4104690000000  0.5322010000000  0.4514110000000 1.0
C      1  0.4806020000000  0.4180360000000  0.4133060000000 1.0
C      1  0.5055980000000  0.4303880000000  0.5821980000000 1.0
C      1  0.4298950000000  0.4619760000000  0.5142060000000 1.0
C      1  0.4704560000000  0.4066380000000  0.4394240000000 1.0
C      1  0.4752300000000  0.4406050000000  0.5394580000000 1.0
C      1  0.5166070000000  0.5600620000000  0.4678110000000 1.0
C      1  0.4379600000000  0.4963110000000  0.5787790000000 1.0
C      1  0.4983740000000  0.4601710000000  0.5144510000000 1.0
C      1  0.5431300000000  0.5297390000000  0.5965600000000 1.0
C      1  0.4645800000000  0.4966780000000  0.4522040000000 1.0
C      1  0.5443500000000  0.4798600000000  0.5047710000000 1.0
C      1  0.5257060000000  0.6047780000000  0.4469670000000 1.0
C      1  0.4609710000000  0.5461720000000  0.5344250000000 1.0
C      1  0.5233010000000  0.5810420000000  0.5011090000000 1.0
C      1  0.4022830000000  0.4718600000000  0.5183280000000 1.0
C      1  0.5492990000000  0.4068540000000  0.4968340000000 1.0
C      1  0.5153800000000  0.4136690000000  0.5583750000000 1.0
C      1  0.6181090000000  0.4875730000000  0.4915280000000 1.0
C      1  0.4431410000000  0.5394810000000  0.5108330000000 1.0
C      1  0.4043680000000  0.4734330000000  0.4676090000000 1.0
C      1  0.4589040000000  0.5145080000000  0.5824440000000 1.0
C      1  0.5440610000000  0.5719990000000  0.5767940000000 1.0
C      1  0.5436180000000  0.5859720000000  0.4358380000000 1.0
C      1  0.5040970000000  0.5874560000000  0.4565360000000 1.0
C      1  0.4396470000000  0.4687740000000  0.4293540000000 1.0
C      1  0.5899230000000  0.5454240000000  0.5386170000000 1.0
C      1  0.6076130000000  0.5067270000000  0.4732210000000 1.0
C      1  0.4843390000000  0.5251930000000  0.5741690000000 1.0
C      1  0.5035210000000  0.5654530000000  0.4119100000000 1.0
C      1  0.5054410000000  0.4995330000000  0.6101810000000 1.0
C      1  0.5839390000000  0.5272000000000  0.5617190000000 1.0
C      1  0.5067490000000  0.6074610000000  0.4985650000000 1.0
C      1  0.5079520000000  0.4596410000000  0.5758490000000 1.0
C      1  0.5207690000000  0.4683650000000  0.4443850000000 1.0
C      1  0.5048700000000  0.5141840000000  0.3989710000000 1.0
C      1  0.4910220000000  0.5052000000000  0.4669860000000 1.0
C      1  0.4255830000000  0.4999820000000  0.5515170000000 1.0
C      1  0.4418540000000  0.4958620000000  0.4740040000000 1.0
C      1  0.5653090000000  0.5261010000000  0.4228620000000 1.0
C      1  0.5710740000000  0.4912320000000  0.4984990000000 1.0
C      1  0.5420800000000  0.5599060000000  0.4521680000000 1.0
C      1  0.5246030000000  0.4949030000000  0.4835920000000 1.0
C      1  0.4916060000000  0.5522130000000  0.5876120000000 1.0
C      1  0.5638660000000  0.5061590000000  0.4662420000000 1.0
C      1  0.3972510000000  0.5180800000000  0.4951290000000 1.0
C      1  0.4912170000000  0.6100210000000  0.5246480000000 1.0
C      1  0.5773150000000  0.5717490000000  0.5370940000000 1.0
C      1  0.3983610000000  0.4658810000000  0.5469530000000 1.0
C      1  0.5038420000000  0.4373420000000  0.4162050000000 1.0
C      1  0.5348740000000  0.5152860000000  0.4089350000000 1.0
C      1  0.5619940000000  0.5658210000000  0.4906490000000 1.0
C      1  0.5256190000000  0.5139750000000  0.4379680000000 1.0
C      1  0.5660890000000  0.4300070000000  0.4880770000000 1.0
C      1  0.5966600000000  0.5323450000000  0.4874910000000 1.0
C      1  0.5499990000000  0.4497500000000  0.5078050000000 1.0
C      1  0.5794750000000  0.4494600000000  0.5736750000000 1.0
C      1  0.5359710000000  0.5441240000000  0.5352920000000 1.0
C      1  0.4991660000000  0.4720870000000  0.6013940000000 1.0
C      1  0.4752870000000  0.5759370000000  0.5701280000000 1.0
C      1  0.5241560000000  0.5538040000000  0.5909150000000 1.0
C      1  0.5564170000000  0.4436020000000  0.5560610000000 1.0
C      1  0.4586270000000  0.3947950000000  0.5114350000000 1.0
C      1  0.5391370000000  0.5160710000000  0.5467370000000 1.0
C      1  0.5287530000000  0.4695360000000  0.3872140000000 1.0
C      1  0.4013000000000  0.5345170000000  0.5194710000000 1.0
C      1  0.5113410000000  0.6012050000000  0.5448350000000 1.0
C      1  0.5284870000000  0.5246030000000  0.4902200000000 1.0
C      1  0.4740400000000  0.5769140000000  0.4974750000000 1.0
C      1  0.5691940000000  0.4536710000000  0.4182230000000 1.0
C      1  0.4927570000000  0.5416680000000  0.3955050000000 1.0
C      1  0.5045210000000  0.5310560000000  0.4511300000000 1.0
C      1  0.5332900000000  0.5035190000000  0.6195940000000 1.0
C      1  0.5320700000000  0.5684760000000  0.4155510000000 1.0
C      1  0.4293070000000  0.4275800000000  0.5518810000000 1.0
C      1  0.5000760000000  0.4199620000000  0.5325990000000 1.0
C      1  0.4093100000000  0.5095270000000  0.4353140000000 1.0
C      1  0.4559580000000  0.5216610000000  0.4380750000000 1.0
C      1  0.4589290000000  0.4244200000000  0.5612030000000 1.0
C      1  0.4568230000000  0.5734160000000  0.5448250000000 1.0
C      1  0.4809080000000  0.4135050000000  0.4855990000000 1.0
C      1  0.5020550000000  0.5331460000000  0.4995360000000 1.0
C      1  0.4400580000000  0.4153310000000  0.5019110000000 1.0
C      1  0.4479080000000  0.5576930000000  0.4860950000000 1.0
C      1  0.4435950000000  0.4649520000000  0.5749080000000 1.0
C      1  0.5362080000000  0.4922810000000  0.4552690000000 1.0
C      1  0.4785950000000  0.5230790000000  0.4858360000000 1.0
END
