TITL C-951345-2650-253 -1.64054986390822e-06 125000 -953.249980532876 0 0 154 (C1) n - 1
REM
REM in /home/bkarasulu/work/CARBON/AIRSS/Generating-Clusters/EDIP-Nigel-Params/with-SteepDescent/Only-C1/SD-CG/HFTN-CG
REM
REM
REM
REM
REM
REM ./C.cell (11c1c37f851c82e70ff6c80c92926a4b)
REM
REM compiler GCC version 9.2.1 20190827 (Red Hat 9.2.1-1)
REM options -cpp -mtune=generic -march=x86-64 -g -O0 -fpre-include=/usr/include/finclude/math-vector-fortran.h
REM seed -1237067522 1706069306 810852706 495924223 1960579845 -418049047 -555909369 -1697176890 -648360140 434818136 1658687294 1556715557 -1060356333 1723580069 704406247 1143839351 1209592547 452673910 1730308590 -942543933 1111338161 834994485 1450995957 216895286 -1444026068 1344756147 -221804134 1733065063 -1217132175 -1233421004 1804738434 -1065072240 -1674599649
REM
CELL 1.54180   50.00000   50.00000   50.00000   90.00000   90.00000   90.00000
LATT -1
SFAC C  
C      1  0.4259600000000  0.4543930000000  0.5263250000000 1.0
C      1  0.5298330000000  0.4573730000000  0.3948870000000 1.0
C      1  0.4790840000000  0.4959420000000  0.4034850000000 1.0
C      1  0.5064940000000  0.4407120000000  0.5215620000000 1.0
C      1  0.4449100000000  0.4562490000000  0.4161180000000 1.0
C      1  0.5142150000000  0.5200450000000  0.3921690000000 1.0
C      1  0.5533700000000  0.5730800000000  0.4870590000000 1.0
C      1  0.5863550000000  0.4569350000000  0.5353140000000 1.0
C      1  0.4359110000000  0.4834090000000  0.4301400000000 1.0
C      1  0.5267040000000  0.4943550000000  0.4580620000000 1.0
C      1  0.5834970000000  0.5410510000000  0.4603570000000 1.0
C      1  0.4783840000000  0.5138470000000  0.6144000000000 1.0
C      1  0.4726030000000  0.5424510000000  0.5358820000000 1.0
C      1  0.4421510000000  0.5341190000000  0.4420940000000 1.0
C      1  0.5219670000000  0.4006590000000  0.4999440000000 1.0
C      1  0.5692940000000  0.4371890000000  0.5222920000000 1.0
C      1  0.5530180000000  0.4176130000000  0.5356270000000 1.0
C      1  0.4287830000000  0.5198190000000  0.5851070000000 1.0
C      1  0.5243610000000  0.5909410000000  0.5249910000000 1.0
C      1  0.4294450000000  0.5151740000000  0.4780630000000 1.0
C      1  0.4552390000000  0.4005310000000  0.4907900000000 1.0
C      1  0.5390160000000  0.4618630000000  0.6081590000000 1.0
C      1  0.4334580000000  0.5737410000000  0.5491110000000 1.0
C      1  0.5882220000000  0.4579200000000  0.4583500000000 1.0
C      1  0.4736460000000  0.4648730000000  0.4882130000000 1.0
C      1  0.5598660000000  0.5152350000000  0.4233470000000 1.0
C      1  0.5608790000000  0.5378070000000  0.4424680000000 1.0
C      1  0.4500610000000  0.4902760000000  0.5294620000000 1.0
C      1  0.4049680000000  0.5062150000000  0.5175000000000 1.0
C      1  0.5709220000000  0.5423730000000  0.5284810000000 1.0
C      1  0.5218970000000  0.5288550000000  0.5356670000000 1.0
C      1  0.4518780000000  0.5842350000000  0.5276810000000 1.0
C      1  0.5583740000000  0.4975130000000  0.5229710000000 1.0
C      1  0.4856610000000  0.4325490000000  0.4799720000000 1.0
C      1  0.4985870000000  0.4978280000000  0.3834890000000 1.0
C      1  0.5722960000000  0.5020150000000  0.5643940000000 1.0
C      1  0.5175190000000  0.4404410000000  0.4136110000000 1.0
C      1  0.4666990000000  0.4985670000000  0.5550750000000 1.0
C      1  0.5422510000000  0.3979730000000  0.5190460000000 1.0
C      1  0.5408990000000  0.4820050000000  0.3949360000000 1.0
C      1  0.5478310000000  0.4607430000000  0.4867680000000 1.0
C      1  0.4283330000000  0.5137830000000  0.4232520000000 1.0
C      1  0.5223530000000  0.5498310000000  0.4239690000000 1.0
C      1  0.5233760000000  0.5044110000000  0.5537160000000 1.0
C      1  0.5503660000000  0.5836330000000  0.5145800000000 1.0
C      1  0.5263860000000  0.4993140000000  0.4889260000000 1.0
C      1  0.4896330000000  0.5255350000000  0.4532010000000 1.0
C      1  0.4977450000000  0.4759500000000  0.5868010000000 1.0
C      1  0.5060530000000  0.5552840000000  0.4902830000000 1.0
C      1  0.5346810000000  0.5758190000000  0.4640860000000 1.0
C      1  0.5223730000000  0.4572850000000  0.5870340000000 1.0
C      1  0.5771070000000  0.4751990000000  0.5552220000000 1.0
C      1  0.4561840000000  0.4475400000000  0.5770850000000 1.0
C      1  0.4786270000000  0.5170210000000  0.4980150000000 1.0
C      1  0.4467580000000  0.5668390000000  0.5013570000000 1.0
C      1  0.4828770000000  0.5396120000000  0.4784140000000 1.0
C      1  0.4019080000000  0.5350660000000  0.5150060000000 1.0
C      1  0.5003330000000  0.4982610000000  0.6072210000000 1.0
C      1  0.6017270000000  0.4681350000000  0.5122810000000 1.0
C      1  0.5971780000000  0.5050030000000  0.5225650000000 1.0
C      1  0.4207370000000  0.5696920000000  0.4873310000000 1.0
C      1  0.4666480000000  0.4496080000000  0.3965610000000 1.0
C      1  0.5181570000000  0.4823580000000  0.5128700000000 1.0
C      1  0.4198640000000  0.5452250000000  0.5387810000000 1.0
C      1  0.4900540000000  0.6019230000000  0.4969970000000 1.0
C      1  0.5204420000000  0.4571850000000  0.5014570000000 1.0
C      1  0.5241090000000  0.4461500000000  0.4427530000000 1.0
C      1  0.4398170000000  0.5202510000000  0.3982580000000 1.0
C      1  0.4651000000000  0.4921190000000  0.4389190000000 1.0
C      1  0.4436080000000  0.4096120000000  0.5136860000000 1.0
C      1  0.6046900000000  0.5234390000000  0.5005990000000 1.0
C      1  0.4949400000000  0.5498940000000  0.5850860000000 1.0
C      1  0.4078690000000  0.5444460000000  0.4888180000000 1.0
C      1  0.4378860000000  0.4707830000000  0.5745710000000 1.0
C      1  0.5010060000000  0.5459540000000  0.3890660000000 1.0
C      1  0.5776020000000  0.4926990000000  0.4255390000000 1.0
C      1  0.4744850000000  0.5661550000000  0.4271000000000 1.0
C      1  0.5300090000000  0.5368820000000  0.4842760000000 1.0
C      1  0.4214810000000  0.4727200000000  0.5497260000000 1.0
C      1  0.5862790000000  0.5211140000000  0.5464160000000 1.0
C      1  0.4674660000000  0.5215840000000  0.4047390000000 1.0
C      1  0.4648920000000  0.4355420000000  0.5511710000000 1.0
C      1  0.5969530000000  0.4507600000000  0.4865970000000 1.0
C      1  0.5464280000000  0.5267700000000  0.5164270000000 1.0
C      1  0.4516610000000  0.5397620000000  0.5827530000000 1.0
C      1  0.4484800000000  0.5137260000000  0.5072050000000 1.0
C      1  0.4706430000000  0.5355370000000  0.4313880000000 1.0
C      1  0.5431420000000  0.5421230000000  0.5780630000000 1.0
C      1  0.4613580000000  0.5603020000000  0.4718290000000 1.0
C      1  0.4847270000000  0.4559210000000  0.5376210000000 1.0
C      1  0.5057720000000  0.5894680000000  0.4638540000000 1.0
C      1  0.4780000000000  0.5794490000000  0.4540180000000 1.0
C      1  0.4093890000000  0.4987180000000  0.5443480000000 1.0
C      1  0.5046990000000  0.6149810000000  0.4776480000000 1.0
C      1  0.5973910000000  0.4824880000000  0.4441260000000 1.0
C      1  0.4251890000000  0.5767340000000  0.4603990000000 1.0
C      1  0.5103570000000  0.4715650000000  0.4482270000000 1.0
C      1  0.4917710000000  0.4825040000000  0.5572470000000 1.0
C      1  0.4692430000000  0.4433080000000  0.4341950000000 1.0
C      1  0.4805110000000  0.5739420000000  0.5683940000000 1.0
C      1  0.4179400000000  0.4750210000000  0.4536680000000 1.0
C      1  0.5594520000000  0.4456350000000  0.4503040000000 1.0
C      1  0.5575830000000  0.4255450000000  0.4736730000000 1.0
C      1  0.4669730000000  0.4680200000000  0.5173590000000 1.0
C      1  0.5220800000000  0.5420120000000  0.5978650000000 1.0
C      1  0.4066400000000  0.4966780000000  0.4700390000000 1.0
C      1  0.4619610000000  0.4176690000000  0.4699280000000 1.0
C      1  0.4884760000000  0.4335450000000  0.4098510000000 1.0
C      1  0.5598240000000  0.5687560000000  0.5392490000000 1.0
C      1  0.5350110000000  0.4824920000000  0.5378720000000 1.0
C      1  0.5310240000000  0.4111000000000  0.4745310000000 1.0
C      1  0.4144420000000  0.4602140000000  0.4994130000000 1.0
C      1  0.4940720000000  0.5276640000000  0.5223060000000 1.0
C      1  0.5004120000000  0.5791680000000  0.5120270000000 1.0
C      1  0.5264240000000  0.5825560000000  0.5523150000000 1.0
C      1  0.5942220000000  0.5161060000000  0.4732520000000 1.0
C      1  0.5681210000000  0.4815750000000  0.4993760000000 1.0
C      1  0.4341860000000  0.4927230000000  0.5921100000000 1.0
C      1  0.4974200000000  0.4161710000000  0.5076950000000 1.0
C      1  0.4786110000000  0.5723640000000  0.5370080000000 1.0
C      1  0.5693060000000  0.5004590000000  0.4781900000000 1.0
C      1  0.5552230000000  0.4865170000000  0.4567060000000 1.0
C      1  0.4769850000000  0.4463770000000  0.5970980000000 1.0
C      1  0.4890250000000  0.4919360000000  0.4815880000000 1.0
C      1  0.4161710000000  0.5225820000000  0.5590160000000 1.0
C      1  0.5910750000000  0.5486760000000  0.5068770000000 1.0
C      1  0.4416720000000  0.4305290000000  0.5324610000000 1.0
C      1  0.5341040000000  0.4294070000000  0.5534810000000 1.0
C      1  0.4010230000000  0.4863250000000  0.4967530000000 1.0
C      1  0.5444000000000  0.5113540000000  0.5750520000000 1.0
C      1  0.4552660000000  0.4927120000000  0.4690310000000 1.0
C      1  0.4254230000000  0.4545800000000  0.4726300000000 1.0
C      1  0.5101980000000  0.4264930000000  0.4610050000000 1.0
C      1  0.6137240000000  0.5014860000000  0.4571130000000 1.0
C      1  0.5426840000000  0.5601860000000  0.4407050000000 1.0
C      1  0.5248560000000  0.5134800000000  0.6064000000000 1.0
C      1  0.5005960000000  0.5650870000000  0.4109590000000 1.0
C      1  0.4797590000000  0.4100580000000  0.5539000000000 1.0
C      1  0.5034570000000  0.4327280000000  0.5917130000000 1.0
C      1  0.4819920000000  0.4681010000000  0.4449800000000 1.0
C      1  0.5369860000000  0.4574680000000  0.5599050000000 1.0
C      1  0.4728790000000  0.5389870000000  0.6041020000000 1.0
C      1  0.5395000000000  0.5088140000000  0.4031010000000 1.0
C      1  0.4395060000000  0.4324870000000  0.4636840000000 1.0
C      1  0.4502600000000  0.5691960000000  0.5734810000000 1.0
C      1  0.4826920000000  0.4001660000000  0.5274040000000 1.0
C      1  0.5197610000000  0.5248590000000  0.4536130000000 1.0
C      1  0.5280510000000  0.5528610000000  0.5553930000000 1.0
C      1  0.4366140000000  0.5630450000000  0.4386250000000 1.0
C      1  0.5041940000000  0.4137280000000  0.5691730000000 1.0
C      1  0.4460120000000  0.5405880000000  0.5206640000000 1.0
C      1  0.5781100000000  0.4302260000000  0.4956650000000 1.0
C      1  0.5791280000000  0.5599140000000  0.4825900000000 1.0
C      1  0.4711320000000  0.5277450000000  0.5616520000000 1.0
END
