TITL C-951336-9012-767 -3.67121417134313e-07 125000 -175.363665200452 0 0 31 (C1) n - 1
REM
REM in /home/bkarasulu/work/CARBON/AIRSS/Generating-Clusters/EDIP-Nigel-Params/with-SteepDescent/Only-C1/SD-CG/HFTN-CG
REM
REM
REM
REM
REM
REM ./C.cell (11c1c37f851c82e70ff6c80c92926a4b)
REM
REM compiler GCC version 9.2.1 20190827 (Red Hat 9.2.1-1)
REM options -cpp -mtune=generic -march=x86-64 -g -O0 -fpre-include=/usr/include/finclude/math-vector-fortran.h
REM seed -250317201 716520831 -1289771314 -659788426 -426953792 -2008835358 -1187003312 198001432 1678322096 679555479 1660504348 838356043 -842901069 -1498526758 -19423529 -2079989959 -645199220 -1431245423 -711203087 -142939003 -479074966 1474709235 -942872644 2054064409 259978204 897304288 1357593877 2044136236 690810732 -1865567898 105647281 2115097700 -1543678437
REM
CELL 1.54180   50.00000   50.00000   50.00000   90.00000   90.00000   90.00000
LATT -1
SFAC C  
C      1  0.5480300000000  0.5095680000000  0.4809490000000 1.0
C      1  0.4839790000000  0.4608270000000  0.4593700000000 1.0
C      1  0.5330810000000  0.4744390000000  0.5166970000000 1.0
C      1  0.4696480000000  0.4498420000000  0.4812470000000 1.0
C      1  0.4951300000000  0.5939060000000  0.4774900000000 1.0
C      1  0.5267430000000  0.5391370000000  0.4671770000000 1.0
C      1  0.5318230000000  0.4473240000000  0.5193610000000 1.0
C      1  0.5405300000000  0.5179520000000  0.4553150000000 1.0
C      1  0.4750400000000  0.4913250000000  0.4552250000000 1.0
C      1  0.4695830000000  0.5224730000000  0.5355220000000 1.0
C      1  0.4505210000000  0.4894590000000  0.5018630000000 1.0
C      1  0.4632880000000  0.4524450000000  0.5295060000000 1.0
C      1  0.4839700000000  0.5248970000000  0.4891540000000 1.0
C      1  0.5162840000000  0.4929140000000  0.5586220000000 1.0
C      1  0.5441950000000  0.4622060000000  0.4707650000000 1.0
C      1  0.5484970000000  0.4817700000000  0.4906860000000 1.0
C      1  0.5062640000000  0.4927060000000  0.4641060000000 1.0
C      1  0.4990940000000  0.5460890000000  0.4735940000000 1.0
C      1  0.4954500000000  0.5703190000000  0.4896220000000 1.0
C      1  0.4945880000000  0.4936000000000  0.5390640000000 1.0
C      1  0.4674210000000  0.4763570000000  0.5441000000000 1.0
C      1  0.4522010000000  0.4992960000000  0.5309350000000 1.0
C      1  0.5629360000000  0.4972560000000  0.5488660000000 1.0
C      1  0.4613580000000  0.5073440000000  0.4773930000000 1.0
C      1  0.5060870000000  0.4852880000000  0.5131970000000 1.0
C      1  0.5166690000000  0.4639990000000  0.4650830000000 1.0
C      1  0.5392680000000  0.4868200000000  0.5433100000000 1.0
C      1  0.4748970000000  0.5388070000000  0.5132530000000 1.0
C      1  0.5055780000000  0.5046510000000  0.4919080000000 1.0
C      1  0.4805750000000  0.5661340000000  0.5132260000000 1.0
C      1  0.4572720000000  0.4608520000000  0.5033930000000 1.0
END
