TITL C-950523-3027-294 1.92117283525659e-07 125000 -334.129102955659 0 0 54 (C1) n - 1
REM
REM in /home/bkarasulu/work/CARBON/AIRSS/Generating-Clusters/EDIP-Nigel-Params/with-SteepDescent/Only-C1/SD-CG/HFTN-CG
REM
REM
REM
REM
REM
REM ./C.cell (11c1c37f851c82e70ff6c80c92926a4b)
REM
REM compiler GCC version 9.2.1 20190827 (Red Hat 9.2.1-1)
REM options -cpp -mtune=generic -march=x86-64 -g -O0 -fpre-include=/usr/include/finclude/math-vector-fortran.h
REM seed -662641216 1328318800 -676465770 -1671395341 -48879258 -515289241 951293111 -1647356804 -295574739 -1626068591 748322230 20568820 1756214666 -543167877 891717879 1266559593 82860260 1677368736 -375622337 1813284855 -1114144546 -1528736959 1665049651 577839144 -2147113315 1433302869 -1969939543 1058346349 -109520902 -736661816 -223836730 -645284390 722122421
REM
CELL 1.54180   50.00000   50.00000   50.00000   90.00000   90.00000   90.00000
LATT -1
SFAC C  
C      1  0.5350250000000  0.5331730000000  0.5179900000000 1.0
C      1  0.5346090000000  0.5603990000000  0.5028280000000 1.0
C      1  0.5539080000000  0.4570940000000  0.4759990000000 1.0
C      1  0.5317580000000  0.4439950000000  0.4870060000000 1.0
C      1  0.4319640000000  0.4720340000000  0.4927880000000 1.0
C      1  0.4430620000000  0.4464930000000  0.4989140000000 1.0
C      1  0.4883560000000  0.5446630000000  0.5564370000000 1.0
C      1  0.4923440000000  0.4190290000000  0.4826060000000 1.0
C      1  0.4843130000000  0.4565830000000  0.5578820000000 1.0
C      1  0.4767330000000  0.4893250000000  0.4973930000000 1.0
C      1  0.5084810000000  0.4432190000000  0.4445430000000 1.0
C      1  0.4289840000000  0.5183900000000  0.5156110000000 1.0
C      1  0.5142650000000  0.4296410000000  0.4684570000000 1.0
C      1  0.4575450000000  0.4756840000000  0.4519370000000 1.0
C      1  0.5907450000000  0.5007460000000  0.4829610000000 1.0
C      1  0.5146890000000  0.5540930000000  0.5580660000000 1.0
C      1  0.5354210000000  0.5374860000000  0.5479950000000 1.0
C      1  0.4638660000000  0.4584250000000  0.5392170000000 1.0
C      1  0.5345610000000  0.5565310000000  0.4737480000000 1.0
C      1  0.5086810000000  0.4699870000000  0.5576190000000 1.0
C      1  0.4824920000000  0.5543850000000  0.4759890000000 1.0
C      1  0.4649530000000  0.5335040000000  0.4616600000000 1.0
C      1  0.5499190000000  0.5236860000000  0.4670080000000 1.0
C      1  0.5079830000000  0.5560050000000  0.4591530000000 1.0
C      1  0.4819050000000  0.5176110000000  0.4429950000000 1.0
C      1  0.5795100000000  0.5088240000000  0.5062850000000 1.0
C      1  0.5066300000000  0.5265710000000  0.5100550000000 1.0
C      1  0.5093500000000  0.4984440000000  0.5672590000000 1.0
C      1  0.5108360000000  0.5742900000000  0.5102280000000 1.0
C      1  0.4433070000000  0.5174680000000  0.4736940000000 1.0
C      1  0.4242330000000  0.5297730000000  0.4902870000000 1.0
C      1  0.4626330000000  0.5068780000000  0.5465810000000 1.0
C      1  0.5058700000000  0.4710930000000  0.4424680000000 1.0
C      1  0.5083360000000  0.5306040000000  0.4430760000000 1.0
C      1  0.5231450000000  0.5122380000000  0.4610930000000 1.0
C      1  0.4642480000000  0.4397390000000  0.5169200000000 1.0
C      1  0.4305960000000  0.4880760000000  0.5178770000000 1.0
C      1  0.4686120000000  0.5529260000000  0.5354720000000 1.0
C      1  0.5013800000000  0.5051730000000  0.4915040000000 1.0
C      1  0.4525310000000  0.4886640000000  0.4777370000000 1.0
C      1  0.5238440000000  0.4692280000000  0.5328640000000 1.0
C      1  0.4813940000000  0.4874260000000  0.4438130000000 1.0
C      1  0.5292390000000  0.4872540000000  0.4469200000000 1.0
C      1  0.4494840000000  0.5299070000000  0.5345360000000 1.0
C      1  0.5365940000000  0.5089370000000  0.5586560000000 1.0
C      1  0.5700710000000  0.5023810000000  0.4636170000000 1.0
C      1  0.4916360000000  0.4343790000000  0.5063000000000 1.0
C      1  0.5524740000000  0.5078960000000  0.5134750000000 1.0
C      1  0.5453180000000  0.4899950000000  0.5359860000000 1.0
C      1  0.5554950000000  0.4773180000000  0.4564980000000 1.0
C      1  0.4912370000000  0.5527010000000  0.5061480000000 1.0
C      1  0.4882650000000  0.5157210000000  0.5552970000000 1.0
C      1  0.5173670000000  0.4487980000000  0.5121030000000 1.0
C      1  0.4598010000000  0.4851160000000  0.5264460000000 1.0
END
