TITL C-951339-9237-210 -6.37518617662772e-07 125000 -1116.18451416137 0 0 178 (C1) n - 1
REM
REM in /home/bkarasulu/work/CARBON/AIRSS/Generating-Clusters/EDIP-Nigel-Params/with-SteepDescent/Only-C1/SD-CG/HFTN-CG
REM
REM
REM
REM
REM
REM ./C.cell (11c1c37f851c82e70ff6c80c92926a4b)
REM
REM compiler GCC version 9.2.1 20190827 (Red Hat 9.2.1-1)
REM options -cpp -mtune=generic -march=x86-64 -g -O0 -fpre-include=/usr/include/finclude/math-vector-fortran.h
REM seed 833320733 -1996724215 798985960 -1487689050 1981128334 -367403842 2007896067 -1214042605 106327924 -443292701 714953953 -137742302 1216749857 -1767860921 -28865401 964264867 1835383079 196682895 -2017188675 1251863674 1497567442 1306021174 -1880235094 -1969907636 -1468143628 1722631025 -1269429090 -1086279352 777183636 864419731 1647677238 -789642205 743060368
REM
CELL 1.54180   50.00000   50.00000   50.00000   90.00000   90.00000   90.00000
LATT -1
SFAC C  
C      1  0.5998500000000  0.5173100000000  0.5636950000000 1.0
C      1  0.5863480000000  0.4434010000000  0.5536100000000 1.0
C      1  0.4565120000000  0.5896000000000  0.4310870000000 1.0
C      1  0.5733560000000  0.5047110000000  0.5580880000000 1.0
C      1  0.5786750000000  0.4237980000000  0.4808570000000 1.0
C      1  0.5350040000000  0.4604370000000  0.4727900000000 1.0
C      1  0.5508930000000  0.3922440000000  0.5097250000000 1.0
C      1  0.6040130000000  0.5346410000000  0.5149770000000 1.0
C      1  0.5661730000000  0.5521240000000  0.5297400000000 1.0
C      1  0.5796350000000  0.4293670000000  0.5291970000000 1.0
C      1  0.6156630000000  0.4706520000000  0.4758860000000 1.0
C      1  0.5086720000000  0.4712030000000  0.5957830000000 1.0
C      1  0.4328900000000  0.4410330000000  0.5467570000000 1.0
C      1  0.4389270000000  0.5702910000000  0.5007240000000 1.0
C      1  0.3875930000000  0.4827400000000  0.5007940000000 1.0
C      1  0.4313570000000  0.4969070000000  0.4328890000000 1.0
C      1  0.5680400000000  0.5695800000000  0.4491740000000 1.0
C      1  0.6015300000000  0.4869250000000  0.5180130000000 1.0
C      1  0.3914770000000  0.5346620000000  0.4991400000000 1.0
C      1  0.5001070000000  0.5702450000000  0.5605720000000 1.0
C      1  0.5395860000000  0.4362360000000  0.5726030000000 1.0
C      1  0.5736530000000  0.4973300000000  0.5285410000000 1.0
C      1  0.5449470000000  0.4139780000000  0.4464310000000 1.0
C      1  0.6141260000000  0.5095260000000  0.5024910000000 1.0
C      1  0.4443320000000  0.5397900000000  0.5661880000000 1.0
C      1  0.4243080000000  0.4645400000000  0.4714530000000 1.0
C      1  0.4626510000000  0.4436720000000  0.4002050000000 1.0
C      1  0.4532300000000  0.5921850000000  0.5154790000000 1.0
C      1  0.4944870000000  0.5475590000000  0.4561870000000 1.0
C      1  0.5039530000000  0.5606790000000  0.4048380000000 1.0
C      1  0.5139010000000  0.4283080000000  0.4138050000000 1.0
C      1  0.4609550000000  0.4288230000000  0.4245380000000 1.0
C      1  0.4158720000000  0.5378020000000  0.5541550000000 1.0
C      1  0.4979510000000  0.4924480000000  0.5275230000000 1.0
C      1  0.5078370000000  0.4022510000000  0.5482990000000 1.0
C      1  0.4422480000000  0.5412550000000  0.4226920000000 1.0
C      1  0.5439320000000  0.4629510000000  0.4038180000000 1.0
C      1  0.4047780000000  0.4330970000000  0.5063010000000 1.0
C      1  0.5368040000000  0.4115020000000  0.5551820000000 1.0
C      1  0.5206430000000  0.5128250000000  0.6157090000000 1.0
C      1  0.4995560000000  0.4770600000000  0.4228830000000 1.0
C      1  0.4152740000000  0.4877960000000  0.5530640000000 1.0
C      1  0.5588510000000  0.4680140000000  0.4931410000000 1.0
C      1  0.5566350000000  0.5396430000000  0.5913480000000 1.0
C      1  0.5243950000000  0.4815340000000  0.5389920000000 1.0
C      1  0.5032370000000  0.5118950000000  0.3913570000000 1.0
C      1  0.4096770000000  0.5870980000000  0.5503210000000 1.0
C      1  0.4738970000000  0.5539630000000  0.5064260000000 1.0
C      1  0.5301170000000  0.5096520000000  0.4072400000000 1.0
C      1  0.5149590000000  0.6101820000000  0.5392770000000 1.0
C      1  0.5479890000000  0.4871770000000  0.5158380000000 1.0
C      1  0.3808600000000  0.4454170000000  0.4672390000000 1.0
C      1  0.5669910000000  0.5639990000000  0.4929630000000 1.0
C      1  0.4591910000000  0.5284250000000  0.4032650000000 1.0
C      1  0.5021650000000  0.3993990000000  0.4716070000000 1.0
C      1  0.5503720000000  0.5409350000000  0.4839640000000 1.0
C      1  0.5293990000000  0.4884560000000  0.6039520000000 1.0
C      1  0.3943700000000  0.5097080000000  0.5136670000000 1.0
C      1  0.4549230000000  0.4959250000000  0.4053290000000 1.0
C      1  0.5378130000000  0.4381630000000  0.5173980000000 1.0
C      1  0.4010390000000  0.4269120000000  0.4767520000000 1.0
C      1  0.3887830000000  0.5334560000000  0.4713730000000 1.0
C      1  0.4908870000000  0.5824590000000  0.4179720000000 1.0
C      1  0.4694060000000  0.4809310000000  0.4677980000000 1.0
C      1  0.5312140000000  0.5588730000000  0.4173510000000 1.0
C      1  0.5728440000000  0.4792160000000  0.5754830000000 1.0
C      1  0.4733220000000  0.4695860000000  0.5364950000000 1.0
C      1  0.5315270000000  0.5700910000000  0.5598790000000 1.0
C      1  0.5262580000000  0.5007040000000  0.5679260000000 1.0
C      1  0.4294990000000  0.4244840000000  0.5210050000000 1.0
C      1  0.5699420000000  0.3986970000000  0.4900280000000 1.0
C      1  0.4957190000000  0.5252400000000  0.4367460000000 1.0
C      1  0.4072550000000  0.4801510000000  0.4253040000000 1.0
C      1  0.5162890000000  0.5004050000000  0.4342150000000 1.0
C      1  0.4893220000000  0.5333300000000  0.4079000000000 1.0
C      1  0.4719600000000  0.5370570000000  0.5314340000000 1.0
C      1  0.5253880000000  0.4242600000000  0.4945540000000 1.0
C      1  0.5018230000000  0.5177370000000  0.5687130000000 1.0
C      1  0.4807320000000  0.6055870000000  0.4703230000000 1.0
C      1  0.4114290000000  0.5390370000000  0.4559040000000 1.0
C      1  0.5245690000000  0.5318780000000  0.4969430000000 1.0
C      1  0.4331250000000  0.4343380000000  0.4342570000000 1.0
C      1  0.5203970000000  0.3937900000000  0.5000820000000 1.0
C      1  0.4839500000000  0.4353910000000  0.4444620000000 1.0
C      1  0.5004340000000  0.3913740000000  0.5223040000000 1.0
C      1  0.6073240000000  0.4979990000000  0.4753210000000 1.0
C      1  0.3951480000000  0.4707860000000  0.4723880000000 1.0
C      1  0.4220200000000  0.5247380000000  0.4332600000000 1.0
C      1  0.4897150000000  0.4442770000000  0.5293670000000 1.0
C      1  0.4708470000000  0.5240250000000  0.6059900000000 1.0
C      1  0.4680400000000  0.4511860000000  0.5863400000000 1.0
C      1  0.4850910000000  0.4177760000000  0.5563900000000 1.0
C      1  0.4397630000000  0.4870630000000  0.5694370000000 1.0
C      1  0.4356610000000  0.5693810000000  0.4265510000000 1.0
C      1  0.6075150000000  0.5349170000000  0.5431590000000 1.0
C      1  0.5419410000000  0.5449150000000  0.5446590000000 1.0
C      1  0.4784360000000  0.4221180000000  0.4739670000000 1.0
C      1  0.6012660000000  0.4726860000000  0.5735600000000 1.0
C      1  0.4846750000000  0.5686800000000  0.5862270000000 1.0
C      1  0.5801200000000  0.5441180000000  0.4486610000000 1.0
C      1  0.4796940000000  0.4740070000000  0.6010340000000 1.0
C      1  0.4544490000000  0.4612670000000  0.5611860000000 1.0
C      1  0.4848700000000  0.4893150000000  0.4001420000000 1.0
C      1  0.5618960000000  0.4543370000000  0.5642890000000 1.0
C      1  0.4935720000000  0.5920020000000  0.5419830000000 1.0
C      1  0.5491240000000  0.5223610000000  0.5658010000000 1.0
C      1  0.5774680000000  0.4955650000000  0.4727480000000 1.0
C      1  0.4603500000000  0.4969710000000  0.6010230000000 1.0
C      1  0.5742510000000  0.4521340000000  0.4398460000000 1.0
C      1  0.6045530000000  0.4621540000000  0.5008590000000 1.0
C      1  0.4083330000000  0.5123930000000  0.5399840000000 1.0
C      1  0.5078590000000  0.4635620000000  0.4869170000000 1.0
C      1  0.6167780000000  0.4960290000000  0.5713470000000 1.0
C      1  0.5527160000000  0.4155730000000  0.5295620000000 1.0
C      1  0.5968160000000  0.5594270000000  0.5008120000000 1.0
C      1  0.5744180000000  0.4981300000000  0.4203380000000 1.0
C      1  0.5210100000000  0.5356240000000  0.5263410000000 1.0
C      1  0.4383040000000  0.5773890000000  0.4723660000000 1.0
C      1  0.4187800000000  0.4655700000000  0.5344550000000 1.0
C      1  0.5039700000000  0.4909140000000  0.4969130000000 1.0
C      1  0.4894700000000  0.4326360000000  0.5799080000000 1.0
C      1  0.4215600000000  0.4558630000000  0.4152850000000 1.0
C      1  0.4357300000000  0.5087650000000  0.4825870000000 1.0
C      1  0.4046940000000  0.5609100000000  0.5396130000000 1.0
C      1  0.5450930000000  0.5347680000000  0.4115630000000 1.0
C      1  0.4637500000000  0.4617240000000  0.4909150000000 1.0
C      1  0.4946380000000  0.5777500000000  0.4474670000000 1.0
C      1  0.5240920000000  0.5925210000000  0.4838360000000 1.0
C      1  0.4286990000000  0.4342030000000  0.4648580000000 1.0
C      1  0.4994250000000  0.5263730000000  0.5988250000000 1.0
C      1  0.5425940000000  0.5761570000000  0.4385410000000 1.0
C      1  0.5188980000000  0.4514540000000  0.5367080000000 1.0
C      1  0.3860410000000  0.4769120000000  0.4451450000000 1.0
C      1  0.5219390000000  0.5884760000000  0.4550250000000 1.0
C      1  0.5373550000000  0.4886230000000  0.4562530000000 1.0
C      1  0.5500850000000  0.5980740000000  0.4955520000000 1.0
C      1  0.4937900000000  0.5368620000000  0.4841840000000 1.0
C      1  0.4403020000000  0.4884120000000  0.4623700000000 1.0
C      1  0.5464780000000  0.5689180000000  0.5857290000000 1.0
C      1  0.4203400000000  0.5665340000000  0.4523080000000 1.0
C      1  0.5611190000000  0.4349700000000  0.4599180000000 1.0
C      1  0.5803150000000  0.4448660000000  0.5020680000000 1.0
C      1  0.5625820000000  0.4426040000000  0.4136910000000 1.0
C      1  0.4328340000000  0.5948960000000  0.5630820000000 1.0
C      1  0.4441350000000  0.4651800000000  0.3983780000000 1.0
C      1  0.4969630000000  0.5997650000000  0.4932600000000 1.0
C      1  0.5810730000000  0.5770980000000  0.5310440000000 1.0
C      1  0.5026010000000  0.5551020000000  0.6049860000000 1.0
C      1  0.5705970000000  0.5276440000000  0.4247180000000 1.0
C      1  0.4582480000000  0.5125030000000  0.5654030000000 1.0
C      1  0.4730980000000  0.3963230000000  0.5168310000000 1.0
C      1  0.5308610000000  0.5022610000000  0.4926940000000 1.0
C      1  0.5377480000000  0.5950230000000  0.5443330000000 1.0
C      1  0.4596840000000  0.5487380000000  0.5906700000000 1.0
C      1  0.4821030000000  0.5849070000000  0.5150360000000 1.0
C      1  0.4491600000000  0.4075900000000  0.5064720000000 1.0
C      1  0.5524730000000  0.4906970000000  0.4018110000000 1.0
C      1  0.5166830000000  0.4560500000000  0.4101730000000 1.0
C      1  0.4043060000000  0.5578570000000  0.5108210000000 1.0
C      1  0.4498760000000  0.4147070000000  0.4779570000000 1.0
C      1  0.3952950000000  0.4594230000000  0.5177510000000 1.0
C      1  0.4828860000000  0.4654430000000  0.4449090000000 1.0
C      1  0.4507160000000  0.5184240000000  0.5283090000000 1.0
C      1  0.4854510000000  0.5063710000000  0.4798730000000 1.0
C      1  0.5139270000000  0.4476400000000  0.5806850000000 1.0
C      1  0.4516430000000  0.4737190000000  0.5147200000000 1.0
C      1  0.4973440000000  0.5219570000000  0.5385160000000 1.0
C      1  0.5631400000000  0.5233150000000  0.4631900000000 1.0
C      1  0.4422990000000  0.6049490000000  0.5389940000000 1.0
C      1  0.5418290000000  0.4204720000000  0.4184540000000 1.0
C      1  0.5190190000000  0.4227220000000  0.4568180000000 1.0
C      1  0.5423070000000  0.5326800000000  0.6186270000000 1.0
C      1  0.4502520000000  0.5014750000000  0.5060700000000 1.0
C      1  0.5682960000000  0.4819710000000  0.4446770000000 1.0
C      1  0.4564150000000  0.5954640000000  0.4593260000000 1.0
C      1  0.5310550000000  0.5618870000000  0.6111690000000 1.0
C      1  0.5589150000000  0.5954650000000  0.5237860000000 1.0
C      1  0.4863130000000  0.4444630000000  0.4964700000000 1.0
END
