TITL C-950521-2237-513 -7.80246736514958e-07 125000 -348.48665806951 0 0 58 (C1) n - 1
REM
REM in /home/bkarasulu/work/CARBON/AIRSS/Generating-Clusters/EDIP-Nigel-Params/with-SteepDescent/Only-C1/SD-CG/HFTN-CG
REM
REM
REM
REM
REM
REM ./C.cell (11c1c37f851c82e70ff6c80c92926a4b)
REM
REM compiler GCC version 9.2.1 20190827 (Red Hat 9.2.1-1)
REM options -cpp -mtune=generic -march=x86-64 -g -O0 -fpre-include=/usr/include/finclude/math-vector-fortran.h
REM seed 564873513 1943749166 1663288907 -438440978 905882985 1456188164 1380053408 -1462430125 233233850 1432714081 -1794984469 1018917252 -1670551108 1359915526 -408752848 -1636162366 1177654325 -1875167575 -2113780696 -1717789971 -483375576 -859504328 1102280580 -79983894 -1546367167 1705334396 -631362795 504612226 1150167747 -100501389 -998607628 -1699516034 1121936175
REM
CELL 1.54180   50.00000   50.00000   50.00000   90.00000   90.00000   90.00000
LATT -1
SFAC C  
C      1  0.4875090000000  0.4544980000000  0.5166960000000 1.0
C      1  0.4826140000000  0.5234860000000  0.4776530000000 1.0
C      1  0.5241240000000  0.4974920000000  0.5036670000000 1.0
C      1  0.5492900000000  0.4578800000000  0.4757810000000 1.0
C      1  0.4354810000000  0.5355180000000  0.4897330000000 1.0
C      1  0.4645270000000  0.4833470000000  0.5666400000000 1.0
C      1  0.5007710000000  0.5472700000000  0.5544890000000 1.0
C      1  0.5306430000000  0.5193360000000  0.4298750000000 1.0
C      1  0.4416190000000  0.5295930000000  0.4625350000000 1.0
C      1  0.5054660000000  0.5699730000000  0.5114660000000 1.0
C      1  0.5041210000000  0.5460750000000  0.4386750000000 1.0
C      1  0.5069030000000  0.4361180000000  0.5299530000000 1.0
C      1  0.5131610000000  0.5162630000000  0.4750240000000 1.0
C      1  0.4632740000000  0.4758710000000  0.4868120000000 1.0
C      1  0.4339350000000  0.4873990000000  0.5187720000000 1.0
C      1  0.5566410000000  0.4900310000000  0.5330670000000 1.0
C      1  0.5119170000000  0.4740130000000  0.4477240000000 1.0
C      1  0.4492450000000  0.4925720000000  0.4338090000000 1.0
C      1  0.4851540000000  0.4536760000000  0.4781110000000 1.0
C      1  0.4876170000000  0.5208220000000  0.4389670000000 1.0
C      1  0.5083430000000  0.4994520000000  0.4291790000000 1.0
C      1  0.4695510000000  0.5034260000000  0.4959370000000 1.0
C      1  0.4672720000000  0.4860600000000  0.5366240000000 1.0
C      1  0.5486340000000  0.5339950000000  0.5506440000000 1.0
C      1  0.4538120000000  0.5279360000000  0.5365290000000 1.0
C      1  0.5223730000000  0.4293870000000  0.5049760000000 1.0
C      1  0.5146540000000  0.4856080000000  0.4752640000000 1.0
C      1  0.4451530000000  0.4637010000000  0.5059840000000 1.0
C      1  0.5459360000000  0.5453170000000  0.5040190000000 1.0
C      1  0.4781470000000  0.5525280000000  0.4834430000000 1.0
C      1  0.4672310000000  0.5149390000000  0.5624900000000 1.0
C      1  0.4636280000000  0.4701510000000  0.4359590000000 1.0
C      1  0.5341790000000  0.4530110000000  0.4521740000000 1.0
C      1  0.4571030000000  0.5177220000000  0.4420620000000 1.0
C      1  0.5107800000000  0.5594820000000  0.4640770000000 1.0
C      1  0.5108980000000  0.4728380000000  0.5662500000000 1.0
C      1  0.4854500000000  0.4678850000000  0.5769300000000 1.0
C      1  0.5426290000000  0.4653290000000  0.5269640000000 1.0
C      1  0.5245430000000  0.4532720000000  0.5472130000000 1.0
C      1  0.4995150000000  0.4900690000000  0.5250880000000 1.0
C      1  0.5218990000000  0.4277890000000  0.4562340000000 1.0
C      1  0.5446040000000  0.4491350000000  0.5025280000000 1.0
C      1  0.5414750000000  0.5070770000000  0.5504730000000 1.0
C      1  0.5534440000000  0.5167150000000  0.4978710000000 1.0
C      1  0.4896540000000  0.5621300000000  0.5335560000000 1.0
C      1  0.5375650000000  0.5249550000000  0.4573880000000 1.0
C      1  0.5613030000000  0.5152930000000  0.4695460000000 1.0
C      1  0.4960340000000  0.5215840000000  0.5641060000000 1.0
C      1  0.4455590000000  0.5141530000000  0.5102090000000 1.0
C      1  0.5735300000000  0.5039690000000  0.5150450000000 1.0
C      1  0.5503060000000  0.5519670000000  0.5306750000000 1.0
C      1  0.5126930000000  0.4990760000000  0.5525190000000 1.0
C      1  0.4860100000000  0.4589250000000  0.4479410000000 1.0
C      1  0.4538070000000  0.5579580000000  0.4986090000000 1.0
C      1  0.5057530000000  0.4290200000000  0.4798740000000 1.0
C      1  0.4615970000000  0.5548220000000  0.5276650000000 1.0
C      1  0.4599060000000  0.4457740000000  0.5221860000000 1.0
C      1  0.5210190000000  0.5563160000000  0.4923200000000 1.0
END
