TITL C-950528-5794-270 -1.45601584627931e-06 125000 -1226.58836824508 0 0 195 (C1) n - 1
REM
REM in /home/bkarasulu/work/CARBON/AIRSS/Generating-Clusters/EDIP-Nigel-Params/with-SteepDescent/Only-C1/SD-CG/HFTN-CG
REM
REM
REM
REM
REM
REM ./C.cell (11c1c37f851c82e70ff6c80c92926a4b)
REM
REM compiler GCC version 9.2.1 20190827 (Red Hat 9.2.1-1)
REM options -cpp -mtune=generic -march=x86-64 -g -O0 -fpre-include=/usr/include/finclude/math-vector-fortran.h
REM seed 1147327410 1466203268 -1907021560 -917923296 -1709504949 1263925358 179352812 2119948614 1434257329 1778440819 -1074766920 1121099162 -1040090131 -638089241 -1162778046 1535663564 497708042 1810868524 1149983018 -1868003678 -1661552698 -1560572213 1306229949 882642815 -1114107804 1167957172 772495724 -840396355 1256740886 1792939253 -401862417 -1911802346 1255494190
REM
CELL 1.54180   50.00000   50.00000   50.00000   90.00000   90.00000   90.00000
LATT -1
SFAC C  
C      1  0.5259030000000  0.5739480000000  0.4214160000000 1.0
C      1  0.4698080000000  0.4062000000000  0.4732820000000 1.0
C      1  0.4826560000000  0.5935500000000  0.4289480000000 1.0
C      1  0.4175660000000  0.4629960000000  0.5720200000000 1.0
C      1  0.4955340000000  0.6040880000000  0.4545130000000 1.0
C      1  0.5309650000000  0.4067330000000  0.5633910000000 1.0
C      1  0.5077860000000  0.4158210000000  0.4383460000000 1.0
C      1  0.4144330000000  0.4392620000000  0.5544100000000 1.0
C      1  0.5999630000000  0.5189320000000  0.5032570000000 1.0
C      1  0.5076170000000  0.6232320000000  0.5026540000000 1.0
C      1  0.6081540000000  0.4652180000000  0.4708290000000 1.0
C      1  0.4175110000000  0.4718000000000  0.5052360000000 1.0
C      1  0.5431460000000  0.5912610000000  0.5006080000000 1.0
C      1  0.4437540000000  0.5618900000000  0.4237900000000 1.0
C      1  0.4970810000000  0.5775850000000  0.4680330000000 1.0
C      1  0.5760680000000  0.4623660000000  0.5701880000000 1.0
C      1  0.5005000000000  0.5470900000000  0.5968780000000 1.0
C      1  0.5605050000000  0.5417750000000  0.4108820000000 1.0
C      1  0.5113640000000  0.4533810000000  0.5258360000000 1.0
C      1  0.5053360000000  0.4978190000000  0.5073880000000 1.0
C      1  0.5241340000000  0.4789010000000  0.6132480000000 1.0
C      1  0.6070680000000  0.5027510000000  0.5279820000000 1.0
C      1  0.5444850000000  0.5331740000000  0.3892450000000 1.0
C      1  0.4991020000000  0.4577580000000  0.5513230000000 1.0
C      1  0.5102370000000  0.4375650000000  0.3947650000000 1.0
C      1  0.5328090000000  0.5602010000000  0.5378870000000 1.0
C      1  0.5236230000000  0.4353620000000  0.4866320000000 1.0
C      1  0.4244990000000  0.5845250000000  0.5054290000000 1.0
C      1  0.3952540000000  0.5280460000000  0.5407870000000 1.0
C      1  0.5830910000000  0.4250540000000  0.4762670000000 1.0
C      1  0.5531540000000  0.4843810000000  0.4830060000000 1.0
C      1  0.3948610000000  0.5162930000000  0.5136620000000 1.0
C      1  0.5830710000000  0.4473680000000  0.4312280000000 1.0
C      1  0.5284010000000  0.4028090000000  0.5339140000000 1.0
C      1  0.5753960000000  0.5181860000000  0.4193110000000 1.0
C      1  0.5170720000000  0.3764440000000  0.5270960000000 1.0
C      1  0.5158370000000  0.5588570000000  0.4561250000000 1.0
C      1  0.5623590000000  0.5317540000000  0.4758070000000 1.0
C      1  0.4051350000000  0.5554840000000  0.5825070000000 1.0
C      1  0.5694620000000  0.4922090000000  0.6068210000000 1.0
C      1  0.4830710000000  0.4459550000000  0.6039830000000 1.0
C      1  0.4969910000000  0.5479910000000  0.5059860000000 1.0
C      1  0.4146620000000  0.5292110000000  0.5863150000000 1.0
C      1  0.5271790000000  0.5446810000000  0.5843500000000 1.0
C      1  0.4513650000000  0.5124060000000  0.5416810000000 1.0
C      1  0.4547220000000  0.4857100000000  0.6075570000000 1.0
C      1  0.4980440000000  0.5096840000000  0.5418830000000 1.0
C      1  0.5407920000000  0.5535780000000  0.4776030000000 1.0
C      1  0.4561240000000  0.4804790000000  0.4741930000000 1.0
C      1  0.4397380000000  0.5795610000000  0.5616310000000 1.0
C      1  0.4146990000000  0.5574430000000  0.4667050000000 1.0
C      1  0.5739980000000  0.4926690000000  0.4037480000000 1.0
C      1  0.4335740000000  0.4224190000000  0.4995480000000 1.0
C      1  0.3923750000000  0.4868080000000  0.5136520000000 1.0
C      1  0.4361040000000  0.4033830000000  0.5247130000000 1.0
C      1  0.4152840000000  0.4460380000000  0.4889620000000 1.0
C      1  0.4547440000000  0.5865600000000  0.4358260000000 1.0
C      1  0.5066110000000  0.3824150000000  0.5011360000000 1.0
C      1  0.5994080000000  0.5494410000000  0.5068500000000 1.0
C      1  0.4525920000000  0.5128710000000  0.5111270000000 1.0
C      1  0.4063530000000  0.5125580000000  0.5631530000000 1.0
C      1  0.4056680000000  0.4967970000000  0.4502940000000 1.0
C      1  0.5542580000000  0.5775160000000  0.4613680000000 1.0
C      1  0.4644130000000  0.6102920000000  0.5228700000000 1.0
C      1  0.4767870000000  0.5715900000000  0.5140600000000 1.0
C      1  0.5019590000000  0.5327680000000  0.4556230000000 1.0
C      1  0.4879510000000  0.5230950000000  0.6065800000000 1.0
C      1  0.6012220000000  0.4734340000000  0.5251040000000 1.0
C      1  0.4308860000000  0.5044420000000  0.4138820000000 1.0
C      1  0.4965360000000  0.4693610000000  0.5050090000000 1.0
C      1  0.4783150000000  0.3870990000000  0.4960200000000 1.0
C      1  0.5509430000000  0.4732600000000  0.3992050000000 1.0
C      1  0.5919680000000  0.5424180000000  0.5560710000000 1.0
C      1  0.5087430000000  0.4617730000000  0.4514460000000 1.0
C      1  0.4654340000000  0.4463480000000  0.4317700000000 1.0
C      1  0.5552570000000  0.5145720000000  0.5248290000000 1.0
C      1  0.4520270000000  0.5919940000000  0.4656200000000 1.0
C      1  0.4345660000000  0.4182640000000  0.5512840000000 1.0
C      1  0.5329570000000  0.6026720000000  0.4639940000000 1.0
C      1  0.5537840000000  0.3917300000000  0.4922730000000 1.0
C      1  0.4312550000000  0.4181270000000  0.4490790000000 1.0
C      1  0.5851870000000  0.5555840000000  0.5312640000000 1.0
C      1  0.4668940000000  0.5000210000000  0.4585470000000 1.0
C      1  0.5748330000000  0.5828030000000  0.5302970000000 1.0
C      1  0.5373440000000  0.4592890000000  0.4460050000000 1.0
C      1  0.5298230000000  0.4257400000000  0.4118840000000 1.0
C      1  0.4873060000000  0.5385790000000  0.5478790000000 1.0
C      1  0.4549160000000  0.4540900000000  0.4614730000000 1.0
C      1  0.5949560000000  0.5214960000000  0.4400880000000 1.0
C      1  0.4702250000000  0.4636060000000  0.5507070000000 1.0
C      1  0.5407420000000  0.4916870000000  0.5334320000000 1.0
C      1  0.5529560000000  0.4214470000000  0.5708720000000 1.0
C      1  0.5042530000000  0.4650890000000  0.3914790000000 1.0
C      1  0.5482510000000  0.4489830000000  0.4199980000000 1.0
C      1  0.5279950000000  0.5010650000000  0.4876250000000 1.0
C      1  0.5809790000000  0.4774320000000  0.4362550000000 1.0
C      1  0.4833220000000  0.5680500000000  0.5859090000000 1.0
C      1  0.4962530000000  0.4456890000000  0.4302630000000 1.0
C      1  0.4117130000000  0.5712520000000  0.5602730000000 1.0
C      1  0.4160810000000  0.5181400000000  0.4341550000000 1.0
C      1  0.4842640000000  0.5195680000000  0.5006030000000 1.0
C      1  0.5232230000000  0.5152760000000  0.4633780000000 1.0
C      1  0.4487770000000  0.5601460000000  0.5227590000000 1.0
C      1  0.5086660000000  0.4228350000000  0.5196150000000 1.0
C      1  0.5242240000000  0.4995410000000  0.5560090000000 1.0
C      1  0.5509990000000  0.5634440000000  0.4304840000000 1.0
C      1  0.4601130000000  0.5153180000000  0.6042550000000 1.0
C      1  0.5276320000000  0.4138580000000  0.4646920000000 1.0
C      1  0.4437080000000  0.4671900000000  0.5859540000000 1.0
C      1  0.5384450000000  0.5067260000000  0.4408810000000 1.0
C      1  0.4772440000000  0.5242270000000  0.4711060000000 1.0
C      1  0.4413370000000  0.5391560000000  0.4999040000000 1.0
C      1  0.5508120000000  0.5888010000000  0.5719550000000 1.0
C      1  0.5390500000000  0.4638750000000  0.5238350000000 1.0
C      1  0.4565090000000  0.4175620000000  0.4316040000000 1.0
C      1  0.5872320000000  0.4538350000000  0.5438110000000 1.0
C      1  0.4593010000000  0.4425690000000  0.5869390000000 1.0
C      1  0.5017710000000  0.5649770000000  0.5455970000000 1.0
C      1  0.5503210000000  0.5349180000000  0.5478890000000 1.0
C      1  0.4643940000000  0.4959170000000  0.4310240000000 1.0
C      1  0.4250390000000  0.5842080000000  0.4765790000000 1.0
C      1  0.4700620000000  0.5710630000000  0.4796480000000 1.0
C      1  0.5090610000000  0.4118240000000  0.5797260000000 1.0
C      1  0.4733730000000  0.4370770000000  0.4800980000000 1.0
C      1  0.4817370000000  0.6133060000000  0.5006700000000 1.0
C      1  0.3988690000000  0.4843550000000  0.5636490000000 1.0
C      1  0.4276510000000  0.4759110000000  0.4164100000000 1.0
C      1  0.5852870000000  0.5394640000000  0.4597250000000 1.0
C      1  0.4071910000000  0.5540480000000  0.5377150000000 1.0
C      1  0.4605140000000  0.4909330000000  0.3840870000000 1.0
C      1  0.4719260000000  0.5202080000000  0.4192260000000 1.0
C      1  0.4398290000000  0.4054600000000  0.4744300000000 1.0
C      1  0.4723190000000  0.6149060000000  0.4730080000000 1.0
C      1  0.4727070000000  0.4948690000000  0.5559050000000 1.0
C      1  0.4920940000000  0.4911170000000  0.5855250000000 1.0
C      1  0.5973420000000  0.4408800000000  0.4563880000000 1.0
C      1  0.4105670000000  0.5411050000000  0.4934380000000 1.0
C      1  0.5486540000000  0.5853140000000  0.5440990000000 1.0
C      1  0.3850560000000  0.4782640000000  0.5397040000000 1.0
C      1  0.5318670000000  0.6166460000000  0.4908540000000 1.0
C      1  0.4960530000000  0.5840790000000  0.5665800000000 1.0
C      1  0.4522800000000  0.4612930000000  0.4077620000000 1.0
C      1  0.6056200000000  0.5002040000000  0.5768150000000 1.0
C      1  0.4984700000000  0.5293990000000  0.4272300000000 1.0
C      1  0.4543040000000  0.5616150000000  0.5816030000000 1.0
C      1  0.4614310000000  0.4365210000000  0.5086030000000 1.0
C      1  0.6045870000000  0.5160570000000  0.5540970000000 1.0
C      1  0.4505910000000  0.5982940000000  0.5432520000000 1.0
C      1  0.4613540000000  0.4270640000000  0.5613470000000 1.0
C      1  0.5866780000000  0.4830090000000  0.5871230000000 1.0
C      1  0.4855280000000  0.4745220000000  0.6118800000000 1.0
C      1  0.4796610000000  0.4025530000000  0.4444290000000 1.0
C      1  0.4251870000000  0.4471780000000  0.4599990000000 1.0
C      1  0.5549570000000  0.4059730000000  0.5195870000000 1.0
C      1  0.4573350000000  0.5414130000000  0.5481840000000 1.0
C      1  0.4782070000000  0.4692340000000  0.3806360000000 1.0
C      1  0.4566740000000  0.5451400000000  0.4741460000000 1.0
C      1  0.4436070000000  0.5335950000000  0.5888030000000 1.0
C      1  0.5136280000000  0.4745920000000  0.5701090000000 1.0
C      1  0.5221170000000  0.5144680000000  0.3907390000000 1.0
C      1  0.4850840000000  0.5592990000000  0.3921640000000 1.0
C      1  0.5752970000000  0.4301420000000  0.5260630000000 1.0
C      1  0.5003740000000  0.4527180000000  0.4795120000000 1.0
C      1  0.5278140000000  0.4575100000000  0.5920490000000 1.0
C      1  0.4976990000000  0.5721150000000  0.4160280000000 1.0
C      1  0.5766180000000  0.4426830000000  0.4989620000000 1.0
C      1  0.5488290000000  0.4560200000000  0.4964380000000 1.0
C      1  0.4134490000000  0.4702530000000  0.4418190000000 1.0
C      1  0.5262870000000  0.3867040000000  0.4804040000000 1.0
C      1  0.4298570000000  0.4637580000000  0.5296440000000 1.0
C      1  0.4575370000000  0.4615220000000  0.5241600000000 1.0
C      1  0.5427730000000  0.5004000000000  0.6051160000000 1.0
C      1  0.5731340000000  0.5452470000000  0.5775450000000 1.0
C      1  0.5552060000000  0.4464710000000  0.5824870000000 1.0
C      1  0.5537930000000  0.4825600000000  0.4517680000000 1.0
C      1  0.5266760000000  0.5565730000000  0.5071610000000 1.0
C      1  0.5855350000000  0.5677790000000  0.4859240000000 1.0
C      1  0.6045950000000  0.4872820000000  0.4520120000000 1.0
C      1  0.4649360000000  0.3917450000000  0.5225630000000 1.0
C      1  0.4556100000000  0.5547290000000  0.3972740000000 1.0
C      1  0.4779110000000  0.4187300000000  0.5272590000000 1.0
C      1  0.5386200000000  0.5173870000000  0.5785990000000 1.0
C      1  0.5699820000000  0.5120700000000  0.4978850000000 1.0
C      1  0.5087640000000  0.4343550000000  0.5966060000000 1.0
C      1  0.5504870000000  0.5626410000000  0.5824100000000 1.0
C      1  0.5265600000000  0.4835340000000  0.3854170000000 1.0
C      1  0.4395600000000  0.4901190000000  0.4954980000000 1.0
C      1  0.4061010000000  0.5641550000000  0.5115530000000 1.0
C      1  0.4963840000000  0.5286860000000  0.3794680000000 1.0
C      1  0.5723070000000  0.5893640000000  0.5015400000000 1.0
C      1  0.5178710000000  0.5101730000000  0.4195610000000 1.0
C      1  0.5951090000000  0.4653710000000  0.4977450000000 1.0
C      1  0.4261940000000  0.5450680000000  0.4421190000000 1.0
C      1  0.4686020000000  0.5193780000000  0.3899290000000 1.0
C      1  0.5649220000000  0.4050350000000  0.4688860000000 1.0
END
