TITL C-951340-9809-621 -4.56121186933678e-06 125000 -967.969084251628 0 0 154 (C1) n - 1
REM
REM in /home/bkarasulu/work/CARBON/AIRSS/Generating-Clusters/EDIP-Nigel-Params/with-SteepDescent/Only-C1/SD-CG/HFTN-CG
REM
REM
REM
REM
REM
REM ./C.cell (11c1c37f851c82e70ff6c80c92926a4b)
REM
REM compiler GCC version 9.2.1 20190827 (Red Hat 9.2.1-1)
REM options -cpp -mtune=generic -march=x86-64 -g -O0 -fpre-include=/usr/include/finclude/math-vector-fortran.h
REM seed -607539579 703155352 -90382462 -1009106814 -660591891 -1510741058 -505795467 34480917 457159554 -850305519 957514273 -1233592603 -344702003 -436305292 972228190 1151968289 1250036677 588801116 -2056741156 -994670935 807397441 -628366955 -608145330 811440051 1604892332 -294600092 2115470379 699087593 -622225995 1382280573 -1143845192 1755531118 1904470560
REM
CELL 1.54180   50.00000   50.00000   50.00000   90.00000   90.00000   90.00000
LATT -1
SFAC C  
C      1  0.5824490000000  0.5141650000000  0.5496960000000 1.0
C      1  0.5797700000000  0.4381820000000  0.5250530000000 1.0
C      1  0.4472350000000  0.4587530000000  0.4225800000000 1.0
C      1  0.4800840000000  0.4206650000000  0.4313800000000 1.0
C      1  0.5441360000000  0.4840320000000  0.5154450000000 1.0
C      1  0.4688370000000  0.3973970000000  0.5470030000000 1.0
C      1  0.4759620000000  0.5593980000000  0.4096880000000 1.0
C      1  0.5664020000000  0.5945810000000  0.5192180000000 1.0
C      1  0.5430340000000  0.4976040000000  0.4513690000000 1.0
C      1  0.6121480000000  0.4707860000000  0.5124740000000 1.0
C      1  0.4865270000000  0.4968680000000  0.5553290000000 1.0
C      1  0.4928530000000  0.4925450000000  0.4439580000000 1.0
C      1  0.4797920000000  0.5722380000000  0.5491980000000 1.0
C      1  0.5202220000000  0.4385600000000  0.4135330000000 1.0
C      1  0.4991740000000  0.5574410000000  0.3936570000000 1.0
C      1  0.4986320000000  0.4342630000000  0.5752470000000 1.0
C      1  0.4169710000000  0.4979970000000  0.5350630000000 1.0
C      1  0.5237220000000  0.5297170000000  0.5254420000000 1.0
C      1  0.4835340000000  0.5549840000000  0.5952360000000 1.0
C      1  0.4116730000000  0.4695150000000  0.5282390000000 1.0
C      1  0.5392110000000  0.6055650000000  0.5195540000000 1.0
C      1  0.5301360000000  0.4142420000000  0.4557480000000 1.0
C      1  0.4860690000000  0.5070440000000  0.6034270000000 1.0
C      1  0.5556680000000  0.5460390000000  0.5810360000000 1.0
C      1  0.5813470000000  0.4832440000000  0.5517790000000 1.0
C      1  0.5314490000000  0.5582580000000  0.5753100000000 1.0
C      1  0.5232660000000  0.4573000000000  0.4649480000000 1.0
C      1  0.4632070000000  0.4900860000000  0.4483910000000 1.0
C      1  0.5477920000000  0.4883760000000  0.3914450000000 1.0
C      1  0.5451700000000  0.4395710000000  0.4529020000000 1.0
C      1  0.5194640000000  0.4777150000000  0.4433710000000 1.0
C      1  0.4868870000000  0.4725290000000  0.4858210000000 1.0
C      1  0.5003930000000  0.4610770000000  0.5893310000000 1.0
C      1  0.5197700000000  0.4118920000000  0.5323880000000 1.0
C      1  0.4654300000000  0.4586300000000  0.5301490000000 1.0
C      1  0.4891310000000  0.5755780000000  0.4848510000000 1.0
C      1  0.4429940000000  0.5042940000000  0.4941390000000 1.0
C      1  0.5127930000000  0.5181240000000  0.5991860000000 1.0
C      1  0.4171430000000  0.5435450000000  0.4794870000000 1.0
C      1  0.4984270000000  0.4272280000000  0.4971630000000 1.0
C      1  0.5860400000000  0.4933540000000  0.4771670000000 1.0
C      1  0.4542590000000  0.4052910000000  0.5021850000000 1.0
C      1  0.5266900000000  0.4048050000000  0.4829710000000 1.0
C      1  0.5540890000000  0.4748010000000  0.4164310000000 1.0
C      1  0.4383680000000  0.4300020000000  0.5692620000000 1.0
C      1  0.5354960000000  0.5250100000000  0.4474500000000 1.0
C      1  0.4956310000000  0.4390400000000  0.4682850000000 1.0
C      1  0.4291120000000  0.4551400000000  0.4460330000000 1.0
C      1  0.4932960000000  0.5162620000000  0.4264400000000 1.0
C      1  0.5799840000000  0.5174090000000  0.4365580000000 1.0
C      1  0.5438350000000  0.4440330000000  0.5581670000000 1.0
C      1  0.4510800000000  0.4808990000000  0.5851980000000 1.0
C      1  0.4997910000000  0.4610830000000  0.4141290000000 1.0
C      1  0.4743460000000  0.4472650000000  0.4221940000000 1.0
C      1  0.4935500000000  0.3968060000000  0.5290160000000 1.0
C      1  0.5399100000000  0.4691890000000  0.4886220000000 1.0
C      1  0.5492570000000  0.5391360000000  0.4031040000000 1.0
C      1  0.4252070000000  0.5020360000000  0.4290200000000 1.0
C      1  0.3988780000000  0.5132800000000  0.5173270000000 1.0
C      1  0.3961030000000  0.5384390000000  0.5314840000000 1.0
C      1  0.5710300000000  0.5441610000000  0.5281060000000 1.0
C      1  0.4041640000000  0.4658640000000  0.4972610000000 1.0
C      1  0.4445130000000  0.5054010000000  0.5243170000000 1.0
C      1  0.5631330000000  0.4337170000000  0.5007620000000 1.0
C      1  0.4827740000000  0.4014850000000  0.5020470000000 1.0
C      1  0.5722940000000  0.4763540000000  0.5796480000000 1.0
C      1  0.4982790000000  0.4806770000000  0.3911300000000 1.0
C      1  0.4450000000000  0.5729050000000  0.4562750000000 1.0
C      1  0.4451170000000  0.4862840000000  0.4150070000000 1.0
C      1  0.5453890000000  0.5419150000000  0.5122070000000 1.0
C      1  0.4824860000000  0.5974750000000  0.5053430000000 1.0
C      1  0.5006500000000  0.4990340000000  0.4934300000000 1.0
C      1  0.5462280000000  0.4475730000000  0.4235410000000 1.0
C      1  0.5011380000000  0.5496450000000  0.5257640000000 1.0
C      1  0.4441540000000  0.5520650000000  0.5768520000000 1.0
C      1  0.4582900000000  0.4775050000000  0.4762700000000 1.0
C      1  0.4911160000000  0.5298620000000  0.5552310000000 1.0
C      1  0.5272090000000  0.4700980000000  0.5968860000000 1.0
C      1  0.4400870000000  0.5087620000000  0.5810360000000 1.0
C      1  0.6038170000000  0.5171630000000  0.5184900000000 1.0
C      1  0.5220800000000  0.5949200000000  0.5394920000000 1.0
C      1  0.5235150000000  0.4824640000000  0.3793470000000 1.0
C      1  0.4867210000000  0.5693460000000  0.4348130000000 1.0
C      1  0.4585610000000  0.5189880000000  0.4529860000000 1.0
C      1  0.4611300000000  0.4084970000000  0.4483880000000 1.0
C      1  0.5328210000000  0.4981370000000  0.5928870000000 1.0
C      1  0.4936030000000  0.5249750000000  0.4789810000000 1.0
C      1  0.4346760000000  0.4482510000000  0.5242850000000 1.0
C      1  0.4726340000000  0.5765210000000  0.4588130000000 1.0
C      1  0.4810850000000  0.4848200000000  0.5839400000000 1.0
C      1  0.4189090000000  0.5595230000000  0.5629600000000 1.0
C      1  0.4480830000000  0.5337440000000  0.5308380000000 1.0
C      1  0.4930800000000  0.5924150000000  0.5335290000000 1.0
C      1  0.4380370000000  0.4573540000000  0.5766750000000 1.0
C      1  0.4003050000000  0.5351630000000  0.5614900000000 1.0
C      1  0.5850030000000  0.5411570000000  0.4804870000000 1.0
C      1  0.4251720000000  0.4446560000000  0.4942760000000 1.0
C      1  0.5592890000000  0.5658580000000  0.4474830000000 1.0
C      1  0.5180760000000  0.5016580000000  0.5181690000000 1.0
C      1  0.5758860000000  0.4859970000000  0.4338220000000 1.0
C      1  0.4677740000000  0.5716950000000  0.5756330000000 1.0
C      1  0.5664750000000  0.5842590000000  0.4916890000000 1.0
C      1  0.5550440000000  0.5151590000000  0.3902930000000 1.0
C      1  0.4391250000000  0.5289920000000  0.4343770000000 1.0
C      1  0.4291790000000  0.4240600000000  0.5413230000000 1.0
C      1  0.5063620000000  0.5414650000000  0.5809670000000 1.0
C      1  0.5257640000000  0.5517900000000  0.3946180000000 1.0
C      1  0.4595160000000  0.5321890000000  0.5576490000000 1.0
C      1  0.4143630000000  0.5083970000000  0.5643070000000 1.0
C      1  0.4579840000000  0.5275090000000  0.4810460000000 1.0
C      1  0.4631510000000  0.4261180000000  0.4713820000000 1.0
C      1  0.5105150000000  0.4854080000000  0.5431830000000 1.0
C      1  0.4335480000000  0.5886660000000  0.4963550000000 1.0
C      1  0.5703670000000  0.4429220000000  0.4704840000000 1.0
C      1  0.5569740000000  0.5381750000000  0.4325460000000 1.0
C      1  0.5334950000000  0.5695800000000  0.5061490000000 1.0
C      1  0.4865180000000  0.5067130000000  0.3982500000000 1.0
C      1  0.4180480000000  0.4823640000000  0.4504640000000 1.0
C      1  0.5341570000000  0.4662350000000  0.5397510000000 1.0
C      1  0.4240430000000  0.5524200000000  0.5284630000000 1.0
C      1  0.5722510000000  0.5241190000000  0.5766150000000 1.0
C      1  0.4852820000000  0.5488450000000  0.4987490000000 1.0
C      1  0.5073970000000  0.5339810000000  0.4488490000000 1.0
C      1  0.5225610000000  0.4243300000000  0.5591730000000 1.0
C      1  0.4448710000000  0.4011910000000  0.5296660000000 1.0
C      1  0.5505940000000  0.4557020000000  0.5848470000000 1.0
C      1  0.4855190000000  0.4533300000000  0.5084760000000 1.0
C      1  0.4054520000000  0.4884180000000  0.4765670000000 1.0
C      1  0.5617760000000  0.5013790000000  0.5913270000000 1.0
C      1  0.4619960000000  0.5333190000000  0.4115830000000 1.0
C      1  0.5653310000000  0.5722390000000  0.5405220000000 1.0
C      1  0.4551340000000  0.6025930000000  0.5040100000000 1.0
C      1  0.4436420000000  0.4499580000000  0.4718860000000 1.0
C      1  0.4661690000000  0.5293850000000  0.6014180000000 1.0
C      1  0.5367020000000  0.5722580000000  0.5503920000000 1.0
C      1  0.5185830000000  0.5726550000000  0.4807140000000 1.0
C      1  0.4128920000000  0.5140420000000  0.4901570000000 1.0
C      1  0.5937570000000  0.5419930000000  0.5084180000000 1.0
C      1  0.5862800000000  0.4681100000000  0.4594870000000 1.0
C      1  0.5930940000000  0.4634970000000  0.5315630000000 1.0
C      1  0.4225840000000  0.5635310000000  0.5005220000000 1.0
C      1  0.5666080000000  0.4304980000000  0.5479160000000 1.0
C      1  0.5924010000000  0.5189040000000  0.4629400000000 1.0
C      1  0.5389420000000  0.4155270000000  0.5070650000000 1.0
C      1  0.6033900000000  0.4942350000000  0.5014050000000 1.0
C      1  0.4653580000000  0.4878430000000  0.5360520000000 1.0
C      1  0.5549400000000  0.4947520000000  0.4797490000000 1.0
C      1  0.4275410000000  0.5510800000000  0.4527700000000 1.0
C      1  0.5147350000000  0.5686800000000  0.4336570000000 1.0
C      1  0.5766800000000  0.5669180000000  0.4710400000000 1.0
C      1  0.4775060000000  0.4449650000000  0.5545820000000 1.0
C      1  0.5318170000000  0.5759330000000  0.4546150000000 1.0
C      1  0.4666450000000  0.4186660000000  0.5681150000000 1.0
C      1  0.5098070000000  0.4173120000000  0.4326810000000 1.0
END
