TITL C-951336-9012-678 -2.49973153503057e-06 125000 -1078.20555147925 0 0 173 (C1) n - 1
REM
REM in /home/bkarasulu/work/CARBON/AIRSS/Generating-Clusters/EDIP-Nigel-Params/with-SteepDescent/Only-C1/SD-CG/HFTN-CG
REM
REM
REM
REM
REM
REM ./C.cell (11c1c37f851c82e70ff6c80c92926a4b)
REM
REM compiler GCC version 9.2.1 20190827 (Red Hat 9.2.1-1)
REM options -cpp -mtune=generic -march=x86-64 -g -O0 -fpre-include=/usr/include/finclude/math-vector-fortran.h
REM seed -918086684 241881417 638005584 159655455 -133901710 -1776009820 662993664 -559588207 -661011510 1527525704 -797585168 -1592498697 562857291 -1728983908 1288520050 96034512 1444575524 -1804308597 1818826469 -2094607048 544235085 1947866695 -409841987 700655052 -100088286 1502270825 -48010163 973373233 2108054488 1099850940 475184761 -1875064079 1818952873
REM
CELL 1.54180   50.00000   50.00000   50.00000   90.00000   90.00000   90.00000
LATT -1
SFAC C  
C      1  0.4178260000000  0.5615210000000  0.5349960000000 1.0
C      1  0.4417510000000  0.5434210000000  0.4624570000000 1.0
C      1  0.4523830000000  0.5828300000000  0.5724220000000 1.0
C      1  0.4299490000000  0.4173540000000  0.5372710000000 1.0
C      1  0.6012340000000  0.5293830000000  0.4439040000000 1.0
C      1  0.5101290000000  0.4470610000000  0.4139510000000 1.0
C      1  0.5844720000000  0.5721560000000  0.5342290000000 1.0
C      1  0.4768890000000  0.4324320000000  0.4815640000000 1.0
C      1  0.4676520000000  0.4649950000000  0.5173430000000 1.0
C      1  0.5556450000000  0.5634730000000  0.5735860000000 1.0
C      1  0.4472880000000  0.5621440000000  0.4149030000000 1.0
C      1  0.5017060000000  0.4954180000000  0.5573030000000 1.0
C      1  0.5317280000000  0.6168560000000  0.5138030000000 1.0
C      1  0.4577810000000  0.4660410000000  0.5953730000000 1.0
C      1  0.5046460000000  0.5579410000000  0.5929850000000 1.0
C      1  0.4686260000000  0.5963280000000  0.5545510000000 1.0
C      1  0.5558540000000  0.4305250000000  0.5222610000000 1.0
C      1  0.4688410000000  0.4042650000000  0.5569380000000 1.0
C      1  0.4803420000000  0.4492000000000  0.5392230000000 1.0
C      1  0.5651340000000  0.5842790000000  0.5534330000000 1.0
C      1  0.4648780000000  0.5061680000000  0.4957450000000 1.0
C      1  0.5231880000000  0.5649150000000  0.4335250000000 1.0
C      1  0.4801060000000  0.4474570000000  0.4553820000000 1.0
C      1  0.4813690000000  0.5463970000000  0.4419190000000 1.0
C      1  0.4514680000000  0.5994620000000  0.4825700000000 1.0
C      1  0.5052900000000  0.5141460000000  0.4012660000000 1.0
C      1  0.5096120000000  0.5410710000000  0.4434570000000 1.0
C      1  0.4832160000000  0.4994570000000  0.4501950000000 1.0
C      1  0.5096660000000  0.4747320000000  0.6037590000000 1.0
C      1  0.5890860000000  0.4885040000000  0.5546610000000 1.0
C      1  0.4543090000000  0.4872370000000  0.5577360000000 1.0
C      1  0.5528540000000  0.6014150000000  0.5240250000000 1.0
C      1  0.5062110000000  0.5842790000000  0.4876640000000 1.0
C      1  0.5885660000000  0.5549480000000  0.4699790000000 1.0
C      1  0.4162230000000  0.5217690000000  0.4948790000000 1.0
C      1  0.4934870000000  0.4303280000000  0.5857270000000 1.0
C      1  0.4059820000000  0.5154840000000  0.5473680000000 1.0
C      1  0.4593270000000  0.5147670000000  0.5431170000000 1.0
C      1  0.5366780000000  0.4062710000000  0.4775700000000 1.0
C      1  0.5141320000000  0.3885100000000  0.5222220000000 1.0
C      1  0.4199420000000  0.5242410000000  0.4219540000000 1.0
C      1  0.5950360000000  0.5314760000000  0.4897540000000 1.0
C      1  0.5580650000000  0.4199840000000  0.4924130000000 1.0
C      1  0.5431910000000  0.5071780000000  0.4826920000000 1.0
C      1  0.4829160000000  0.5434170000000  0.5773970000000 1.0
C      1  0.3812870000000  0.4924410000000  0.4730710000000 1.0
C      1  0.5344690000000  0.5000450000000  0.4399100000000 1.0
C      1  0.5286950000000  0.4942960000000  0.5429680000000 1.0
C      1  0.4393000000000  0.4072190000000  0.4887410000000 1.0
C      1  0.5885770000000  0.5109120000000  0.4643560000000 1.0
C      1  0.4447780000000  0.4433800000000  0.4404870000000 1.0
C      1  0.4906430000000  0.4677840000000  0.4074820000000 1.0
C      1  0.5271360000000  0.5370210000000  0.5703390000000 1.0
C      1  0.5142710000000  0.4103450000000  0.5429680000000 1.0
C      1  0.5703810000000  0.5362750000000  0.5626110000000 1.0
C      1  0.4878680000000  0.5562210000000  0.4941170000000 1.0
C      1  0.4298050000000  0.5500040000000  0.4335760000000 1.0
C      1  0.5579630000000  0.5904940000000  0.4645360000000 1.0
C      1  0.5098880000000  0.5998310000000  0.5126840000000 1.0
C      1  0.4302690000000  0.4638180000000  0.4263410000000 1.0
C      1  0.4920730000000  0.5441550000000  0.5439230000000 1.0
C      1  0.5840990000000  0.5268980000000  0.4211950000000 1.0
C      1  0.4018410000000  0.5087310000000  0.5188210000000 1.0
C      1  0.5570060000000  0.4855400000000  0.4986650000000 1.0
C      1  0.5856620000000  0.5435080000000  0.5383020000000 1.0
C      1  0.5475830000000  0.5405750000000  0.3947940000000 1.0
C      1  0.4444120000000  0.4812310000000  0.4081750000000 1.0
C      1  0.5144870000000  0.4602950000000  0.4834820000000 1.0
C      1  0.5732220000000  0.4998210000000  0.4186440000000 1.0
C      1  0.4571010000000  0.5241220000000  0.3874990000000 1.0
C      1  0.4917390000000  0.4735510000000  0.4643640000000 1.0
C      1  0.5123930000000  0.5119710000000  0.4901840000000 1.0
C      1  0.6042550000000  0.4957520000000  0.5285640000000 1.0
C      1  0.4873270000000  0.4911260000000  0.5106620000000 1.0
C      1  0.5320710000000  0.4527080000000  0.5279020000000 1.0
C      1  0.5845760000000  0.4766720000000  0.4330810000000 1.0
C      1  0.4127570000000  0.4961020000000  0.5692740000000 1.0
C      1  0.4247620000000  0.5495340000000  0.4881020000000 1.0
C      1  0.4824060000000  0.5349400000000  0.3940580000000 1.0
C      1  0.5695560000000  0.5799870000000  0.5088680000000 1.0
C      1  0.4310750000000  0.5105020000000  0.5871470000000 1.0
C      1  0.5973850000000  0.4575120000000  0.5070890000000 1.0
C      1  0.4169710000000  0.5066970000000  0.4456490000000 1.0
C      1  0.4677270000000  0.3955960000000  0.5288970000000 1.0
C      1  0.4511540000000  0.4292020000000  0.5561340000000 1.0
C      1  0.5390050000000  0.4707940000000  0.5993770000000 1.0
C      1  0.5275430000000  0.5762040000000  0.5863300000000 1.0
C      1  0.5057750000000  0.4361880000000  0.5280060000000 1.0
C      1  0.4167370000000  0.4368620000000  0.5214150000000 1.0
C      1  0.5741320000000  0.4636550000000  0.5511730000000 1.0
C      1  0.4432070000000  0.4902270000000  0.4808110000000 1.0
C      1  0.4681150000000  0.4040280000000  0.4739500000000 1.0
C      1  0.5131370000000  0.4038890000000  0.4939410000000 1.0
C      1  0.5342440000000  0.5161710000000  0.3914760000000 1.0
C      1  0.5694400000000  0.4524950000000  0.4249650000000 1.0
C      1  0.4843980000000  0.4708410000000  0.5604850000000 1.0
C      1  0.4321180000000  0.5388280000000  0.5777030000000 1.0
C      1  0.4505280000000  0.5268650000000  0.5142390000000 1.0
C      1  0.5306860000000  0.4700850000000  0.4374770000000 1.0
C      1  0.4379840000000  0.5096430000000  0.4024260000000 1.0
C      1  0.5062720000000  0.5036210000000  0.6004020000000 1.0
C      1  0.5657350000000  0.5493490000000  0.4142590000000 1.0
C      1  0.4573830000000  0.4472020000000  0.4962780000000 1.0
C      1  0.5085510000000  0.5126590000000  0.4327320000000 1.0
C      1  0.5103180000000  0.5890030000000  0.4412130000000 1.0
C      1  0.4880640000000  0.5108750000000  0.5362050000000 1.0
C      1  0.5568000000000  0.5153880000000  0.4588290000000 1.0
C      1  0.5525870000000  0.5640340000000  0.4381430000000 1.0
C      1  0.5292440000000  0.5498030000000  0.5207490000000 1.0
C      1  0.5937610000000  0.4809160000000  0.4612450000000 1.0
C      1  0.5174240000000  0.5955080000000  0.5679480000000 1.0
C      1  0.4428670000000  0.5927720000000  0.5079350000000 1.0
C      1  0.4173920000000  0.4636720000000  0.5334520000000 1.0
C      1  0.4715370000000  0.5502720000000  0.5196080000000 1.0
C      1  0.4089630000000  0.4787170000000  0.4393100000000 1.0
C      1  0.5384010000000  0.4383440000000  0.5697350000000 1.0
C      1  0.5672910000000  0.4312280000000  0.4445090000000 1.0
C      1  0.5282410000000  0.4749720000000  0.5082810000000 1.0
C      1  0.5802610000000  0.4641740000000  0.4830560000000 1.0
C      1  0.5593030000000  0.5460840000000  0.4627090000000 1.0
C      1  0.5729920000000  0.4364250000000  0.4729680000000 1.0
C      1  0.4445870000000  0.4749490000000  0.5316990000000 1.0
C      1  0.4546990000000  0.4196820000000  0.4306570000000 1.0
C      1  0.4183010000000  0.4707990000000  0.4871980000000 1.0
C      1  0.4819920000000  0.5132990000000  0.5872600000000 1.0
C      1  0.5498780000000  0.5584480000000  0.4986140000000 1.0
C      1  0.4844960000000  0.5163080000000  0.4745610000000 1.0
C      1  0.4669190000000  0.5885340000000  0.4624420000000 1.0
C      1  0.4749020000000  0.4057060000000  0.4433690000000 1.0
C      1  0.5788660000000  0.5291920000000  0.5137570000000 1.0
C      1  0.4862040000000  0.3771450000000  0.5165730000000 1.0
C      1  0.4975580000000  0.4885200000000  0.3897700000000 1.0
C      1  0.5307880000000  0.5157260000000  0.5909450000000 1.0
C      1  0.4412110000000  0.3978270000000  0.5174820000000 1.0
C      1  0.4690040000000  0.5586040000000  0.4657990000000 1.0
C      1  0.4652660000000  0.4677980000000  0.3945020000000 1.0
C      1  0.5009870000000  0.4282790000000  0.4387220000000 1.0
C      1  0.5731590000000  0.5078100000000  0.5715940000000 1.0
C      1  0.4156710000000  0.4665070000000  0.5641840000000 1.0
C      1  0.4947400000000  0.5978060000000  0.4631890000000 1.0
C      1  0.5445730000000  0.4646920000000  0.5556950000000 1.0
C      1  0.4953340000000  0.4089280000000  0.5673370000000 1.0
C      1  0.5515930000000  0.4923500000000  0.3998770000000 1.0
C      1  0.5431880000000  0.4159170000000  0.5504620000000 1.0
C      1  0.5311090000000  0.4243830000000  0.4539720000000 1.0
C      1  0.5029720000000  0.4324800000000  0.4970040000000 1.0
C      1  0.5740430000000  0.5013460000000  0.5211470000000 1.0
C      1  0.4458970000000  0.5080550000000  0.4558760000000 1.0
C      1  0.5808800000000  0.4459300000000  0.5289880000000 1.0
C      1  0.5823040000000  0.5838120000000  0.4806640000000 1.0
C      1  0.4572390000000  0.6022070000000  0.5298040000000 1.0
C      1  0.5338270000000  0.4535010000000  0.4623140000000 1.0
C      1  0.5103990000000  0.5387590000000  0.5019580000000 1.0
C      1  0.4745120000000  0.5548520000000  0.4147940000000 1.0
C      1  0.5476070000000  0.4433380000000  0.5961960000000 1.0
C      1  0.4562710000000  0.4971840000000  0.5953580000000 1.0
C      1  0.6173110000000  0.4752420000000  0.5151250000000 1.0
C      1  0.4886480000000  0.3850600000000  0.4862170000000 1.0
C      1  0.4874080000000  0.4585890000000  0.5888740000000 1.0
C      1  0.5443850000000  0.4622360000000  0.4101020000000 1.0
C      1  0.5507630000000  0.4956750000000  0.5867010000000 1.0
C      1  0.5323890000000  0.5266140000000  0.5424010000000 1.0
C      1  0.4136670000000  0.5425740000000  0.5549220000000 1.0
C      1  0.5157540000000  0.5790930000000  0.5328730000000 1.0
C      1  0.3998690000000  0.5140100000000  0.4696000000000 1.0
C      1  0.4942520000000  0.5808570000000  0.5568650000000 1.0
C      1  0.4554920000000  0.5565670000000  0.5814980000000 1.0
C      1  0.4389530000000  0.4508860000000  0.5769510000000 1.0
C      1  0.3974690000000  0.4701150000000  0.4651670000000 1.0
C      1  0.4028330000000  0.4799240000000  0.5133500000000 1.0
C      1  0.5349950000000  0.5777790000000  0.4798450000000 1.0
C      1  0.4314650000000  0.5663770000000  0.5111840000000 1.0
C      1  0.4292840000000  0.4378840000000  0.4940900000000 1.0
END
