TITL C-950533-5798-700 -4.63377426274699e-06 125000 -759.101216225105 0 0 122 (C1) n - 1
REM
REM in /home/bkarasulu/work/CARBON/AIRSS/Generating-Clusters/EDIP-Nigel-Params/with-SteepDescent/Only-C1/SD-CG/HFTN-CG
REM
REM
REM
REM
REM
REM ./C.cell (11c1c37f851c82e70ff6c80c92926a4b)
REM
REM compiler GCC version 9.2.1 20190827 (Red Hat 9.2.1-1)
REM options -cpp -mtune=generic -march=x86-64 -g -O0 -fpre-include=/usr/include/finclude/math-vector-fortran.h
REM seed 282357274 174377280 846714315 1778200265 -2042843054 -1827934820 732058150 2121461791 364742800 1828258290 2036953381 228619590 -281028917 -1614854638 280363303 1440667032 1223609073 1655923448 -2009250995 188642113 -2133139329 -1388586147 -414086843 1403533245 975363051 1020769630 461421602 825805284 -1767834072 -957265291 453563207 -1016364559 -926712520
REM
CELL 1.54180   50.00000   50.00000   50.00000   90.00000   90.00000   90.00000
LATT -1
SFAC C  
C      1  0.5104890000000  0.5426210000000  0.5074910000000 1.0
C      1  0.4773400000000  0.5032260000000  0.5884750000000 1.0
C      1  0.5243240000000  0.5000640000000  0.4142550000000 1.0
C      1  0.5283150000000  0.4995620000000  0.5334030000000 1.0
C      1  0.4593320000000  0.4336910000000  0.4883330000000 1.0
C      1  0.4829240000000  0.5264240000000  0.4103510000000 1.0
C      1  0.4311340000000  0.4749300000000  0.5164970000000 1.0
C      1  0.5223040000000  0.4483150000000  0.5349090000000 1.0
C      1  0.5382040000000  0.5231410000000  0.4650570000000 1.0
C      1  0.5483440000000  0.4776880000000  0.4873780000000 1.0
C      1  0.5310600000000  0.5711040000000  0.5637330000000 1.0
C      1  0.4958570000000  0.4337150000000  0.4328100000000 1.0
C      1  0.5387150000000  0.4219330000000  0.4627640000000 1.0
C      1  0.4993250000000  0.4208270000000  0.5696370000000 1.0
C      1  0.5061960000000  0.4824450000000  0.4567540000000 1.0
C      1  0.4544550000000  0.5734570000000  0.5090490000000 1.0
C      1  0.4574830000000  0.4904040000000  0.5396720000000 1.0
C      1  0.4286240000000  0.4498690000000  0.5293940000000 1.0
C      1  0.4201550000000  0.5369440000000  0.4453120000000 1.0
C      1  0.5039130000000  0.4081390000000  0.4757530000000 1.0
C      1  0.5746330000000  0.5165720000000  0.5426410000000 1.0
C      1  0.4036550000000  0.5298330000000  0.4956880000000 1.0
C      1  0.5513720000000  0.5857730000000  0.5194070000000 1.0
C      1  0.4727950000000  0.5073650000000  0.5157420000000 1.0
C      1  0.5512700000000  0.5779210000000  0.4713420000000 1.0
C      1  0.4811880000000  0.5002750000000  0.4523110000000 1.0
C      1  0.5564250000000  0.5403050000000  0.5387500000000 1.0
C      1  0.4440150000000  0.4325700000000  0.4637630000000 1.0
C      1  0.4650760000000  0.5681090000000  0.4846210000000 1.0
C      1  0.6169840000000  0.5092500000000  0.5190210000000 1.0
C      1  0.5146630000000  0.4064760000000  0.5482450000000 1.0
C      1  0.5511850000000  0.5076980000000  0.4234700000000 1.0
C      1  0.4185610000000  0.5100490000000  0.4318530000000 1.0
C      1  0.5190750000000  0.4507940000000  0.4281330000000 1.0
C      1  0.4240800000000  0.4965520000000  0.5545730000000 1.0
C      1  0.4695130000000  0.4223760000000  0.5637880000000 1.0
C      1  0.5214370000000  0.5265210000000  0.5963870000000 1.0
C      1  0.5127380000000  0.4433670000000  0.5807990000000 1.0
C      1  0.4623460000000  0.5385670000000  0.4736480000000 1.0
C      1  0.4701940000000  0.4245630000000  0.5330320000000 1.0
C      1  0.5023430000000  0.5886740000000  0.5296330000000 1.0
C      1  0.5823490000000  0.4561170000000  0.5054930000000 1.0
C      1  0.5102390000000  0.5752140000000  0.5031040000000 1.0
C      1  0.4319680000000  0.5391920000000  0.5632230000000 1.0
C      1  0.5114320000000  0.5231720000000  0.4020170000000 1.0
C      1  0.5287570000000  0.4600670000000  0.5632420000000 1.0
C      1  0.4835140000000  0.5350940000000  0.5187190000000 1.0
C      1  0.5319310000000  0.5047370000000  0.5843100000000 1.0
C      1  0.4906340000000  0.4858670000000  0.5714090000000 1.0
C      1  0.5019320000000  0.3874150000000  0.5317830000000 1.0
C      1  0.4424130000000  0.5040430000000  0.4170950000000 1.0
C      1  0.4143230000000  0.4878410000000  0.4506760000000 1.0
C      1  0.4842820000000  0.5729110000000  0.5481260000000 1.0
C      1  0.5291230000000  0.4641330000000  0.5067490000000 1.0
C      1  0.4386790000000  0.5412100000000  0.5351610000000 1.0
C      1  0.5708990000000  0.4663580000000  0.5473200000000 1.0
C      1  0.4567120000000  0.4487250000000  0.5701610000000 1.0
C      1  0.5786830000000  0.5750120000000  0.4715920000000 1.0
C      1  0.5814130000000  0.4456550000000  0.5314040000000 1.0
C      1  0.5532490000000  0.5539840000000  0.5642250000000 1.0
C      1  0.5566360000000  0.4587450000000  0.5697050000000 1.0
C      1  0.4820170000000  0.4020070000000  0.5186460000000 1.0
C      1  0.4923470000000  0.5463070000000  0.4345910000000 1.0
C      1  0.5615280000000  0.4173640000000  0.4804920000000 1.0
C      1  0.4096860000000  0.5405390000000  0.4710270000000 1.0
C      1  0.5366390000000  0.5873050000000  0.4941400000000 1.0
C      1  0.5737750000000  0.5529340000000  0.4902260000000 1.0
C      1  0.4315450000000  0.4494820000000  0.5575940000000 1.0
C      1  0.4736770000000  0.4507310000000  0.4267980000000 1.0
C      1  0.5444570000000  0.4419380000000  0.4408730000000 1.0
C      1  0.5833800000000  0.5127590000000  0.4601930000000 1.0
C      1  0.5622950000000  0.4913080000000  0.5326310000000 1.0
C      1  0.5044210000000  0.5600710000000  0.5661180000000 1.0
C      1  0.4520340000000  0.5126010000000  0.4940030000000 1.0
C      1  0.6017730000000  0.5191700000000  0.5386530000000 1.0
C      1  0.4713640000000  0.5009320000000  0.4217570000000 1.0
C      1  0.5125680000000  0.4734120000000  0.4096700000000 1.0
C      1  0.4858450000000  0.4715000000000  0.5120360000000 1.0
C      1  0.4482190000000  0.5444800000000  0.4458730000000 1.0
C      1  0.4823630000000  0.4745690000000  0.4103230000000 1.0
C      1  0.4457570000000  0.4305970000000  0.5163370000000 1.0
C      1  0.4647320000000  0.5559800000000  0.5294630000000 1.0
C      1  0.6070230000000  0.5040440000000  0.4719910000000 1.0
C      1  0.4906710000000  0.5811630000000  0.4818020000000 1.0
C      1  0.6004470000000  0.4996480000000  0.4987520000000 1.0
C      1  0.5742940000000  0.4847150000000  0.5047750000000 1.0
C      1  0.4536150000000  0.4843040000000  0.4797670000000 1.0
C      1  0.4735720000000  0.4612340000000  0.4862810000000 1.0
C      1  0.5737290000000  0.4425630000000  0.4803170000000 1.0
C      1  0.4471890000000  0.5833960000000  0.4695630000000 1.0
C      1  0.4500950000000  0.4526550000000  0.4445890000000 1.0
C      1  0.5301880000000  0.5895720000000  0.5411570000000 1.0
C      1  0.4958710000000  0.5897080000000  0.4558110000000 1.0
C      1  0.4525190000000  0.5442930000000  0.5811110000000 1.0
C      1  0.5128170000000  0.5318140000000  0.4790340000000 1.0
C      1  0.4885970000000  0.5294410000000  0.4609840000000 1.0
C      1  0.4958660000000  0.4552300000000  0.4648990000000 1.0
C      1  0.4813330000000  0.5747530000000  0.4367410000000 1.0
C      1  0.4451550000000  0.4811970000000  0.4517900000000 1.0
C      1  0.5001470000000  0.5433880000000  0.5893070000000 1.0
C      1  0.4795960000000  0.4096420000000  0.4903030000000 1.0
C      1  0.5356980000000  0.4921950000000  0.4621380000000 1.0
C      1  0.5669160000000  0.5603540000000  0.5189780000000 1.0
C      1  0.5629960000000  0.4588430000000  0.4569760000000 1.0
C      1  0.3966940000000  0.4929840000000  0.4719210000000 1.0
C      1  0.5300550000000  0.5293850000000  0.5280960000000 1.0
C      1  0.4892930000000  0.4507200000000  0.5337510000000 1.0
C      1  0.4166430000000  0.4969740000000  0.5267320000000 1.0
C      1  0.4744830000000  0.5306680000000  0.5914790000000 1.0
C      1  0.5438060000000  0.5337640000000  0.4359570000000 1.0
C      1  0.3860400000000  0.5083930000000  0.4915640000000 1.0
C      1  0.5214150000000  0.5456600000000  0.4204070000000 1.0
C      1  0.5192520000000  0.4892270000000  0.5636840000000 1.0
C      1  0.5146350000000  0.4342570000000  0.4776500000000 1.0
C      1  0.4520940000000  0.5736970000000  0.4424850000000 1.0
C      1  0.5337520000000  0.4217110000000  0.5348230000000 1.0
C      1  0.5117290000000  0.4866060000000  0.5107220000000 1.0
C      1  0.4151080000000  0.5180360000000  0.5698590000000 1.0
C      1  0.4740640000000  0.4685710000000  0.5548970000000 1.0
C      1  0.5649480000000  0.5264090000000  0.4786550000000 1.0
C      1  0.5692370000000  0.4937160000000  0.4424040000000 1.0
C      1  0.4267920000000  0.5214830000000  0.5130160000000 1.0
END
