TITL C-951336-9012-96 -8.81945820321522e-07 125000 -211.685933705405 0 0 36 (C1) n - 1
REM
REM in /home/bkarasulu/work/CARBON/AIRSS/Generating-Clusters/EDIP-Nigel-Params/with-SteepDescent/Only-C1/SD-CG/HFTN-CG
REM
REM
REM
REM
REM
REM ./C.cell (11c1c37f851c82e70ff6c80c92926a4b)
REM
REM compiler GCC version 9.2.1 20190827 (Red Hat 9.2.1-1)
REM options -cpp -mtune=generic -march=x86-64 -g -O0 -fpre-include=/usr/include/finclude/math-vector-fortran.h
REM seed 2069495888 -1466999749 -1383521285 1026056304 996456001 -939899833 948089349 905068936 1108151285 413997124 815772731 2065321198 1845136189 1616608838 217958174 1992012271 -419604452 -145410552 414854434 1092866570 -1076272807 341897282 -132900206 -298607883 -2025723350 -6726462 -1065767745 -891814011 680685105 321933951 -1961330785 -2023879457 343076204
REM
CELL 1.54180   50.00000   50.00000   50.00000   90.00000   90.00000   90.00000
LATT -1
SFAC C  
C      1  0.4869540000000  0.4844570000000  0.5600800000000 1.0
C      1  0.5070070000000  0.5471480000000  0.4657590000000 1.0
C      1  0.5533030000000  0.5160130000000  0.4537620000000 1.0
C      1  0.4652670000000  0.4536190000000  0.5268640000000 1.0
C      1  0.5307740000000  0.5056120000000  0.5475300000000 1.0
C      1  0.4790520000000  0.5465820000000  0.4636280000000 1.0
C      1  0.5528800000000  0.4756850000000  0.4773820000000 1.0
C      1  0.5103420000000  0.5680260000000  0.5105990000000 1.0
C      1  0.5545800000000  0.5034090000000  0.4787460000000 1.0
C      1  0.5126370000000  0.4937930000000  0.5655010000000 1.0
C      1  0.4731540000000  0.4341710000000  0.5083360000000 1.0
C      1  0.4940850000000  0.5327380000000  0.5317580000000 1.0
C      1  0.5086730000000  0.4741530000000  0.5133300000000 1.0
C      1  0.4971860000000  0.5105890000000  0.4682860000000 1.0
C      1  0.5391730000000  0.5130330000000  0.5013170000000 1.0
C      1  0.4930750000000  0.4351570000000  0.4886150000000 1.0
C      1  0.4595770000000  0.5272580000000  0.4644900000000 1.0
C      1  0.4677660000000  0.5050000000000  0.5575230000000 1.0
C      1  0.4198060000000  0.5097950000000  0.4828380000000 1.0
C      1  0.4727730000000  0.5306100000000  0.5485750000000 1.0
C      1  0.5332330000000  0.5043970000000  0.4396930000000 1.0
C      1  0.4902960000000  0.4654060000000  0.5374280000000 1.0
C      1  0.5377390000000  0.5405370000000  0.5132900000000 1.0
C      1  0.5318330000000  0.4576890000000  0.4739470000000 1.0
C      1  0.5077840000000  0.4946530000000  0.4452090000000 1.0
C      1  0.4500490000000  0.4738360000000  0.5149590000000 1.0
C      1  0.4614710000000  0.4906540000000  0.4961340000000 1.0
C      1  0.4905330000000  0.4900870000000  0.4915120000000 1.0
C      1  0.5325670000000  0.4923390000000  0.5210700000000 1.0
C      1  0.4865840000000  0.5568740000000  0.5218720000000 1.0
C      1  0.4462150000000  0.5099970000000  0.4818980000000 1.0
C      1  0.5223980000000  0.5323730000000  0.5381120000000 1.0
C      1  0.5056670000000  0.4682700000000  0.4620250000000 1.0
C      1  0.5181710000000  0.4483640000000  0.4989830000000 1.0
C      1  0.4857760000000  0.4467260000000  0.4632450000000 1.0
C      1  0.5216190000000  0.5609470000000  0.4856990000000 1.0
END
