TITL C-951340-9809-488 -2.76166510120073e-06 125000 -1100.66915122008 0 0 175 (C1) n - 1
REM
REM in /home/bkarasulu/work/CARBON/AIRSS/Generating-Clusters/EDIP-Nigel-Params/with-SteepDescent/Only-C1/SD-CG/HFTN-CG
REM
REM
REM
REM
REM
REM ./C.cell (11c1c37f851c82e70ff6c80c92926a4b)
REM
REM compiler GCC version 9.2.1 20190827 (Red Hat 9.2.1-1)
REM options -cpp -mtune=generic -march=x86-64 -g -O0 -fpre-include=/usr/include/finclude/math-vector-fortran.h
REM seed 272125746 -1005786760 -595166486 44811929 1162114865 -250798053 1795276724 -364691452 1136570288 1068250667 75035745 33511201 1528425434 1961010711 984728900 460446451 2114703124 -227921861 -1128807476 -682847738 162636809 1629463521 1621477316 -1489930391 -2136092922 -519246133 1683034459 -1974743857 388197700 1000447868 532987977 1842747133 542193400
REM
CELL 1.54180   50.00000   50.00000   50.00000   90.00000   90.00000   90.00000
LATT -1
SFAC C  
C      1  0.4191710000000  0.4394060000000  0.5681470000000 1.0
C      1  0.5435130000000  0.5817160000000  0.5293620000000 1.0
C      1  0.4520840000000  0.4674740000000  0.4126490000000 1.0
C      1  0.5465600000000  0.4203590000000  0.4785580000000 1.0
C      1  0.4522770000000  0.5704900000000  0.5560270000000 1.0
C      1  0.5463470000000  0.5320340000000  0.4667060000000 1.0
C      1  0.3901910000000  0.5099300000000  0.4976510000000 1.0
C      1  0.5034120000000  0.6142490000000  0.4849100000000 1.0
C      1  0.5041210000000  0.5658300000000  0.4806430000000 1.0
C      1  0.4627290000000  0.5701260000000  0.4983850000000 1.0
C      1  0.5191260000000  0.4967850000000  0.3984930000000 1.0
C      1  0.5683470000000  0.4124910000000  0.4982710000000 1.0
C      1  0.4881900000000  0.5491410000000  0.5881840000000 1.0
C      1  0.5633780000000  0.4492280000000  0.5653450000000 1.0
C      1  0.5586360000000  0.5230300000000  0.5416810000000 1.0
C      1  0.4520900000000  0.4389760000000  0.4193250000000 1.0
C      1  0.4626160000000  0.5223540000000  0.5486300000000 1.0
C      1  0.5660510000000  0.5668910000000  0.5465660000000 1.0
C      1  0.4757960000000  0.4238410000000  0.4195020000000 1.0
C      1  0.4399200000000  0.6069560000000  0.4806200000000 1.0
C      1  0.4465290000000  0.5081750000000  0.5292760000000 1.0
C      1  0.5888940000000  0.5479590000000  0.4760090000000 1.0
C      1  0.4297410000000  0.4353170000000  0.4389450000000 1.0
C      1  0.5680070000000  0.5492890000000  0.4511080000000 1.0
C      1  0.5224530000000  0.4966920000000  0.4303400000000 1.0
C      1  0.5287120000000  0.4948650000000  0.6127070000000 1.0
C      1  0.4129250000000  0.4747930000000  0.5240150000000 1.0
C      1  0.5213970000000  0.4509790000000  0.5901420000000 1.0
C      1  0.4202490000000  0.4350660000000  0.4917670000000 1.0
C      1  0.5966880000000  0.4696710000000  0.4843230000000 1.0
C      1  0.4398600000000  0.4304590000000  0.4683420000000 1.0
C      1  0.5234860000000  0.5111470000000  0.5144670000000 1.0
C      1  0.4809660000000  0.5203680000000  0.4943270000000 1.0
C      1  0.5383410000000  0.5383780000000  0.3997270000000 1.0
C      1  0.4170940000000  0.5448080000000  0.4638700000000 1.0
C      1  0.5037490000000  0.4246630000000  0.4181650000000 1.0
C      1  0.4454120000000  0.5998890000000  0.5324260000000 1.0
C      1  0.5380990000000  0.4761430000000  0.5903410000000 1.0
C      1  0.4155820000000  0.4650070000000  0.4949150000000 1.0
C      1  0.5217730000000  0.4603950000000  0.4971770000000 1.0
C      1  0.4489560000000  0.5251600000000  0.4203710000000 1.0
C      1  0.5945440000000  0.4217090000000  0.4945130000000 1.0
C      1  0.5933370000000  0.4723900000000  0.4502230000000 1.0
C      1  0.4581970000000  0.5518430000000  0.5814700000000 1.0
C      1  0.4687590000000  0.5973870000000  0.5507970000000 1.0
C      1  0.4381450000000  0.4786930000000  0.5708690000000 1.0
C      1  0.4830900000000  0.6143390000000  0.5062650000000 1.0
C      1  0.5332730000000  0.5582510000000  0.4855340000000 1.0
C      1  0.5638300000000  0.5228800000000  0.4049950000000 1.0
C      1  0.5667970000000  0.5099740000000  0.4762210000000 1.0
C      1  0.4994490000000  0.4926280000000  0.6165790000000 1.0
C      1  0.6034420000000  0.4984330000000  0.4971540000000 1.0
C      1  0.5294470000000  0.4093000000000  0.5622690000000 1.0
C      1  0.4122530000000  0.4578710000000  0.4351300000000 1.0
C      1  0.5117200000000  0.5121360000000  0.5633030000000 1.0
C      1  0.5080520000000  0.5599650000000  0.5688100000000 1.0
C      1  0.5803790000000  0.5326910000000  0.4276560000000 1.0
C      1  0.4747900000000  0.5708920000000  0.4248870000000 1.0
C      1  0.4583420000000  0.4623600000000  0.4560250000000 1.0
C      1  0.4874770000000  0.4948240000000  0.4803070000000 1.0
C      1  0.4565440000000  0.4892210000000  0.5929710000000 1.0
C      1  0.4606560000000  0.5494720000000  0.5374360000000 1.0
C      1  0.4675960000000  0.3964760000000  0.5018900000000 1.0
C      1  0.5456150000000  0.5692490000000  0.4380260000000 1.0
C      1  0.4838630000000  0.5330470000000  0.4467620000000 1.0
C      1  0.5886490000000  0.4805630000000  0.5419420000000 1.0
C      1  0.4274260000000  0.4238760000000  0.5181460000000 1.0
C      1  0.5349670000000  0.5910200000000  0.4554270000000 1.0
C      1  0.5020680000000  0.5216090000000  0.5911960000000 1.0
C      1  0.4686580000000  0.4380500000000  0.5223000000000 1.0
C      1  0.5448870000000  0.5297640000000  0.5173990000000 1.0
C      1  0.4262010000000  0.4782620000000  0.4210500000000 1.0
C      1  0.5312240000000  0.4877880000000  0.5014360000000 1.0
C      1  0.4952750000000  0.5489280000000  0.4228530000000 1.0
C      1  0.5323700000000  0.5559210000000  0.5158760000000 1.0
C      1  0.4638950000000  0.4651640000000  0.5320480000000 1.0
C      1  0.5414920000000  0.4553300000000  0.3953530000000 1.0
C      1  0.4022580000000  0.5222050000000  0.5461220000000 1.0
C      1  0.5355750000000  0.4036670000000  0.5341340000000 1.0
C      1  0.4945430000000  0.4843980000000  0.4346450000000 1.0
C      1  0.4871050000000  0.5423280000000  0.4738150000000 1.0
C      1  0.5508350000000  0.5822330000000  0.4801890000000 1.0
C      1  0.5723760000000  0.5028080000000  0.5833360000000 1.0
C      1  0.4058030000000  0.4977850000000  0.4751960000000 1.0
C      1  0.5755980000000  0.4349720000000  0.5429710000000 1.0
C      1  0.5745320000000  0.4956980000000  0.4512750000000 1.0
C      1  0.5677570000000  0.4949110000000  0.3995760000000 1.0
C      1  0.5782980000000  0.4769620000000  0.5718080000000 1.0
C      1  0.5858200000000  0.5549860000000  0.5282510000000 1.0
C      1  0.5331060000000  0.5237190000000  0.6032890000000 1.0
C      1  0.4143690000000  0.5154080000000  0.5726690000000 1.0
C      1  0.5004240000000  0.4096280000000  0.4665750000000 1.0
C      1  0.6055260000000  0.4462470000000  0.5028620000000 1.0
C      1  0.5566080000000  0.5265860000000  0.5852770000000 1.0
C      1  0.5786540000000  0.4542540000000  0.4300020000000 1.0
C      1  0.4969120000000  0.4682920000000  0.3883910000000 1.0
C      1  0.5674530000000  0.4647210000000  0.4902690000000 1.0
C      1  0.4511530000000  0.5201680000000  0.5014550000000 1.0
C      1  0.5233260000000  0.4444700000000  0.5241650000000 1.0
C      1  0.5184680000000  0.5858790000000  0.5716600000000 1.0
C      1  0.4759640000000  0.5909020000000  0.4471050000000 1.0
C      1  0.4775240000000  0.4836590000000  0.4079390000000 1.0
C      1  0.4559680000000  0.5989470000000  0.5037040000000 1.0
C      1  0.5840070000000  0.5606600000000  0.5005650000000 1.0
C      1  0.4906520000000  0.4594000000000  0.4526260000000 1.0
C      1  0.4879270000000  0.4786890000000  0.5389880000000 1.0
C      1  0.4943470000000  0.4642390000000  0.4825550000000 1.0
C      1  0.5310260000000  0.4857380000000  0.5600210000000 1.0
C      1  0.4932220000000  0.6003390000000  0.5326900000000 1.0
C      1  0.6022810000000  0.5029860000000  0.5264120000000 1.0
C      1  0.4245850000000  0.5086130000000  0.4275220000000 1.0
C      1  0.5209730000000  0.5951680000000  0.5454640000000 1.0
C      1  0.5964550000000  0.5294330000000  0.5370850000000 1.0
C      1  0.4457840000000  0.4376160000000  0.5777350000000 1.0
C      1  0.4462140000000  0.5498880000000  0.5114520000000 1.0
C      1  0.6032430000000  0.5226610000000  0.4801170000000 1.0
C      1  0.4902720000000  0.3857510000000  0.5146050000000 1.0
C      1  0.5562170000000  0.4922400000000  0.5376500000000 1.0
C      1  0.4979360000000  0.5226110000000  0.5190250000000 1.0
C      1  0.4379350000000  0.5000380000000  0.4797660000000 1.0
C      1  0.5159650000000  0.5235200000000  0.3867930000000 1.0
C      1  0.4483870000000  0.4052030000000  0.5209400000000 1.0
C      1  0.5209770000000  0.4077020000000  0.4867020000000 1.0
C      1  0.5954590000000  0.4527800000000  0.5308710000000 1.0
C      1  0.4087440000000  0.5186810000000  0.4519660000000 1.0
C      1  0.4736300000000  0.4325630000000  0.5810080000000 1.0
C      1  0.4490080000000  0.5883740000000  0.4606240000000 1.0
C      1  0.5268670000000  0.5478160000000  0.4259100000000 1.0
C      1  0.5260470000000  0.5378750000000  0.5560060000000 1.0
C      1  0.4854680000000  0.4140020000000  0.5616970000000 1.0
C      1  0.3793400000000  0.5355770000000  0.4934710000000 1.0
C      1  0.4922170000000  0.4545170000000  0.5870490000000 1.0
C      1  0.4516450000000  0.4949800000000  0.4523040000000 1.0
C      1  0.5058520000000  0.3978860000000  0.5724140000000 1.0
C      1  0.4039050000000  0.5485770000000  0.5363700000000 1.0
C      1  0.5333370000000  0.4784390000000  0.3788610000000 1.0
C      1  0.4735200000000  0.4433980000000  0.4932590000000 1.0
C      1  0.4020310000000  0.5517200000000  0.4883780000000 1.0
C      1  0.4378120000000  0.5290860000000  0.5880240000000 1.0
C      1  0.4720230000000  0.4155810000000  0.4787510000000 1.0
C      1  0.4910940000000  0.5713590000000  0.5072470000000 1.0
C      1  0.4457510000000  0.4704860000000  0.4876680000000 1.0
C      1  0.4944000000000  0.4300930000000  0.5366750000000 1.0
C      1  0.5468590000000  0.4158570000000  0.4487530000000 1.0
C      1  0.5170390000000  0.4180310000000  0.4433830000000 1.0
C      1  0.5489890000000  0.5996330000000  0.5042710000000 1.0
C      1  0.4691060000000  0.5132040000000  0.4021540000000 1.0
C      1  0.4812490000000  0.4768160000000  0.6012940000000 1.0
C      1  0.5138090000000  0.4484140000000  0.4043890000000 1.0
C      1  0.5441460000000  0.4498020000000  0.4812630000000 1.0
C      1  0.5145070000000  0.3996470000000  0.5134450000000 1.0
C      1  0.5378770000000  0.4358290000000  0.5719180000000 1.0
C      1  0.4338850000000  0.5647330000000  0.4497630000000 1.0
C      1  0.5623110000000  0.5525080000000  0.5721920000000 1.0
C      1  0.4397330000000  0.4807020000000  0.5386180000000 1.0
C      1  0.3975040000000  0.5008160000000  0.5248210000000 1.0
C      1  0.4800020000000  0.5034350000000  0.4522850000000 1.0
C      1  0.5676410000000  0.4294660000000  0.4361430000000 1.0
C      1  0.5033990000000  0.5918050000000  0.4640230000000 1.0
C      1  0.5113190000000  0.4625580000000  0.5484820000000 1.0
C      1  0.4497160000000  0.5542750000000  0.4276510000000 1.0
C      1  0.5271020000000  0.5235580000000  0.4444420000000 1.0
C      1  0.4170430000000  0.5573890000000  0.5131340000000 1.0
C      1  0.5595820000000  0.4903880000000  0.4994600000000 1.0
C      1  0.5035980000000  0.5509710000000  0.5265200000000 1.0
C      1  0.5288080000000  0.6175460000000  0.4965800000000 1.0
C      1  0.4041680000000  0.4903640000000  0.5844050000000 1.0
C      1  0.4901300000000  0.5335550000000  0.3973780000000 1.0
C      1  0.4886720000000  0.5081580000000  0.5437090000000 1.0
C      1  0.5626170000000  0.4690010000000  0.4105250000000 1.0
C      1  0.4035610000000  0.4622250000000  0.5775860000000 1.0
C      1  0.5558560000000  0.4228510000000  0.5239160000000 1.0
C      1  0.4478410000000  0.5115650000000  0.6075450000000 1.0
C      1  0.5949670000000  0.5091450000000  0.4365760000000 1.0
C      1  0.4142750000000  0.4308030000000  0.5418890000000 1.0
END
