TITL C-950535-5962-346 -1.08453564663805e-06 125000 -361.95141533512 0 0 60 (C1) n - 1
REM
REM in /home/bkarasulu/work/CARBON/AIRSS/Generating-Clusters/EDIP-Nigel-Params/with-SteepDescent/Only-C1/SD-CG/HFTN-CG
REM
REM
REM
REM
REM
REM ./C.cell (11c1c37f851c82e70ff6c80c92926a4b)
REM
REM compiler GCC version 9.2.1 20190827 (Red Hat 9.2.1-1)
REM options -cpp -mtune=generic -march=x86-64 -g -O0 -fpre-include=/usr/include/finclude/math-vector-fortran.h
REM seed 1323336988 460151381 -1193253883 -1175476367 1520512638 1259372483 285559243 -86521803 922618955 -1782984177 1006998429 1626352405 -1872757778 1869449642 408244627 -1116526052 46433653 -1672350913 377851534 456348047 1812645609 -1588187160 -1300100288 -72935502 -1045948121 1697190359 868962800 -233736778 -1737048176 -344266257 -1396339695 -661373043 -533095035
REM
CELL 1.54180   50.00000   50.00000   50.00000   90.00000   90.00000   90.00000
LATT -1
SFAC C  
C      1  0.4524030000000  0.4516030000000  0.4991700000000 1.0
C      1  0.4956230000000  0.4930720000000  0.4262510000000 1.0
C      1  0.4537080000000  0.4749370000000  0.4801570000000 1.0
C      1  0.5444680000000  0.4587620000000  0.5432900000000 1.0
C      1  0.4945210000000  0.5589070000000  0.4842450000000 1.0
C      1  0.5535450000000  0.4941420000000  0.4717220000000 1.0
C      1  0.5335840000000  0.4926450000000  0.4492720000000 1.0
C      1  0.5299990000000  0.4203380000000  0.5108240000000 1.0
C      1  0.5138070000000  0.5777700000000  0.4955460000000 1.0
C      1  0.4699950000000  0.5226380000000  0.5574540000000 1.0
C      1  0.5315760000000  0.4322800000000  0.5364090000000 1.0
C      1  0.4844470000000  0.5397850000000  0.5393660000000 1.0
C      1  0.4545860000000  0.5592030000000  0.5037260000000 1.0
C      1  0.5674600000000  0.4828590000000  0.5142650000000 1.0
C      1  0.5162400000000  0.5116160000000  0.5006690000000 1.0
C      1  0.5450920000000  0.5446080000000  0.4754970000000 1.0
C      1  0.4997120000000  0.4582150000000  0.5207800000000 1.0
C      1  0.5667170000000  0.5124110000000  0.5134230000000 1.0
C      1  0.4264950000000  0.4894120000000  0.4853260000000 1.0
C      1  0.5113930000000  0.4963060000000  0.5514290000000 1.0
C      1  0.5223320000000  0.5396400000000  0.4560400000000 1.0
C      1  0.4628240000000  0.4661900000000  0.4522790000000 1.0
C      1  0.5347000000000  0.5632180000000  0.5315580000000 1.0
C      1  0.4725570000000  0.5631660000000  0.5276050000000 1.0
C      1  0.4735000000000  0.5181580000000  0.4908220000000 1.0
C      1  0.4939980000000  0.4327630000000  0.4779420000000 1.0
C      1  0.5664270000000  0.5278670000000  0.5365510000000 1.0
C      1  0.4561010000000  0.4783130000000  0.5421580000000 1.0
C      1  0.5053640000000  0.5192730000000  0.4205260000000 1.0
C      1  0.4388680000000  0.4645670000000  0.5230590000000 1.0
C      1  0.5275810000000  0.4734120000000  0.5631210000000 1.0
C      1  0.5537530000000  0.4714770000000  0.4904250000000 1.0
C      1  0.4682660000000  0.5694450000000  0.4807930000000 1.0
C      1  0.5409850000000  0.5670100000000  0.4937950000000 1.0
C      1  0.4674290000000  0.4891060000000  0.4343150000000 1.0
C      1  0.5082270000000  0.5733900000000  0.5238770000000 1.0
C      1  0.4832980000000  0.4960720000000  0.5634430000000 1.0
C      1  0.5079610000000  0.4899830000000  0.5225420000000 1.0
C      1  0.4190420000000  0.4818220000000  0.5117920000000 1.0
C      1  0.5473310000000  0.5177280000000  0.4908200000000 1.0
C      1  0.4488470000000  0.5099100000000  0.4349950000000 1.0
C      1  0.5140340000000  0.5114860000000  0.4619850000000 1.0
C      1  0.4799080000000  0.4407380000000  0.5035060000000 1.0
C      1  0.4485780000000  0.5290210000000  0.5001510000000 1.0
C      1  0.5079650000000  0.4540620000000  0.5706010000000 1.0
C      1  0.5237980000000  0.5219320000000  0.5550430000000 1.0
C      1  0.5046240000000  0.4397960000000  0.5461870000000 1.0
C      1  0.4775440000000  0.4897850000000  0.4905170000000 1.0
C      1  0.5429320000000  0.5396290000000  0.5455600000000 1.0
C      1  0.4352310000000  0.5232850000000  0.4538460000000 1.0
C      1  0.4274700000000  0.5191010000000  0.4806520000000 1.0
C      1  0.5160930000000  0.4734030000000  0.4352140000000 1.0
C      1  0.4908120000000  0.4560220000000  0.4575960000000 1.0
C      1  0.5218410000000  0.5401730000000  0.4277290000000 1.0
C      1  0.5245320000000  0.4612730000000  0.4937970000000 1.0
C      1  0.5024320000000  0.4779350000000  0.4768810000000 1.0
C      1  0.5230310000000  0.4320440000000  0.4861990000000 1.0
C      1  0.4491170000000  0.5054000000000  0.5471330000000 1.0
C      1  0.5709120000000  0.4667150000000  0.5373460000000 1.0
C      1  0.4943870000000  0.5341780000000  0.5027790000000 1.0
END
