TITL C-951345-2650-329 -1.25685731219214e-06 125000 -1153.5055635637 0 0 184 (C1) n - 1
REM
REM in /home/bkarasulu/work/CARBON/AIRSS/Generating-Clusters/EDIP-Nigel-Params/with-SteepDescent/Only-C1/SD-CG/HFTN-CG
REM
REM
REM
REM
REM
REM ./C.cell (11c1c37f851c82e70ff6c80c92926a4b)
REM
REM compiler GCC version 9.2.1 20190827 (Red Hat 9.2.1-1)
REM options -cpp -mtune=generic -march=x86-64 -g -O0 -fpre-include=/usr/include/finclude/math-vector-fortran.h
REM seed 1744484755 520398270 869198266 -335756776 -883248529 -1203652254 -1568231669 446839532 734567127 -83435092 1551418582 -732914811 -1780191252 -973324831 404679415 353108842 1419314860 1930586436 -1147979741 1751382297 -281438621 896322550 1997465159 -1135046631 -1403302371 267375551 269901000 640704652 -1737793626 -620367358 1641037040 222160491 -1955648414
REM
CELL 1.54180   50.00000   50.00000   50.00000   90.00000   90.00000   90.00000
LATT -1
SFAC C  
C      1  0.4729500000000  0.5693880000000  0.4963090000000 1.0
C      1  0.4794930000000  0.4721170000000  0.4838840000000 1.0
C      1  0.4520910000000  0.5830290000000  0.4790530000000 1.0
C      1  0.5424550000000  0.4123700000000  0.5576560000000 1.0
C      1  0.4294760000000  0.4309190000000  0.5430130000000 1.0
C      1  0.4656800000000  0.5152150000000  0.4650550000000 1.0
C      1  0.5452300000000  0.5219600000000  0.6109170000000 1.0
C      1  0.5639460000000  0.4547030000000  0.5612370000000 1.0
C      1  0.5949920000000  0.5374840000000  0.5687280000000 1.0
C      1  0.5730270000000  0.5327940000000  0.4420670000000 1.0
C      1  0.4320620000000  0.5045910000000  0.5243520000000 1.0
C      1  0.3981590000000  0.4764440000000  0.5195410000000 1.0
C      1  0.4178280000000  0.5333830000000  0.5636540000000 1.0
C      1  0.5379840000000  0.4606730000000  0.5463520000000 1.0
C      1  0.4930400000000  0.5021630000000  0.3844190000000 1.0
C      1  0.4964250000000  0.5571140000000  0.4074360000000 1.0
C      1  0.4730690000000  0.5340820000000  0.4451840000000 1.0
C      1  0.5597700000000  0.5356360000000  0.4145650000000 1.0
C      1  0.4361180000000  0.4926380000000  0.4001400000000 1.0
C      1  0.5239380000000  0.5873430000000  0.4783040000000 1.0
C      1  0.5780930000000  0.4168400000000  0.4910610000000 1.0
C      1  0.5031650000000  0.5419090000000  0.6183530000000 1.0
C      1  0.4564340000000  0.4706650000000  0.4058400000000 1.0
C      1  0.5924170000000  0.4494000000000  0.4917870000000 1.0
C      1  0.4764850000000  0.4043950000000  0.4528420000000 1.0
C      1  0.4698550000000  0.4249920000000  0.4306200000000 1.0
C      1  0.4951160000000  0.4348840000000  0.4190120000000 1.0
C      1  0.4463090000000  0.5731410000000  0.5654540000000 1.0
C      1  0.6047560000000  0.4725540000000  0.5345050000000 1.0
C      1  0.4392450000000  0.4332670000000  0.4600750000000 1.0
C      1  0.5133280000000  0.4455410000000  0.5016730000000 1.0
C      1  0.5180060000000  0.5381170000000  0.4950360000000 1.0
C      1  0.4942070000000  0.6061330000000  0.5100760000000 1.0
C      1  0.5196320000000  0.4181110000000  0.4217120000000 1.0
C      1  0.5697900000000  0.5661440000000  0.4619020000000 1.0
C      1  0.5484250000000  0.4581090000000  0.4692420000000 1.0
C      1  0.4239580000000  0.5538040000000  0.4231800000000 1.0
C      1  0.5218800000000  0.4884020000000  0.5096200000000 1.0
C      1  0.3931120000000  0.5031880000000  0.4760390000000 1.0
C      1  0.4848920000000  0.5153710000000  0.4255710000000 1.0
C      1  0.3833930000000  0.5510070000000  0.4695620000000 1.0
C      1  0.4432220000000  0.5110660000000  0.3805950000000 1.0
C      1  0.5871870000000  0.4230590000000  0.5404380000000 1.0
C      1  0.5239110000000  0.5363480000000  0.4427060000000 1.0
C      1  0.5323970000000  0.5724190000000  0.5622560000000 1.0
C      1  0.5602860000000  0.5669950000000  0.5552200000000 1.0
C      1  0.4742990000000  0.4940420000000  0.5032570000000 1.0
C      1  0.4443820000000  0.4168140000000  0.5033830000000 1.0
C      1  0.5900850000000  0.5053300000000  0.4416970000000 1.0
C      1  0.4246160000000  0.5226350000000  0.5000150000000 1.0
C      1  0.5289470000000  0.3808720000000  0.4952530000000 1.0
C      1  0.5840130000000  0.4533630000000  0.5379170000000 1.0
C      1  0.4481430000000  0.4430820000000  0.4186320000000 1.0
C      1  0.4097200000000  0.4538520000000  0.5015210000000 1.0
C      1  0.5285370000000  0.6010370000000  0.5706030000000 1.0
C      1  0.5448840000000  0.5112350000000  0.4047540000000 1.0
C      1  0.5025420000000  0.5628060000000  0.4818030000000 1.0
C      1  0.4571080000000  0.5040890000000  0.5742830000000 1.0
C      1  0.5618230000000  0.4574060000000  0.4968970000000 1.0
C      1  0.5327050000000  0.5782290000000  0.4300650000000 1.0
C      1  0.4315160000000  0.5462590000000  0.4517960000000 1.0
C      1  0.5189250000000  0.4548800000000  0.4730140000000 1.0
C      1  0.4773180000000  0.5209990000000  0.4904630000000 1.0
C      1  0.5213070000000  0.5123620000000  0.3872190000000 1.0
C      1  0.4055130000000  0.5283380000000  0.4290780000000 1.0
C      1  0.4098390000000  0.4387950000000  0.4541530000000 1.0
C      1  0.5584470000000  0.4373290000000  0.4491570000000 1.0
C      1  0.4842630000000  0.4715210000000  0.5422560000000 1.0
C      1  0.5576930000000  0.5598110000000  0.5270260000000 1.0
C      1  0.5232680000000  0.4471250000000  0.5849160000000 1.0
C      1  0.4668580000000  0.5831470000000  0.4537990000000 1.0
C      1  0.4025040000000  0.4733520000000  0.5487100000000 1.0
C      1  0.5368220000000  0.4410910000000  0.5195580000000 1.0
C      1  0.5088010000000  0.5317200000000  0.4180880000000 1.0
C      1  0.5483990000000  0.5439020000000  0.4864510000000 1.0
C      1  0.5570030000000  0.4131760000000  0.4693800000000 1.0
C      1  0.5368330000000  0.4680390000000  0.5986020000000 1.0
C      1  0.4563420000000  0.3893610000000  0.4650160000000 1.0
C      1  0.4816110000000  0.4840480000000  0.5695250000000 1.0
C      1  0.4951700000000  0.4932350000000  0.5245670000000 1.0
C      1  0.4143870000000  0.4486630000000  0.5594070000000 1.0
C      1  0.5102660000000  0.4329930000000  0.4553640000000 1.0
C      1  0.4699500000000  0.5499480000000  0.3953310000000 1.0
C      1  0.4288350000000  0.4539400000000  0.5842340000000 1.0
C      1  0.4389960000000  0.4081710000000  0.4760180000000 1.0
C      1  0.5467880000000  0.5286890000000  0.4588360000000 1.0
C      1  0.4689020000000  0.5204680000000  0.3897830000000 1.0
C      1  0.5690340000000  0.5353040000000  0.5117720000000 1.0
C      1  0.4521230000000  0.5380460000000  0.5294100000000 1.0
C      1  0.5409250000000  0.4371000000000  0.4239730000000 1.0
C      1  0.6078350000000  0.5456320000000  0.5430400000000 1.0
C      1  0.5302010000000  0.3978880000000  0.4733840000000 1.0
C      1  0.4454480000000  0.5590530000000  0.4057330000000 1.0
C      1  0.4082020000000  0.4952490000000  0.5688110000000 1.0
C      1  0.6157370000000  0.5207010000000  0.5307470000000 1.0
C      1  0.5839760000000  0.4522750000000  0.4407590000000 1.0
C      1  0.4851330000000  0.4745660000000  0.3931310000000 1.0
C      1  0.5726550000000  0.4074220000000  0.5189330000000 1.0
C      1  0.4106810000000  0.5509580000000  0.5389450000000 1.0
C      1  0.5683650000000  0.5009240000000  0.5801440000000 1.0
C      1  0.4405590000000  0.5477850000000  0.5791730000000 1.0
C      1  0.4996150000000  0.5212450000000  0.5402640000000 1.0
C      1  0.4564920000000  0.4770030000000  0.4446250000000 1.0
C      1  0.5210350000000  0.4946970000000  0.6002300000000 1.0
C      1  0.4656400000000  0.5322510000000  0.5754400000000 1.0
C      1  0.5152450000000  0.5685760000000  0.5376390000000 1.0
C      1  0.5442210000000  0.5814610000000  0.4563340000000 1.0
C      1  0.5186570000000  0.5187260000000  0.6226090000000 1.0
C      1  0.5456920000000  0.5461710000000  0.5955700000000 1.0
C      1  0.4319190000000  0.5078730000000  0.5554270000000 1.0
C      1  0.4880420000000  0.4854330000000  0.4386310000000 1.0
C      1  0.5184640000000  0.4266480000000  0.5661820000000 1.0
C      1  0.5439670000000  0.4120170000000  0.5281980000000 1.0
C      1  0.5179960000000  0.5404590000000  0.5252330000000 1.0
C      1  0.5684220000000  0.5067610000000  0.5293400000000 1.0
C      1  0.4806070000000  0.5828890000000  0.5715310000000 1.0
C      1  0.4606110000000  0.4570090000000  0.5293660000000 1.0
C      1  0.4649540000000  0.4782980000000  0.6142630000000 1.0
C      1  0.5641570000000  0.4717720000000  0.5869010000000 1.0
C      1  0.4759950000000  0.5856400000000  0.5207030000000 1.0
C      1  0.5030480000000  0.6089550000000  0.4746860000000 1.0
C      1  0.4203720000000  0.4402940000000  0.4267920000000 1.0
C      1  0.4579040000000  0.4437040000000  0.5832210000000 1.0
C      1  0.5177640000000  0.5571120000000  0.5998660000000 1.0
C      1  0.4324070000000  0.4709680000000  0.4888890000000 1.0
C      1  0.6025510000000  0.5535990000000  0.5050010000000 1.0
C      1  0.5024600000000  0.5784230000000  0.4284540000000 1.0
C      1  0.5958330000000  0.5075830000000  0.5711270000000 1.0
C      1  0.5677560000000  0.4238990000000  0.5663810000000 1.0
C      1  0.4633370000000  0.5428080000000  0.5028630000000 1.0
C      1  0.4768350000000  0.4644240000000  0.5924890000000 1.0
C      1  0.5189340000000  0.5975130000000  0.5244850000000 1.0
C      1  0.4759150000000  0.5393910000000  0.5480790000000 1.0
C      1  0.4366250000000  0.5192430000000  0.4665630000000 1.0
C      1  0.5969200000000  0.5005060000000  0.5413490000000 1.0
C      1  0.4644450000000  0.4298860000000  0.5572330000000 1.0
C      1  0.5075520000000  0.5005270000000  0.5727230000000 1.0
C      1  0.5064500000000  0.5848020000000  0.5885520000000 1.0
C      1  0.5984580000000  0.4608260000000  0.4641940000000 1.0
C      1  0.4371440000000  0.5637640000000  0.5378970000000 1.0
C      1  0.3915970000000  0.5032930000000  0.5063310000000 1.0
C      1  0.4302300000000  0.4943490000000  0.4484990000000 1.0
C      1  0.5824480000000  0.5712640000000  0.4889040000000 1.0
C      1  0.3924950000000  0.5270700000000  0.4580080000000 1.0
C      1  0.4478600000000  0.4822740000000  0.5135370000000 1.0
C      1  0.5389540000000  0.5960000000000  0.5026100000000 1.0
C      1  0.6049410000000  0.4971200000000  0.4920950000000 1.0
C      1  0.5558760000000  0.4829500000000  0.4564970000000 1.0
C      1  0.4932640000000  0.4190220000000  0.5516570000000 1.0
C      1  0.4098850000000  0.4814250000000  0.4662080000000 1.0
C      1  0.5240080000000  0.3917510000000  0.5204140000000 1.0
C      1  0.4878230000000  0.5600800000000  0.4536150000000 1.0
C      1  0.5523630000000  0.5082790000000  0.5548680000000 1.0
C      1  0.5315690000000  0.4630760000000  0.4134710000000 1.0
C      1  0.4662920000000  0.4363720000000  0.5061400000000 1.0
C      1  0.4244710000000  0.5725900000000  0.4788190000000 1.0
C      1  0.6093280000000  0.4716250000000  0.5061360000000 1.0
C      1  0.3994340000000  0.5616430000000  0.4899390000000 1.0
C      1  0.5466220000000  0.5605560000000  0.4128530000000 1.0
C      1  0.5662950000000  0.5459930000000  0.5731080000000 1.0
C      1  0.5639260000000  0.5823240000000  0.5096790000000 1.0
C      1  0.5244860000000  0.6154600000000  0.5467600000000 1.0
C      1  0.4216460000000  0.4818540000000  0.5931770000000 1.0
C      1  0.5515460000000  0.4819400000000  0.5167390000000 1.0
C      1  0.5009980000000  0.4105630000000  0.4713200000000 1.0
C      1  0.4864420000000  0.6046700000000  0.4511120000000 1.0
C      1  0.5425070000000  0.5034970000000  0.4696660000000 1.0
C      1  0.4466160000000  0.4956050000000  0.6012840000000 1.0
C      1  0.5984100000000  0.4899430000000  0.4654380000000 1.0
C      1  0.5011120000000  0.4648860000000  0.4160640000000 1.0
C      1  0.4018650000000  0.5405160000000  0.5114780000000 1.0
C      1  0.5287940000000  0.4909980000000  0.5532670000000 1.0
C      1  0.3939380000000  0.4477680000000  0.4767600000000 1.0
C      1  0.5797350000000  0.4800600000000  0.4259430000000 1.0
C      1  0.6105530000000  0.5236280000000  0.5025470000000 1.0
C      1  0.4208200000000  0.4287580000000  0.5158000000000 1.0
C      1  0.4857650000000  0.5695360000000  0.5450730000000 1.0
C      1  0.4544470000000  0.4596600000000  0.4703620000000 1.0
C      1  0.5502020000000  0.4853050000000  0.4179850000000 1.0
C      1  0.5019530000000  0.4804980000000  0.4675010000000 1.0
C      1  0.4195560000000  0.5023070000000  0.4227070000000 1.0
C      1  0.4932630000000  0.4237140000000  0.5013660000000 1.0
C      1  0.4976220000000  0.4047710000000  0.5249440000000 1.0
C      1  0.5171280000000  0.5028900000000  0.4839680000000 1.0
END
