TITL C-951336-9012-267 -5.88562322855927e-06 125000 -1055.90223111757 0 0 168 (C1) n - 1
REM
REM in /home/bkarasulu/work/CARBON/AIRSS/Generating-Clusters/EDIP-Nigel-Params/with-SteepDescent/Only-C1/SD-CG/HFTN-CG
REM
REM
REM
REM
REM
REM ./C.cell (11c1c37f851c82e70ff6c80c92926a4b)
REM
REM compiler GCC version 9.2.1 20190827 (Red Hat 9.2.1-1)
REM options -cpp -mtune=generic -march=x86-64 -g -O0 -fpre-include=/usr/include/finclude/math-vector-fortran.h
REM seed -1364619601 -259172337 -2137259619 -1561780383 -722567940 -675374585 -1423332169 842247076 1490341510 -567568839 -1336512099 1610034048 -193457834 161883155 -1691158939 -688617499 836351157 -1325620838 377198693 -70936348 1987804511 2032697594 -1439642814 -102809616 -1206277988 489676455 1514444184 -963358407 -1745950977 133449581 330421228 -142477127 -1090104026
REM
CELL 1.54180   50.00000   50.00000   50.00000   90.00000   90.00000   90.00000
LATT -1
SFAC C  
C      1  0.3892550000000  0.4901510000000  0.5061960000000 1.0
C      1  0.4376160000000  0.4445870000000  0.4236150000000 1.0
C      1  0.5570070000000  0.5834610000000  0.4450890000000 1.0
C      1  0.5421600000000  0.5367080000000  0.5101860000000 1.0
C      1  0.4942320000000  0.5514090000000  0.5986920000000 1.0
C      1  0.5291390000000  0.4545340000000  0.4694320000000 1.0
C      1  0.5190310000000  0.5132550000000  0.6071140000000 1.0
C      1  0.5389430000000  0.4722230000000  0.5868160000000 1.0
C      1  0.5419480000000  0.4348600000000  0.4478280000000 1.0
C      1  0.4320580000000  0.5862030000000  0.5317460000000 1.0
C      1  0.6079130000000  0.5508790000000  0.4592650000000 1.0
C      1  0.5346350000000  0.4463290000000  0.4990200000000 1.0
C      1  0.4082940000000  0.4998890000000  0.4846320000000 1.0
C      1  0.5551440000000  0.4405920000000  0.5503540000000 1.0
C      1  0.4876610000000  0.4075260000000  0.5349660000000 1.0
C      1  0.4977680000000  0.4012680000000  0.4897230000000 1.0
C      1  0.4642790000000  0.5403010000000  0.4691880000000 1.0
C      1  0.4633890000000  0.5221510000000  0.5607200000000 1.0
C      1  0.5373070000000  0.4062110000000  0.4611460000000 1.0
C      1  0.4221680000000  0.4248690000000  0.4966720000000 1.0
C      1  0.5785090000000  0.5067950000000  0.5016980000000 1.0
C      1  0.4523750000000  0.5449360000000  0.5153870000000 1.0
C      1  0.5678580000000  0.5625550000000  0.4303590000000 1.0
C      1  0.5891320000000  0.4653850000000  0.5133840000000 1.0
C      1  0.4218580000000  0.4704630000000  0.5376480000000 1.0
C      1  0.5743020000000  0.5521480000000  0.5431270000000 1.0
C      1  0.4585910000000  0.5708280000000  0.4622480000000 1.0
C      1  0.5829130000000  0.4389370000000  0.4757810000000 1.0
C      1  0.5400110000000  0.5948950000000  0.4888220000000 1.0
C      1  0.5138620000000  0.4838120000000  0.5208840000000 1.0
C      1  0.5604830000000  0.5166360000000  0.4106560000000 1.0
C      1  0.4328590000000  0.5675600000000  0.5072280000000 1.0
C      1  0.4681250000000  0.4056260000000  0.4952680000000 1.0
C      1  0.5259770000000  0.4839920000000  0.5635130000000 1.0
C      1  0.5699870000000  0.4723920000000  0.4433780000000 1.0
C      1  0.5165130000000  0.4065110000000  0.5349540000000 1.0
C      1  0.4350840000000  0.5794800000000  0.4791140000000 1.0
C      1  0.4787080000000  0.5692520000000  0.5836900000000 1.0
C      1  0.5271650000000  0.5758750000000  0.5672370000000 1.0
C      1  0.5402820000000  0.5239820000000  0.4489140000000 1.0
C      1  0.5641130000000  0.4625620000000  0.5709740000000 1.0
C      1  0.5843450000000  0.5172590000000  0.4301040000000 1.0
C      1  0.4006900000000  0.5170350000000  0.5473020000000 1.0
C      1  0.5425020000000  0.4885290000000  0.5199390000000 1.0
C      1  0.4690710000000  0.4137050000000  0.5551560000000 1.0
C      1  0.4922480000000  0.6025940000000  0.5461540000000 1.0
C      1  0.4986160000000  0.5830700000000  0.5674870000000 1.0
C      1  0.4920460000000  0.4873800000000  0.4363740000000 1.0
C      1  0.6056020000000  0.5136450000000  0.5409680000000 1.0
C      1  0.4732130000000  0.4625600000000  0.3962170000000 1.0
C      1  0.5455980000000  0.4051840000000  0.4902150000000 1.0
C      1  0.4295240000000  0.4715090000000  0.4143230000000 1.0
C      1  0.6063520000000  0.4862550000000  0.4673040000000 1.0
C      1  0.4284540000000  0.5172300000000  0.4244710000000 1.0
C      1  0.3992760000000  0.4651020000000  0.5168960000000 1.0
C      1  0.5965120000000  0.5383980000000  0.5297760000000 1.0
C      1  0.5234490000000  0.5411830000000  0.4646170000000 1.0
C      1  0.5901620000000  0.5341220000000  0.5008690000000 1.0
C      1  0.4517730000000  0.5607000000000  0.4322620000000 1.0
C      1  0.4679540000000  0.4932370000000  0.5355420000000 1.0
C      1  0.4518980000000  0.4602870000000  0.4661990000000 1.0
C      1  0.5184770000000  0.4522480000000  0.5982500000000 1.0
C      1  0.5919080000000  0.5464330000000  0.4368100000000 1.0
C      1  0.5062510000000  0.5835540000000  0.4515860000000 1.0
C      1  0.5992680000000  0.4618720000000  0.4850230000000 1.0
C      1  0.5381740000000  0.5868970000000  0.5433570000000 1.0
C      1  0.3840180000000  0.5079350000000  0.5268770000000 1.0
C      1  0.4663800000000  0.4419240000000  0.4154590000000 1.0
C      1  0.5461580000000  0.4995330000000  0.5468500000000 1.0
C      1  0.4626200000000  0.4859650000000  0.4486810000000 1.0
C      1  0.5073960000000  0.4563980000000  0.5140180000000 1.0
C      1  0.5483220000000  0.5448080000000  0.4166600000000 1.0
C      1  0.5015280000000  0.4659430000000  0.3884970000000 1.0
C      1  0.4266650000000  0.5658340000000  0.5535650000000 1.0
C      1  0.5012590000000  0.4491680000000  0.4585730000000 1.0
C      1  0.4925150000000  0.4677660000000  0.5950210000000 1.0
C      1  0.4605930000000  0.5019060000000  0.4744720000000 1.0
C      1  0.5654990000000  0.5244800000000  0.4633820000000 1.0
C      1  0.5106270000000  0.4303210000000  0.5796190000000 1.0
C      1  0.4439230000000  0.4228880000000  0.5418810000000 1.0
C      1  0.4533350000000  0.4006890000000  0.4696010000000 1.0
C      1  0.5194000000000  0.6063550000000  0.5322220000000 1.0
C      1  0.5092680000000  0.5042050000000  0.4096880000000 1.0
C      1  0.5698250000000  0.4446240000000  0.4499530000000 1.0
C      1  0.5637420000000  0.4956940000000  0.4735750000000 1.0
C      1  0.5210960000000  0.4057920000000  0.5060980000000 1.0
C      1  0.5372470000000  0.5501390000000  0.5765460000000 1.0
C      1  0.5741160000000  0.4275820000000  0.5305150000000 1.0
C      1  0.4377340000000  0.4885620000000  0.4900200000000 1.0
C      1  0.4282060000000  0.4162450000000  0.4690640000000 1.0
C      1  0.4174030000000  0.4945710000000  0.5566970000000 1.0
C      1  0.5374910000000  0.5288800000000  0.5413420000000 1.0
C      1  0.5368220000000  0.5029920000000  0.4226370000000 1.0
C      1  0.4033730000000  0.4572940000000  0.4638430000000 1.0
C      1  0.5643090000000  0.5468750000000  0.4905030000000 1.0
C      1  0.4086550000000  0.5486760000000  0.5094720000000 1.0
C      1  0.4992260000000  0.5325120000000  0.4059860000000 1.0
C      1  0.5726840000000  0.4914330000000  0.5603670000000 1.0
C      1  0.4546560000000  0.6036020000000  0.5352800000000 1.0
C      1  0.5979950000000  0.4433740000000  0.5308870000000 1.0
C      1  0.4980470000000  0.4562630000000  0.4316560000000 1.0
C      1  0.4960420000000  0.5536110000000  0.5049240000000 1.0
C      1  0.6213930000000  0.5087310000000  0.4756090000000 1.0
C      1  0.4650640000000  0.5479030000000  0.5422160000000 1.0
C      1  0.5210890000000  0.4460400000000  0.3933230000000 1.0
C      1  0.4869450000000  0.4937670000000  0.4870770000000 1.0
C      1  0.4843030000000  0.5294470000000  0.4484940000000 1.0
C      1  0.4147820000000  0.5413190000000  0.5385550000000 1.0
C      1  0.5181240000000  0.5513620000000  0.4176060000000 1.0
C      1  0.5752870000000  0.5151300000000  0.5768220000000 1.0
C      1  0.5341520000000  0.4844060000000  0.4668330000000 1.0
C      1  0.5624090000000  0.5768810000000  0.5307460000000 1.0
C      1  0.4696610000000  0.4127930000000  0.4482130000000 1.0
C      1  0.5098250000000  0.4917860000000  0.3833770000000 1.0
C      1  0.4023190000000  0.4862060000000  0.4575790000000 1.0
C      1  0.5280410000000  0.4264670000000  0.5549330000000 1.0
C      1  0.4443760000000  0.5247270000000  0.5838010000000 1.0
C      1  0.5637780000000  0.5825080000000  0.5017550000000 1.0
C      1  0.4453900000000  0.4789160000000  0.5188270000000 1.0
C      1  0.5348580000000  0.5921010000000  0.4601340000000 1.0
C      1  0.4730670000000  0.5378430000000  0.4970300000000 1.0
C      1  0.4494850000000  0.4771090000000  0.5926630000000 1.0
C      1  0.4523570000000  0.5139000000000  0.4082740000000 1.0
C      1  0.4334210000000  0.4476290000000  0.5547140000000 1.0
C      1  0.4568510000000  0.4572980000000  0.5710190000000 1.0
C      1  0.4103720000000  0.5479250000000  0.4602910000000 1.0
C      1  0.4080410000000  0.5311180000000  0.4846680000000 1.0
C      1  0.4759810000000  0.5867900000000  0.5252870000000 1.0
C      1  0.4209030000000  0.4911810000000  0.4348010000000 1.0
C      1  0.5086670000000  0.3974370000000  0.4627800000000 1.0
C      1  0.4827960000000  0.5887670000000  0.4684700000000 1.0
C      1  0.4942370000000  0.5531610000000  0.5357330000000 1.0
C      1  0.6129490000000  0.5347910000000  0.4813680000000 1.0
C      1  0.4292410000000  0.4435630000000  0.4534580000000 1.0
C      1  0.4780940000000  0.4841080000000  0.6150520000000 1.0
C      1  0.4792290000000  0.4700100000000  0.5526730000000 1.0
C      1  0.5243590000000  0.4457990000000  0.4210150000000 1.0
C      1  0.5925900000000  0.4893160000000  0.4416820000000 1.0
C      1  0.4078160000000  0.4501140000000  0.4931820000000 1.0
C      1  0.5408150000000  0.4947780000000  0.6053540000000 1.0
C      1  0.5566300000000  0.4643520000000  0.5131050000000 1.0
C      1  0.5199340000000  0.5400660000000  0.5977630000000 1.0
C      1  0.4307000000000  0.5407790000000  0.4405550000000 1.0
C      1  0.5951930000000  0.4941600000000  0.5224020000000 1.0
C      1  0.4526800000000  0.4842060000000  0.3999210000000 1.0
C      1  0.4927960000000  0.5058000000000  0.5206590000000 1.0
C      1  0.4839390000000  0.4625830000000  0.4962760000000 1.0
C      1  0.4589830000000  0.4548610000000  0.5092600000000 1.0
C      1  0.4977210000000  0.4861930000000  0.5709090000000 1.0
C      1  0.5166290000000  0.6047380000000  0.5032790000000 1.0
C      1  0.5192350000000  0.5398330000000  0.4934570000000 1.0
C      1  0.4716860000000  0.5356190000000  0.4193270000000 1.0
C      1  0.4484970000000  0.4263740000000  0.5116400000000 1.0
C      1  0.4806020000000  0.4292330000000  0.5770930000000 1.0
C      1  0.5060250000000  0.5266830000000  0.5434500000000 1.0
C      1  0.5656070000000  0.5415260000000  0.5696510000000 1.0
C      1  0.5069140000000  0.5003570000000  0.4621820000000 1.0
C      1  0.4905880000000  0.5916090000000  0.4974450000000 1.0
C      1  0.4965700000000  0.4446900000000  0.5403730000000 1.0
C      1  0.4109240000000  0.5756870000000  0.4657100000000 1.0
C      1  0.4918940000000  0.3972480000000  0.4402750000000 1.0
C      1  0.4904200000000  0.5093710000000  0.6102570000000 1.0
C      1  0.4323080000000  0.4987020000000  0.5822640000000 1.0
C      1  0.4757330000000  0.4383110000000  0.4676650000000 1.0
C      1  0.5060560000000  0.5538360000000  0.4450140000000 1.0
C      1  0.4918640000000  0.5172690000000  0.5723370000000 1.0
C      1  0.5669910000000  0.4242380000000  0.4989500000000 1.0
C      1  0.4496270000000  0.5616940000000  0.5750720000000 1.0
END
