TITL C-950532-2784-51 -3.92610328924251e-06 125000 -148.668216924939 0 0 26 (C1) n - 1
REM
REM in /home/bkarasulu/work/CARBON/AIRSS/Generating-Clusters/EDIP-Nigel-Params/with-SteepDescent/Only-C1/SD-CG/HFTN-CG
REM
REM
REM
REM
REM
REM ./C.cell (11c1c37f851c82e70ff6c80c92926a4b)
REM
REM compiler GCC version 9.2.1 20190827 (Red Hat 9.2.1-1)
REM options -cpp -mtune=generic -march=x86-64 -g -O0 -fpre-include=/usr/include/finclude/math-vector-fortran.h
REM seed -404321111 690894936 651228169 1797984272 206221368 -151412003 874571153 1828081305 -1791151724 1176442922 -252855090 1257171113 -1590603513 -364455328 2069780395 1000387072 2048502777 1970698853 -947349822 -1340749704 223075415 -791475649 -880579176 -1527680870 -1489462882 -1462747850 -1997671506 1232910473 -1994771394 1239658285 -714859878 1226870672 -1925062625
REM
CELL 1.54180   50.00000   50.00000   50.00000   90.00000   90.00000   90.00000
LATT -1
SFAC C  
C      1  0.4603910000000  0.5428350000000  0.5277030000000 1.0
C      1  0.5037810000000  0.5397610000000  0.4807730000000 1.0
C      1  0.4847370000000  0.5306470000000  0.5256910000000 1.0
C      1  0.5546200000000  0.4800800000000  0.4848360000000 1.0
C      1  0.5184840000000  0.4689270000000  0.5418740000000 1.0
C      1  0.4854490000000  0.4860660000000  0.5686830000000 1.0
C      1  0.4501050000000  0.5327120000000  0.4774650000000 1.0
C      1  0.5052820000000  0.4756960000000  0.5054280000000 1.0
C      1  0.5417270000000  0.4576780000000  0.4751670000000 1.0
C      1  0.5158600000000  0.4813920000000  0.5676080000000 1.0
C      1  0.5317740000000  0.5343420000000  0.4822160000000 1.0
C      1  0.5437520000000  0.5233530000000  0.5045530000000 1.0
C      1  0.4987560000000  0.4629110000000  0.4577780000000 1.0
C      1  0.4928140000000  0.4644300000000  0.5304830000000 1.0
C      1  0.4880070000000  0.4893220000000  0.4630120000000 1.0
C      1  0.5029210000000  0.4941420000000  0.5895400000000 1.0
C      1  0.4867570000000  0.4942480000000  0.4913850000000 1.0
C      1  0.4848710000000  0.5235160000000  0.4971910000000 1.0
C      1  0.4726570000000  0.4777350000000  0.5448630000000 1.0
C      1  0.5584140000000  0.5070410000000  0.4877200000000 1.0
C      1  0.4703550000000  0.5025590000000  0.4457770000000 1.0
C      1  0.4486350000000  0.5426010000000  0.5030190000000 1.0
C      1  0.4684930000000  0.5287970000000  0.4561210000000 1.0
C      1  0.5124920000000  0.4536790000000  0.4852030000000 1.0
C      1  0.4918010000000  0.5449570000000  0.4561150000000 1.0
C      1  0.5270670000000  0.4605720000000  0.4497990000000 1.0
END
