TITL C-951333-8791-411 -6.75086297846243e-06 125000 -1123.19749106506 0 0 181 (C1) n - 1
REM
REM in /home/bkarasulu/work/CARBON/AIRSS/Generating-Clusters/EDIP-Nigel-Params/with-SteepDescent/Only-C1/SD-CG/HFTN-CG
REM
REM
REM
REM
REM
REM ./C.cell (11c1c37f851c82e70ff6c80c92926a4b)
REM
REM compiler GCC version 9.2.1 20190827 (Red Hat 9.2.1-1)
REM options -cpp -mtune=generic -march=x86-64 -g -O0 -fpre-include=/usr/include/finclude/math-vector-fortran.h
REM seed -1338065461 -507216329 -652226342 -626549962 461538942 -313584731 -1842091603 -2038743703 -1395045097 -2021297314 -1832086576 172873258 1205279731 1012084653 -553007249 2058584967 1932252430 1278308396 1688033370 -1606372540 939256872 880100129 -542983311 276755949 1269138634 -927599352 -579908698 -1520292279 -1960453180 -2053301175 1518125854 -1854332661 -2006684289
REM
CELL 1.54180   50.00000   50.00000   50.00000   90.00000   90.00000   90.00000
LATT -1
SFAC C  
C      1  0.5495080000000  0.4705070000000  0.5474400000000 1.0
C      1  0.5937970000000  0.4838420000000  0.4492860000000 1.0
C      1  0.4169680000000  0.4261020000000  0.4756960000000 1.0
C      1  0.4234530000000  0.4627840000000  0.5571870000000 1.0
C      1  0.5357510000000  0.5519260000000  0.5869390000000 1.0
C      1  0.6113890000000  0.4624060000000  0.4927700000000 1.0
C      1  0.5201210000000  0.4426880000000  0.4043570000000 1.0
C      1  0.5231260000000  0.5276350000000  0.5308500000000 1.0
C      1  0.4882670000000  0.5665380000000  0.4115110000000 1.0
C      1  0.5224170000000  0.4469950000000  0.5063570000000 1.0
C      1  0.5159600000000  0.5475950000000  0.5089550000000 1.0
C      1  0.4383400000000  0.5082590000000  0.5592760000000 1.0
C      1  0.4524760000000  0.4479470000000  0.4842240000000 1.0
C      1  0.6120960000000  0.4559180000000  0.5309660000000 1.0
C      1  0.4740800000000  0.4971780000000  0.4409890000000 1.0
C      1  0.4072640000000  0.5371050000000  0.4673160000000 1.0
C      1  0.4180130000000  0.5159830000000  0.4271800000000 1.0
C      1  0.4242610000000  0.4301840000000  0.4471670000000 1.0
C      1  0.4179110000000  0.5598940000000  0.4809020000000 1.0
C      1  0.5789390000000  0.5366970000000  0.4440890000000 1.0
C      1  0.5094840000000  0.5348450000000  0.5560060000000 1.0
C      1  0.4946390000000  0.4632100000000  0.4634360000000 1.0
C      1  0.4940160000000  0.4789710000000  0.3891500000000 1.0
C      1  0.4685150000000  0.5619970000000  0.4991900000000 1.0
C      1  0.4613490000000  0.4627800000000  0.5129060000000 1.0
C      1  0.5666240000000  0.4751720000000  0.5931750000000 1.0
C      1  0.4991810000000  0.5975550000000  0.4706070000000 1.0
C      1  0.4317090000000  0.5226260000000  0.5152630000000 1.0
C      1  0.4861320000000  0.4825630000000  0.5525870000000 1.0
C      1  0.3988070000000  0.4956970000000  0.4265420000000 1.0
C      1  0.4232750000000  0.4662950000000  0.4588070000000 1.0
C      1  0.4993770000000  0.6061140000000  0.5467410000000 1.0
C      1  0.3903970000000  0.5268310000000  0.5386240000000 1.0
C      1  0.3928720000000  0.4814030000000  0.5193920000000 1.0
C      1  0.4477130000000  0.5883020000000  0.5282040000000 1.0
C      1  0.4287880000000  0.5211000000000  0.4541990000000 1.0
C      1  0.5361800000000  0.5076140000000  0.6159430000000 1.0
C      1  0.4885290000000  0.5773530000000  0.5836840000000 1.0
C      1  0.4884720000000  0.4755790000000  0.5085360000000 1.0
C      1  0.5669570000000  0.5042530000000  0.5822700000000 1.0
C      1  0.5733930000000  0.5183950000000  0.4909320000000 1.0
C      1  0.5617210000000  0.5360820000000  0.4198000000000 1.0
C      1  0.4512040000000  0.4047400000000  0.5205660000000 1.0
C      1  0.4654900000000  0.5787590000000  0.5522120000000 1.0
C      1  0.5189790000000  0.5144330000000  0.5761000000000 1.0
C      1  0.4814680000000  0.5388390000000  0.5463840000000 1.0
C      1  0.6122700000000  0.4688370000000  0.4652050000000 1.0
C      1  0.4421800000000  0.4180120000000  0.5446590000000 1.0
C      1  0.4399570000000  0.5572170000000  0.4139300000000 1.0
C      1  0.5942530000000  0.5128200000000  0.5741850000000 1.0
C      1  0.4584750000000  0.5040370000000  0.3989640000000 1.0
C      1  0.5837880000000  0.4668320000000  0.4988060000000 1.0
C      1  0.5940250000000  0.5380660000000  0.5615930000000 1.0
C      1  0.4387890000000  0.4391110000000  0.5634900000000 1.0
C      1  0.4559880000000  0.5061810000000  0.5167360000000 1.0
C      1  0.4772950000000  0.6020030000000  0.4540680000000 1.0
C      1  0.5494490000000  0.5809060000000  0.4292040000000 1.0
C      1  0.4573730000000  0.5314020000000  0.5682960000000 1.0
C      1  0.4054820000000  0.4461080000000  0.4938110000000 1.0
C      1  0.4724190000000  0.5369290000000  0.4825760000000 1.0
C      1  0.5095060000000  0.5153660000000  0.6172780000000 1.0
C      1  0.5616130000000  0.4446270000000  0.4571020000000 1.0
C      1  0.5444910000000  0.4911010000000  0.4500730000000 1.0
C      1  0.4888910000000  0.6027060000000  0.5717380000000 1.0
C      1  0.5572840000000  0.5114370000000  0.4050600000000 1.0
C      1  0.5067730000000  0.5575440000000  0.5940100000000 1.0
C      1  0.3876030000000  0.4695590000000  0.4936530000000 1.0
C      1  0.4853770000000  0.5052400000000  0.3903220000000 1.0
C      1  0.5602200000000  0.5824790000000  0.4552520000000 1.0
C      1  0.4572250000000  0.4014210000000  0.4663470000000 1.0
C      1  0.4745510000000  0.4383150000000  0.5274060000000 1.0
C      1  0.3835340000000  0.4875490000000  0.4714420000000 1.0
C      1  0.4523310000000  0.4748700000000  0.5919350000000 1.0
C      1  0.5403970000000  0.4787050000000  0.6077940000000 1.0
C      1  0.4575940000000  0.5381980000000  0.4536590000000 1.0
C      1  0.4509150000000  0.4599080000000  0.4321620000000 1.0
C      1  0.5284030000000  0.4046140000000  0.5344630000000 1.0
C      1  0.5500110000000  0.5331650000000  0.4760190000000 1.0
C      1  0.5036990000000  0.5325880000000  0.4850620000000 1.0
C      1  0.4038460000000  0.4605390000000  0.5358160000000 1.0
C      1  0.5078220000000  0.5261640000000  0.4394660000000 1.0
C      1  0.4345750000000  0.5596730000000  0.5274010000000 1.0
C      1  0.5649940000000  0.4540340000000  0.5694560000000 1.0
C      1  0.4794920000000  0.3946790000000  0.5231600000000 1.0
C      1  0.5739490000000  0.5709050000000  0.5551760000000 1.0
C      1  0.4802400000000  0.5202540000000  0.5226710000000 1.0
C      1  0.4156630000000  0.5033410000000  0.4978570000000 1.0
C      1  0.4785470000000  0.4275640000000  0.4946250000000 1.0
C      1  0.4503790000000  0.6049950000000  0.5054140000000 1.0
C      1  0.5868580000000  0.5604520000000  0.4902100000000 1.0
C      1  0.5462910000000  0.5012760000000  0.5600470000000 1.0
C      1  0.4846030000000  0.3937700000000  0.4709060000000 1.0
C      1  0.3890470000000  0.5386880000000  0.5126120000000 1.0
C      1  0.4330800000000  0.4949660000000  0.4725030000000 1.0
C      1  0.5263420000000  0.4230380000000  0.5913280000000 1.0
C      1  0.5230410000000  0.5005220000000  0.4304100000000 1.0
C      1  0.4775720000000  0.5266150000000  0.4324910000000 1.0
C      1  0.4896310000000  0.3874350000000  0.4978640000000 1.0
C      1  0.4590910000000  0.5870560000000  0.4847750000000 1.0
C      1  0.6100930000000  0.5188570000000  0.4776930000000 1.0
C      1  0.4668170000000  0.5467230000000  0.4053910000000 1.0
C      1  0.5750820000000  0.4801380000000  0.5243860000000 1.0
C      1  0.5432390000000  0.5572710000000  0.4957990000000 1.0
C      1  0.4932100000000  0.5349360000000  0.6060210000000 1.0
C      1  0.5258230000000  0.6009210000000  0.5062610000000 1.0
C      1  0.5366230000000  0.4292800000000  0.4486430000000 1.0
C      1  0.5500830000000  0.5910840000000  0.5237940000000 1.0
C      1  0.5187060000000  0.4436830000000  0.4321480000000 1.0
C      1  0.4742760000000  0.4952780000000  0.5986210000000 1.0
C      1  0.5077150000000  0.4437930000000  0.5946950000000 1.0
C      1  0.5034280000000  0.4389230000000  0.4825660000000 1.0
C      1  0.4877190000000  0.4380790000000  0.5747340000000 1.0
C      1  0.6083040000000  0.4936510000000  0.5603900000000 1.0
C      1  0.5663560000000  0.4713480000000  0.4415340000000 1.0
C      1  0.4907520000000  0.4858170000000  0.4826580000000 1.0
C      1  0.4941860000000  0.4530190000000  0.5482080000000 1.0
C      1  0.4444880000000  0.5577160000000  0.5602900000000 1.0
C      1  0.6033520000000  0.4831680000000  0.5353370000000 1.0
C      1  0.4764560000000  0.5777080000000  0.4380250000000 1.0
C      1  0.4642040000000  0.4148340000000  0.4185470000000 1.0
C      1  0.5181590000000  0.5431300000000  0.4616160000000 1.0
C      1  0.5656140000000  0.4682680000000  0.4112060000000 1.0
C      1  0.5226470000000  0.4561350000000  0.5362290000000 1.0
C      1  0.4093870000000  0.5604330000000  0.5091390000000 1.0
C      1  0.5358450000000  0.4166290000000  0.5076580000000 1.0
C      1  0.3973260000000  0.4779120000000  0.4481400000000 1.0
C      1  0.3928440000000  0.5206240000000  0.4871970000000 1.0
C      1  0.5320420000000  0.5067480000000  0.3934060000000 1.0
C      1  0.4986550000000  0.4969620000000  0.5281990000000 1.0
C      1  0.5797350000000  0.5616040000000  0.4612440000000 1.0
C      1  0.5731270000000  0.5750300000000  0.5130530000000 1.0
C      1  0.4286550000000  0.4851110000000  0.5763040000000 1.0
C      1  0.4394760000000  0.4094920000000  0.4889350000000 1.0
C      1  0.4679400000000  0.4420590000000  0.4132160000000 1.0
C      1  0.4933340000000  0.4100650000000  0.5695510000000 1.0
C      1  0.5722720000000  0.5429020000000  0.5436500000000 1.0
C      1  0.5518690000000  0.4123850000000  0.5514090000000 1.0
C      1  0.4648390000000  0.4993980000000  0.4736970000000 1.0
C      1  0.4925590000000  0.4522800000000  0.3973960000000 1.0
C      1  0.5500240000000  0.4275000000000  0.5761870000000 1.0
C      1  0.4908190000000  0.5651420000000  0.5196260000000 1.0
C      1  0.5390150000000  0.5803500000000  0.4763420000000 1.0
C      1  0.4985490000000  0.4909100000000  0.5804270000000 1.0
C      1  0.5140980000000  0.5518600000000  0.4043600000000 1.0
C      1  0.5176340000000  0.4700010000000  0.5908710000000 1.0
C      1  0.5505160000000  0.5748240000000  0.5743900000000 1.0
C      1  0.4483280000000  0.4141300000000  0.4418480000000 1.0
C      1  0.4996710000000  0.4049540000000  0.5423840000000 1.0
C      1  0.6053080000000  0.5396600000000  0.4960980000000 1.0
C      1  0.5011810000000  0.5936320000000  0.5220060000000 1.0
C      1  0.5432610000000  0.4572950000000  0.3976200000000 1.0
C      1  0.5399170000000  0.4951070000000  0.4797530000000 1.0
C      1  0.5122440000000  0.5045190000000  0.4848180000000 1.0
C      1  0.4189710000000  0.5388230000000  0.4111110000000 1.0
C      1  0.4365270000000  0.5779720000000  0.4669860000000 1.0
C      1  0.5015500000000  0.4781630000000  0.4317530000000 1.0
C      1  0.4499390000000  0.5652740000000  0.4425970000000 1.0
C      1  0.4594500000000  0.4464420000000  0.5826850000000 1.0
C      1  0.4659810000000  0.4571960000000  0.4591100000000 1.0
C      1  0.5637220000000  0.4488820000000  0.4877130000000 1.0
C      1  0.5158760000000  0.6169290000000  0.4830610000000 1.0
C      1  0.5401220000000  0.4660130000000  0.4925640000000 1.0
C      1  0.5419790000000  0.5575620000000  0.4157030000000 1.0
C      1  0.5309520000000  0.3986270000000  0.4855800000000 1.0
C      1  0.4672060000000  0.5245350000000  0.5966600000000 1.0
C      1  0.4069220000000  0.4371810000000  0.5205300000000 1.0
C      1  0.5142450000000  0.5740800000000  0.4611910000000 1.0
C      1  0.5522540000000  0.5207550000000  0.5369570000000 1.0
C      1  0.5640320000000  0.5054430000000  0.5154010000000 1.0
C      1  0.5639720000000  0.4241870000000  0.5062080000000 1.0
C      1  0.5167260000000  0.4156800000000  0.4675540000000 1.0
C      1  0.4179020000000  0.5206990000000  0.5410250000000 1.0
C      1  0.4529020000000  0.4891780000000  0.4229970000000 1.0
C      1  0.5088690000000  0.5231560000000  0.3954680000000 1.0
C      1  0.5407300000000  0.5904230000000  0.5515020000000 1.0
C      1  0.5730840000000  0.4238360000000  0.5345340000000 1.0
C      1  0.5957210000000  0.5134450000000  0.4534540000000 1.0
C      1  0.4555200000000  0.4887850000000  0.5417670000000 1.0
C      1  0.5920480000000  0.4421690000000  0.5477500000000 1.0
C      1  0.5516720000000  0.5261320000000  0.5988070000000 1.0
C      1  0.5766960000000  0.4916440000000  0.4004150000000 1.0
END
