TITL C-950526-5686-227 -1.63919418941885e-06 125000 -308.603097859713 0 0 52 (C1) n - 1
REM
REM in /home/bkarasulu/work/CARBON/AIRSS/Generating-Clusters/EDIP-Nigel-Params/with-SteepDescent/Only-C1/SD-CG/HFTN-CG
REM
REM
REM
REM
REM
REM ./C.cell (11c1c37f851c82e70ff6c80c92926a4b)
REM
REM compiler GCC version 9.2.1 20190827 (Red Hat 9.2.1-1)
REM options -cpp -mtune=generic -march=x86-64 -g -O0 -fpre-include=/usr/include/finclude/math-vector-fortran.h
REM seed -1574107123 -198965180 551951092 2111896649 -1628561529 125644887 1336152092 646049355 1136744790 309467366 1721387054 -456642954 1274708204 -416977220 582486353 -1159966365 -1422413824 -2095713848 248406363 -1144123509 -1614235043 -2061575464 -870046984 1732754961 -1637157335 -113474373 2007732533 1443246593 1346481562 -515094364 649469403 -803292818 -1673574240
REM
CELL 1.54180   50.00000   50.00000   50.00000   90.00000   90.00000   90.00000
LATT -1
SFAC C  
C      1  0.4918980000000  0.5195680000000  0.5608490000000 1.0
C      1  0.4886630000000  0.5673580000000  0.4667260000000 1.0
C      1  0.5244640000000  0.4564110000000  0.5350280000000 1.0
C      1  0.5050290000000  0.5258130000000  0.4347010000000 1.0
C      1  0.4810210000000  0.5700850000000  0.4941460000000 1.0
C      1  0.4561690000000  0.4727470000000  0.5603470000000 1.0
C      1  0.4734430000000  0.5525190000000  0.5372890000000 1.0
C      1  0.5154980000000  0.5585520000000  0.4687800000000 1.0
C      1  0.5048320000000  0.5765000000000  0.5116150000000 1.0
C      1  0.4824150000000  0.4402310000000  0.4639310000000 1.0
C      1  0.4656940000000  0.5014530000000  0.4406490000000 1.0
C      1  0.5029510000000  0.4975850000000  0.5442340000000 1.0
C      1  0.5501280000000  0.4843490000000  0.5567660000000 1.0
C      1  0.5249010000000  0.5362050000000  0.4515400000000 1.0
C      1  0.4642800000000  0.5286430000000  0.5520990000000 1.0
C      1  0.4430410000000  0.4627260000000  0.4884160000000 1.0
C      1  0.4948870000000  0.4217290000000  0.4886490000000 1.0
C      1  0.4848710000000  0.4831810000000  0.5247640000000 1.0
C      1  0.5774550000000  0.4905270000000  0.4867620000000 1.0
C      1  0.5222120000000  0.4781920000000  0.5548010000000 1.0
C      1  0.5089410000000  0.5422730000000  0.5648170000000 1.0
C      1  0.5470000000000  0.5352480000000  0.5148130000000 1.0
C      1  0.5046970000000  0.4511240000000  0.4452940000000 1.0
C      1  0.5271090000000  0.4358280000000  0.4546360000000 1.0
C      1  0.4692570000000  0.4632850000000  0.4756140000000 1.0
C      1  0.5370440000000  0.4887240000000  0.4465880000000 1.0
C      1  0.5001370000000  0.4575040000000  0.5176340000000 1.0
C      1  0.5216050000000  0.4355510000000  0.4826130000000 1.0
C      1  0.4442090000000  0.4575660000000  0.5173170000000 1.0
C      1  0.4842060000000  0.4970540000000  0.4970700000000 1.0
C      1  0.4468760000000  0.5114930000000  0.5335160000000 1.0
C      1  0.4560230000000  0.4808450000000  0.5343550000000 1.0
C      1  0.5605950000000  0.4891920000000  0.5098820000000 1.0
C      1  0.4730270000000  0.5440050000000  0.5087130000000 1.0
C      1  0.5414990000000  0.5135330000000  0.4605140000000 1.0
C      1  0.4311420000000  0.4879540000000  0.4837620000000 1.0
C      1  0.5679640000000  0.5162620000000  0.5142840000000 1.0
C      1  0.5589880000000  0.4713770000000  0.5323850000000 1.0
C      1  0.4471750000000  0.5270270000000  0.5071340000000 1.0
C      1  0.5059150000000  0.4640270000000  0.4877460000000 1.0
C      1  0.5517160000000  0.5605590000000  0.5044030000000 1.0
C      1  0.5095540000000  0.4802900000000  0.4468430000000 1.0
C      1  0.4578590000000  0.4332420000000  0.5204080000000 1.0
C      1  0.4493340000000  0.5121610000000  0.4597990000000 1.0
C      1  0.4955020000000  0.5237890000000  0.5023540000000 1.0
C      1  0.4853950000000  0.4310200000000  0.5159130000000 1.0
C      1  0.5208450000000  0.5251610000000  0.5145210000000 1.0
C      1  0.5685540000000  0.5035140000000  0.4632920000000 1.0
C      1  0.4540060000000  0.5058500000000  0.4878660000000 1.0
C      1  0.4926310000000  0.5007450000000  0.4349880000000 1.0
C      1  0.5271220000000  0.5690700000000  0.4938850000000 1.0
C      1  0.5002180000000  0.5603520000000  0.5449490000000 1.0
END
