TITL C-951340-9809-676 -3.78494447667771e-06 125000 -594.123712388708 0 0 97 (C1) n - 1
REM
REM in /home/bkarasulu/work/CARBON/AIRSS/Generating-Clusters/EDIP-Nigel-Params/with-SteepDescent/Only-C1/SD-CG/HFTN-CG
REM
REM
REM
REM
REM
REM ./C.cell (11c1c37f851c82e70ff6c80c92926a4b)
REM
REM compiler GCC version 9.2.1 20190827 (Red Hat 9.2.1-1)
REM options -cpp -mtune=generic -march=x86-64 -g -O0 -fpre-include=/usr/include/finclude/math-vector-fortran.h
REM seed -1434314957 -1682011733 -1000430568 -66437528 -1068742018 565947273 462905159 -1440777390 235076408 -655183695 583376421 -1172204644 1055616091 -1918201013 1834910985 -1712968350 -1225397080 -2095557910 1107367551 1338511801 1933390308 878382491 544777957 -558883414 -771933328 -1214242324 445450904 -872994997 1653971864 -512152459 -158929732 620504160 -622737393
REM
CELL 1.54180   50.00000   50.00000   50.00000   90.00000   90.00000   90.00000
LATT -1
SFAC C  
C      1  0.5133470000000  0.4457170000000  0.4254290000000 1.0
C      1  0.4515310000000  0.5480140000000  0.4803810000000 1.0
C      1  0.4169200000000  0.4546190000000  0.4966190000000 1.0
C      1  0.4707290000000  0.4700940000000  0.4191250000000 1.0
C      1  0.5204800000000  0.5828030000000  0.4771550000000 1.0
C      1  0.4220780000000  0.5447720000000  0.4781210000000 1.0
C      1  0.5350060000000  0.5491030000000  0.5051580000000 1.0
C      1  0.4512420000000  0.5580720000000  0.5267510000000 1.0
C      1  0.5740460000000  0.4907760000000  0.4856110000000 1.0
C      1  0.4291060000000  0.4875520000000  0.5273210000000 1.0
C      1  0.4936770000000  0.5416800000000  0.4682280000000 1.0
C      1  0.4777860000000  0.4332760000000  0.4591690000000 1.0
C      1  0.5279530000000  0.5111780000000  0.4595850000000 1.0
C      1  0.4894920000000  0.5728340000000  0.4987930000000 1.0
C      1  0.5800020000000  0.5389720000000  0.5367620000000 1.0
C      1  0.5042320000000  0.4805050000000  0.5021810000000 1.0
C      1  0.4823180000000  0.4195020000000  0.5087030000000 1.0
C      1  0.4858410000000  0.4466590000000  0.4325520000000 1.0
C      1  0.5664720000000  0.5313850000000  0.4547170000000 1.0
C      1  0.4215900000000  0.5007110000000  0.4520180000000 1.0
C      1  0.4304030000000  0.5376970000000  0.5212080000000 1.0
C      1  0.4621720000000  0.5574600000000  0.4539500000000 1.0
C      1  0.4926700000000  0.4886620000000  0.4097210000000 1.0
C      1  0.5026240000000  0.5664200000000  0.5403560000000 1.0
C      1  0.5022990000000  0.5447730000000  0.4977610000000 1.0
C      1  0.5341410000000  0.4402070000000  0.5629800000000 1.0
C      1  0.5261970000000  0.5668570000000  0.4536430000000 1.0
C      1  0.4541760000000  0.4250860000000  0.5133260000000 1.0
C      1  0.4587640000000  0.4779410000000  0.5253070000000 1.0
C      1  0.5799190000000  0.5138440000000  0.5540300000000 1.0
C      1  0.5849930000000  0.4856540000000  0.4599800000000 1.0
C      1  0.5804510000000  0.4926070000000  0.5335970000000 1.0
C      1  0.5258780000000  0.4557340000000  0.4680320000000 1.0
C      1  0.4941410000000  0.4221340000000  0.4820330000000 1.0
C      1  0.4412010000000  0.5161280000000  0.5634630000000 1.0
C      1  0.4817880000000  0.4900000000000  0.5682940000000 1.0
C      1  0.4194160000000  0.4823820000000  0.4994830000000 1.0
C      1  0.5380460000000  0.4324090000000  0.5084330000000 1.0
C      1  0.4396080000000  0.4386030000000  0.4923080000000 1.0
C      1  0.4991720000000  0.4098050000000  0.5296090000000 1.0
C      1  0.5378180000000  0.5382870000000  0.4456150000000 1.0
C      1  0.4593390000000  0.5693200000000  0.5008180000000 1.0
C      1  0.4850860000000  0.4996620000000  0.4464270000000 1.0
C      1  0.4659930000000  0.5140540000000  0.5752110000000 1.0
C      1  0.4097540000000  0.5435570000000  0.5029510000000 1.0
C      1  0.5548760000000  0.5116850000000  0.5710940000000 1.0
C      1  0.4767210000000  0.4859850000000  0.4911670000000 1.0
C      1  0.5122900000000  0.4520980000000  0.5800020000000 1.0
C      1  0.5154880000000  0.4811890000000  0.5824840000000 1.0
C      1  0.5440540000000  0.5011480000000  0.4836990000000 1.0
C      1  0.5455910000000  0.4836190000000  0.5801330000000 1.0
C      1  0.4423800000000  0.4952440000000  0.4285440000000 1.0
C      1  0.5407260000000  0.4866070000000  0.4323560000000 1.0
C      1  0.5604470000000  0.5364140000000  0.4879930000000 1.0
C      1  0.5321940000000  0.5201160000000  0.5530720000000 1.0
C      1  0.5305300000000  0.4750290000000  0.4902390000000 1.0
C      1  0.4274940000000  0.5150300000000  0.5394190000000 1.0
C      1  0.4748520000000  0.4773050000000  0.4626290000000 1.0
C      1  0.5893570000000  0.5040260000000  0.5073260000000 1.0
C      1  0.5016920000000  0.5650110000000  0.4387480000000 1.0
C      1  0.5544630000000  0.4617150000000  0.5608130000000 1.0
C      1  0.5112240000000  0.5321440000000  0.5722430000000 1.0
C      1  0.5507790000000  0.4596780000000  0.5077090000000 1.0
C      1  0.4846150000000  0.5246170000000  0.5168750000000 1.0
C      1  0.5543860000000  0.4764970000000  0.5343850000000 1.0
C      1  0.4368720000000  0.4942410000000  0.4780750000000 1.0
C      1  0.5333680000000  0.4585360000000  0.4402310000000 1.0
C      1  0.4466570000000  0.4595790000000  0.5482480000000 1.0
C      1  0.4870360000000  0.4448590000000  0.5667890000000 1.0
C      1  0.4615720000000  0.5151170000000  0.4400590000000 1.0
C      1  0.5409740000000  0.5450140000000  0.5356330000000 1.0
C      1  0.5244890000000  0.4254240000000  0.5343970000000 1.0
C      1  0.5631320000000  0.5607460000000  0.5451740000000 1.0
C      1  0.4655900000000  0.5416400000000  0.4303300000000 1.0
C      1  0.5136720000000  0.5604380000000  0.5661770000000 1.0
C      1  0.5231870000000  0.4292680000000  0.4816230000000 1.0
C      1  0.4460510000000  0.4322120000000  0.5390780000000 1.0
C      1  0.4493310000000  0.4383670000000  0.4650240000000 1.0
C      1  0.5001690000000  0.5138570000000  0.4657180000000 1.0
C      1  0.4641880000000  0.5184300000000  0.4907080000000 1.0
C      1  0.5836100000000  0.5325860000000  0.5071510000000 1.0
C      1  0.4777440000000  0.5472490000000  0.5366820000000 1.0
C      1  0.4813380000000  0.5378980000000  0.5672290000000 1.0
C      1  0.5750870000000  0.4623400000000  0.4899030000000 1.0
C      1  0.4985250000000  0.4474530000000  0.5385530000000 1.0
C      1  0.4657570000000  0.4644840000000  0.5710830000000 1.0
C      1  0.5329750000000  0.5789670000000  0.5023960000000 1.0
C      1  0.5298640000000  0.4942630000000  0.5359650000000 1.0
C      1  0.5683340000000  0.5024610000000  0.4431400000000 1.0
C      1  0.4483160000000  0.4660170000000  0.4539920000000 1.0
C      1  0.5049580000000  0.4788830000000  0.5302220000000 1.0
C      1  0.4142490000000  0.5268440000000  0.4582720000000 1.0
C      1  0.5237020000000  0.5299650000000  0.4187170000000 1.0
C      1  0.4813820000000  0.4948880000000  0.5377220000000 1.0
C      1  0.5004540000000  0.5471240000000  0.4163730000000 1.0
C      1  0.5185340000000  0.5009220000000  0.4176140000000 1.0
C      1  0.5148270000000  0.5872670000000  0.5238800000000 1.0
END
