TITL C-951343-2256-177 -3.50453117423862e-07 125000 -929.239180590541 0 0 146 (C1) n - 1
REM
REM in /home/bkarasulu/work/CARBON/AIRSS/Generating-Clusters/EDIP-Nigel-Params/with-SteepDescent/Only-C1/SD-CG/HFTN-CG
REM
REM
REM
REM
REM
REM ./C.cell (11c1c37f851c82e70ff6c80c92926a4b)
REM
REM compiler GCC version 9.2.1 20190827 (Red Hat 9.2.1-1)
REM options -cpp -mtune=generic -march=x86-64 -g -O0 -fpre-include=/usr/include/finclude/math-vector-fortran.h
REM seed -1601109703 -2008425622 1323362582 1157631163 -1644289496 -172058582 -828596054 522252085 215010636 767699274 544193694 1020347374 159239236 972414435 -1941883135 -513191464 1744020302 457166386 -1087273241 -706626573 -1451141077 1167019663 894198002 1790251712 1499876403 -928684780 1443388788 1528798922 -74008686 -1579259389 351935270 400900446 -852024137
REM
CELL 1.54180   50.00000   50.00000   50.00000   90.00000   90.00000   90.00000
LATT -1
SFAC C  
C      1  0.5790570000000  0.5428410000000  0.5215870000000 1.0
C      1  0.4746910000000  0.4626650000000  0.4796210000000 1.0
C      1  0.4506030000000  0.4901120000000  0.6023990000000 1.0
C      1  0.4535910000000  0.4335760000000  0.5171680000000 1.0
C      1  0.4964820000000  0.5181270000000  0.5096400000000 1.0
C      1  0.4254150000000  0.4749730000000  0.4965930000000 1.0
C      1  0.5140210000000  0.5477370000000  0.5940430000000 1.0
C      1  0.4531590000000  0.3977150000000  0.4906160000000 1.0
C      1  0.4858670000000  0.4134250000000  0.5569300000000 1.0
C      1  0.4675130000000  0.5321080000000  0.5823350000000 1.0
C      1  0.5358440000000  0.5844180000000  0.5177260000000 1.0
C      1  0.4873340000000  0.4433890000000  0.5600220000000 1.0
C      1  0.4228950000000  0.4777660000000  0.5350980000000 1.0
C      1  0.5288960000000  0.5012440000000  0.3976490000000 1.0
C      1  0.4750610000000  0.4362440000000  0.4953590000000 1.0
C      1  0.5117120000000  0.4034380000000  0.5428350000000 1.0
C      1  0.5481030000000  0.5351760000000  0.5178890000000 1.0
C      1  0.4452990000000  0.5882570000000  0.4718270000000 1.0
C      1  0.4811200000000  0.5939950000000  0.5182820000000 1.0
C      1  0.5365580000000  0.5098530000000  0.4758990000000 1.0
C      1  0.5618960000000  0.5535220000000  0.5496930000000 1.0
C      1  0.5858130000000  0.4950120000000  0.5391070000000 1.0
C      1  0.5427410000000  0.4504850000000  0.5045830000000 1.0
C      1  0.4988270000000  0.5451690000000  0.4631860000000 1.0
C      1  0.4916680000000  0.5677250000000  0.5590860000000 1.0
C      1  0.5030770000000  0.5256280000000  0.4407400000000 1.0
C      1  0.4712060000000  0.5077600000000  0.5174360000000 1.0
C      1  0.5360910000000  0.5687860000000  0.5423210000000 1.0
C      1  0.4195120000000  0.5236580000000  0.5830930000000 1.0
C      1  0.5034490000000  0.5845910000000  0.4262890000000 1.0
C      1  0.5392730000000  0.5363420000000  0.4888100000000 1.0
C      1  0.4705080000000  0.5479640000000  0.4712520000000 1.0
C      1  0.4337360000000  0.4864480000000  0.4261420000000 1.0
C      1  0.4528400000000  0.4626580000000  0.5289680000000 1.0
C      1  0.5367720000000  0.5139040000000  0.5358550000000 1.0
C      1  0.5387850000000  0.4780370000000  0.5961280000000 1.0
C      1  0.4946510000000  0.4913120000000  0.5852740000000 1.0
C      1  0.4669300000000  0.5756450000000  0.4558610000000 1.0
C      1  0.4937260000000  0.5015580000000  0.5556580000000 1.0
C      1  0.4959860000000  0.4307560000000  0.4345300000000 1.0
C      1  0.4314430000000  0.4976370000000  0.5817610000000 1.0
C      1  0.4712670000000  0.5808960000000  0.5433060000000 1.0
C      1  0.4239810000000  0.4429650000000  0.4584660000000 1.0
C      1  0.5813050000000  0.5636320000000  0.5001640000000 1.0
C      1  0.5323780000000  0.5504600000000  0.4049930000000 1.0
C      1  0.5550370000000  0.5771200000000  0.4960660000000 1.0
C      1  0.5244330000000  0.4524260000000  0.5887760000000 1.0
C      1  0.5566740000000  0.4436790000000  0.4509430000000 1.0
C      1  0.4796040000000  0.4787800000000  0.4276970000000 1.0
C      1  0.5014840000000  0.4034550000000  0.5146500000000 1.0
C      1  0.5041020000000  0.4505360000000  0.5370600000000 1.0
C      1  0.4180660000000  0.5152480000000  0.4643530000000 1.0
C      1  0.5639210000000  0.4937630000000  0.4905540000000 1.0
C      1  0.5765130000000  0.4621740000000  0.4629750000000 1.0
C      1  0.4219710000000  0.4744070000000  0.5666860000000 1.0
C      1  0.4686410000000  0.4248080000000  0.4477870000000 1.0
C      1  0.4425710000000  0.5436770000000  0.4311180000000 1.0
C      1  0.5818450000000  0.4392350000000  0.5226320000000 1.0
C      1  0.5196870000000  0.3927190000000  0.4933320000000 1.0
C      1  0.5518820000000  0.4756820000000  0.5135960000000 1.0
C      1  0.4590830000000  0.5675040000000  0.4283240000000 1.0
C      1  0.5500750000000  0.5723730000000  0.4443330000000 1.0
C      1  0.3980190000000  0.5134580000000  0.5109520000000 1.0
C      1  0.4159150000000  0.5076080000000  0.5319720000000 1.0
C      1  0.5737760000000  0.4665080000000  0.5349730000000 1.0
C      1  0.5194890000000  0.4471380000000  0.4884330000000 1.0
C      1  0.5104260000000  0.5530640000000  0.5418960000000 1.0
C      1  0.5087440000000  0.5910180000000  0.5062000000000 1.0
C      1  0.4185030000000  0.4466390000000  0.4857180000000 1.0
C      1  0.5964540000000  0.4651590000000  0.4832070000000 1.0
C      1  0.5071570000000  0.5014250000000  0.4855120000000 1.0
C      1  0.5131380000000  0.4787410000000  0.3953700000000 1.0
C      1  0.5287300000000  0.5268000000000  0.5810020000000 1.0
C      1  0.5155020000000  0.4135230000000  0.4499830000000 1.0
C      1  0.5010830000000  0.4340770000000  0.5099650000000 1.0
C      1  0.4792310000000  0.5065530000000  0.4434110000000 1.0
C      1  0.5312160000000  0.5747140000000  0.4220820000000 1.0
C      1  0.4372190000000  0.5286350000000  0.5370060000000 1.0
C      1  0.5703940000000  0.5050680000000  0.5632700000000 1.0
C      1  0.4761790000000  0.4789370000000  0.5151470000000 1.0
C      1  0.5563920000000  0.5349010000000  0.4148120000000 1.0
C      1  0.5455520000000  0.4084560000000  0.4904120000000 1.0
C      1  0.4237510000000  0.5668910000000  0.4740210000000 1.0
C      1  0.4426460000000  0.4548940000000  0.5762150000000 1.0
C      1  0.4415620000000  0.5779540000000  0.5465530000000 1.0
C      1  0.5864870000000  0.5371910000000  0.4577250000000 1.0
C      1  0.4735230000000  0.5105150000000  0.4734050000000 1.0
C      1  0.4527650000000  0.5185800000000  0.4181770000000 1.0
C      1  0.5363670000000  0.4210190000000  0.5437260000000 1.0
C      1  0.5625200000000  0.4811400000000  0.5787340000000 1.0
C      1  0.5286270000000  0.5115340000000  0.4455550000000 1.0
C      1  0.6025060000000  0.4946220000000  0.4846710000000 1.0
C      1  0.5146600000000  0.5924010000000  0.4760100000000 1.0
C      1  0.4399910000000  0.5437910000000  0.5845910000000 1.0
C      1  0.4745330000000  0.4123880000000  0.4744940000000 1.0
C      1  0.4976350000000  0.5479240000000  0.5107800000000 1.0
C      1  0.4788960000000  0.5178350000000  0.4004090000000 1.0
C      1  0.4288440000000  0.5511690000000  0.5569970000000 1.0
C      1  0.5839920000000  0.5112590000000  0.5141420000000 1.0
C      1  0.4510240000000  0.4846720000000  0.4791270000000 1.0
C      1  0.5000770000000  0.5381760000000  0.4120060000000 1.0
C      1  0.5447530000000  0.5078870000000  0.4202740000000 1.0
C      1  0.4425320000000  0.5410020000000  0.5102320000000 1.0
C      1  0.4088220000000  0.4998540000000  0.4889780000000 1.0
C      1  0.4848420000000  0.5652640000000  0.4132290000000 1.0
C      1  0.5667080000000  0.5485100000000  0.4391570000000 1.0
C      1  0.5993290000000  0.4451250000000  0.5021290000000 1.0
C      1  0.5580480000000  0.5315170000000  0.5708400000000 1.0
C      1  0.4310830000000  0.5854150000000  0.5193800000000 1.0
C      1  0.4530250000000  0.4652160000000  0.4261120000000 1.0
C      1  0.4881610000000  0.5538510000000  0.5844650000000 1.0
C      1  0.5357110000000  0.4275840000000  0.4669450000000 1.0
C      1  0.4714170000000  0.3921910000000  0.5143900000000 1.0
C      1  0.5007280000000  0.4602510000000  0.4378060000000 1.0
C      1  0.5622150000000  0.4847330000000  0.4248460000000 1.0
C      1  0.4554530000000  0.5896460000000  0.5010670000000 1.0
C      1  0.5157670000000  0.5242430000000  0.5536600000000 1.0
C      1  0.4857700000000  0.4881070000000  0.4001330000000 1.0
C      1  0.5197760000000  0.4556800000000  0.4153610000000 1.0
C      1  0.5159730000000  0.5542860000000  0.4856400000000 1.0
C      1  0.5434300000000  0.5850980000000  0.4701620000000 1.0
C      1  0.4493570000000  0.4461170000000  0.4473210000000 1.0
C      1  0.5948780000000  0.5546070000000  0.4776590000000 1.0
C      1  0.5384860000000  0.4430980000000  0.5638130000000 1.0
C      1  0.5281730000000  0.4903040000000  0.5228030000000 1.0
C      1  0.4675480000000  0.5558820000000  0.5007210000000 1.0
C      1  0.5020180000000  0.4793910000000  0.5332430000000 1.0
C      1  0.4735710000000  0.5077260000000  0.5995840000000 1.0
C      1  0.4212280000000  0.5611490000000  0.5038090000000 1.0
C      1  0.4943030000000  0.4582410000000  0.5872330000000 1.0
C      1  0.4301780000000  0.4242200000000  0.5011780000000 1.0
C      1  0.5924660000000  0.5083840000000  0.4601680000000 1.0
C      1  0.5480810000000  0.4583970000000  0.4265620000000 1.0
C      1  0.4935530000000  0.5914340000000  0.4537990000000 1.0
C      1  0.4647230000000  0.5152640000000  0.5461830000000 1.0
C      1  0.4290490000000  0.5422120000000  0.4576090000000 1.0
C      1  0.5028590000000  0.4718130000000  0.4804310000000 1.0
C      1  0.5536510000000  0.4256930000000  0.5167340000000 1.0
C      1  0.5769020000000  0.4867380000000  0.4490510000000 1.0
C      1  0.5628330000000  0.4583750000000  0.5614360000000 1.0
C      1  0.5013930000000  0.3972360000000  0.4698690000000 1.0
C      1  0.4370970000000  0.4965100000000  0.4531330000000 1.0
C      1  0.4585330000000  0.4623810000000  0.5996720000000 1.0
C      1  0.4627790000000  0.4093010000000  0.5371210000000 1.0
C      1  0.5209750000000  0.5010540000000  0.5950320000000 1.0
C      1  0.4616270000000  0.4554370000000  0.5552650000000 1.0
END
