TITL C-950534-5965-520 -1.27341765079459e-06 125000 -1113.21003713049 0 0 177 (C1) n - 1
REM
REM in /home/bkarasulu/work/CARBON/AIRSS/Generating-Clusters/EDIP-Nigel-Params/with-SteepDescent/Only-C1/SD-CG/HFTN-CG
REM
REM
REM
REM
REM
REM ./C.cell (11c1c37f851c82e70ff6c80c92926a4b)
REM
REM compiler GCC version 9.2.1 20190827 (Red Hat 9.2.1-1)
REM options -cpp -mtune=generic -march=x86-64 -g -O0 -fpre-include=/usr/include/finclude/math-vector-fortran.h
REM seed 1653113583 1070398844 -1178408236 -494640609 -1962906566 949732464 -927347590 -1194014486 -366778629 2122353122 123671042 328156191 -326219176 1436079167 1826325692 1308042500 854726972 356882307 -1076173449 385472082 -891260426 22597808 1925442365 -29812011 211335479 1219009417 2053216069 -312308468 996366655 -870319418 175808986 1805229780 -473847524
REM
CELL 1.54180   50.00000   50.00000   50.00000   90.00000   90.00000   90.00000
LATT -1
SFAC C  
C      1  0.4435330000000  0.4568190000000  0.5817980000000 1.0
C      1  0.4723830000000  0.5534580000000  0.4985940000000 1.0
C      1  0.4777240000000  0.5141760000000  0.5268350000000 1.0
C      1  0.4609370000000  0.5257350000000  0.4024410000000 1.0
C      1  0.4592790000000  0.5016590000000  0.5471750000000 1.0
C      1  0.4576730000000  0.5459440000000  0.5707830000000 1.0
C      1  0.4252420000000  0.4255910000000  0.5513180000000 1.0
C      1  0.4332820000000  0.5074370000000  0.4971050000000 1.0
C      1  0.6147130000000  0.4891250000000  0.4912160000000 1.0
C      1  0.5494050000000  0.6056420000000  0.4597140000000 1.0
C      1  0.5379720000000  0.4393830000000  0.5731890000000 1.0
C      1  0.4844270000000  0.5138280000000  0.4769900000000 1.0
C      1  0.4793630000000  0.4767900000000  0.5524060000000 1.0
C      1  0.5745920000000  0.4828420000000  0.5789960000000 1.0
C      1  0.4349180000000  0.3949100000000  0.4936700000000 1.0
C      1  0.5536150000000  0.5071580000000  0.5494640000000 1.0
C      1  0.4619420000000  0.5390880000000  0.4449680000000 1.0
C      1  0.5242720000000  0.6015230000000  0.4762870000000 1.0
C      1  0.5794040000000  0.4640220000000  0.5580860000000 1.0
C      1  0.4796670000000  0.6049650000000  0.4783650000000 1.0
C      1  0.5375430000000  0.5921280000000  0.4345170000000 1.0
C      1  0.4918430000000  0.4230420000000  0.4579750000000 1.0
C      1  0.5050780000000  0.4460320000000  0.5280000000000 1.0
C      1  0.4056980000000  0.5052820000000  0.5631650000000 1.0
C      1  0.4671010000000  0.4518680000000  0.4254010000000 1.0
C      1  0.4341250000000  0.5480800000000  0.5544940000000 1.0
C      1  0.5801250000000  0.5765360000000  0.4970000000000 1.0
C      1  0.4987730000000  0.5306000000000  0.5737400000000 1.0
C      1  0.5826870000000  0.5584630000000  0.4725360000000 1.0
C      1  0.5098600000000  0.5279170000000  0.4606420000000 1.0
C      1  0.4516450000000  0.4137020000000  0.5429050000000 1.0
C      1  0.5437480000000  0.4823430000000  0.4457850000000 1.0
C      1  0.5083070000000  0.6012430000000  0.5692820000000 1.0
C      1  0.4757750000000  0.5677270000000  0.5781840000000 1.0
C      1  0.5352090000000  0.5628260000000  0.4383240000000 1.0
C      1  0.5888910000000  0.4566470000000  0.4673070000000 1.0
C      1  0.5932190000000  0.4467290000000  0.4958730000000 1.0
C      1  0.5443830000000  0.5060600000000  0.6106990000000 1.0
C      1  0.4241180000000  0.4216770000000  0.4888860000000 1.0
C      1  0.5195570000000  0.5256400000000  0.5038050000000 1.0
C      1  0.4139580000000  0.5271040000000  0.4514770000000 1.0
C      1  0.5180750000000  0.5036500000000  0.6249530000000 1.0
C      1  0.5574550000000  0.5230300000000  0.4637200000000 1.0
C      1  0.4110480000000  0.4346110000000  0.5104100000000 1.0
C      1  0.4957070000000  0.3957170000000  0.5505420000000 1.0
C      1  0.4860140000000  0.5723370000000  0.4317980000000 1.0
C      1  0.4332600000000  0.5428430000000  0.4349910000000 1.0
C      1  0.4850430000000  0.5431400000000  0.4134840000000 1.0
C      1  0.4590770000000  0.5216230000000  0.5850410000000 1.0
C      1  0.5352780000000  0.5139220000000  0.4465400000000 1.0
C      1  0.5124290000000  0.5018890000000  0.5815720000000 1.0
C      1  0.4117590000000  0.4773130000000  0.5502680000000 1.0
C      1  0.4242410000000  0.4350180000000  0.4376970000000 1.0
C      1  0.4178370000000  0.4642470000000  0.4291530000000 1.0
C      1  0.4815610000000  0.4790420000000  0.6020910000000 1.0
C      1  0.5210320000000  0.5698260000000  0.4797150000000 1.0
C      1  0.5422200000000  0.5786420000000  0.5315470000000 1.0
C      1  0.4477700000000  0.4890310000000  0.4542280000000 1.0
C      1  0.5347390000000  0.4031990000000  0.4440600000000 1.0
C      1  0.4751960000000  0.5082150000000  0.6038710000000 1.0
C      1  0.4610040000000  0.5849100000000  0.4658240000000 1.0
C      1  0.4794120000000  0.4604250000000  0.5260330000000 1.0
C      1  0.5119390000000  0.3970720000000  0.5275640000000 1.0
C      1  0.5252590000000  0.5806050000000  0.5780990000000 1.0
C      1  0.3813400000000  0.5133400000000  0.5502890000000 1.0
C      1  0.5086300000000  0.5172320000000  0.5303190000000 1.0
C      1  0.5926460000000  0.5243100000000  0.5266330000000 1.0
C      1  0.4977540000000  0.5243620000000  0.6147330000000 1.0
C      1  0.5663250000000  0.4352400000000  0.5030720000000 1.0
C      1  0.5954880000000  0.4772940000000  0.5375430000000 1.0
C      1  0.4335530000000  0.5339090000000  0.4070660000000 1.0
C      1  0.5478340000000  0.4588140000000  0.4932900000000 1.0
C      1  0.4914200000000  0.6026330000000  0.5071930000000 1.0
C      1  0.4749900000000  0.4117850000000  0.5611570000000 1.0
C      1  0.6002940000000  0.5328620000000  0.4696960000000 1.0
C      1  0.5593470000000  0.4183580000000  0.4353280000000 1.0
C      1  0.4372570000000  0.5967680000000  0.5007360000000 1.0
C      1  0.5637280000000  0.5613710000000  0.5178990000000 1.0
C      1  0.4273010000000  0.5726850000000  0.4395280000000 1.0
C      1  0.6049850000000  0.4688220000000  0.5108000000000 1.0
C      1  0.4092090000000  0.5723900000000  0.5170800000000 1.0
C      1  0.5051940000000  0.5561410000000  0.5030820000000 1.0
C      1  0.5280310000000  0.4475400000000  0.4757620000000 1.0
C      1  0.5349890000000  0.4020250000000  0.4746280000000 1.0
C      1  0.5493560000000  0.5793770000000  0.5610280000000 1.0
C      1  0.5497850000000  0.5349850000000  0.5057840000000 1.0
C      1  0.4128370000000  0.5850660000000  0.4915000000000 1.0
C      1  0.4782270000000  0.3900660000000  0.4997290000000 1.0
C      1  0.4653570000000  0.5229110000000  0.5011570000000 1.0
C      1  0.4778660000000  0.4518370000000  0.4540220000000 1.0
C      1  0.5356120000000  0.5448500000000  0.4154190000000 1.0
C      1  0.5627290000000  0.5033340000000  0.4117970000000 1.0
C      1  0.4713320000000  0.4614760000000  0.5789280000000 1.0
C      1  0.4041900000000  0.4591390000000  0.4739790000000 1.0
C      1  0.5196210000000  0.6141210000000  0.5043300000000 1.0
C      1  0.4483670000000  0.4984100000000  0.4046520000000 1.0
C      1  0.5155080000000  0.5643500000000  0.5305840000000 1.0
C      1  0.5217420000000  0.4960450000000  0.4929870000000 1.0
C      1  0.4511390000000  0.4247390000000  0.4298520000000 1.0
C      1  0.4652780000000  0.4089110000000  0.4533360000000 1.0
C      1  0.4859750000000  0.5877900000000  0.5587140000000 1.0
C      1  0.5227700000000  0.4619270000000  0.4504830000000 1.0
C      1  0.5161660000000  0.5393970000000  0.5492640000000 1.0
C      1  0.4453620000000  0.4767380000000  0.4259670000000 1.0
C      1  0.4686520000000  0.5576410000000  0.4693350000000 1.0
C      1  0.5588640000000  0.5298720000000  0.4201200000000 1.0
C      1  0.5762270000000  0.4243120000000  0.4590540000000 1.0
C      1  0.4689070000000  0.5101950000000  0.4515610000000 1.0
C      1  0.5139830000000  0.4228730000000  0.4822150000000 1.0
C      1  0.4621890000000  0.4658110000000  0.5011200000000 1.0
C      1  0.5629190000000  0.4122920000000  0.4830750000000 1.0
C      1  0.4869700000000  0.4356090000000  0.5749420000000 1.0
C      1  0.5839580000000  0.5522730000000  0.5381640000000 1.0
C      1  0.5649400000000  0.5150780000000  0.5233510000000 1.0
C      1  0.5987770000000  0.5017070000000  0.4481020000000 1.0
C      1  0.5694120000000  0.5033530000000  0.4813950000000 1.0
C      1  0.5103490000000  0.5574340000000  0.4542170000000 1.0
C      1  0.5451480000000  0.6045880000000  0.5159620000000 1.0
C      1  0.4317860000000  0.5692430000000  0.5347930000000 1.0
C      1  0.4593190000000  0.3887920000000  0.4754650000000 1.0
C      1  0.3919270000000  0.4758000000000  0.5257700000000 1.0
C      1  0.4522320000000  0.5884500000000  0.4386570000000 1.0
C      1  0.5116070000000  0.5282240000000  0.4133400000000 1.0
C      1  0.4906950000000  0.4863540000000  0.4078210000000 1.0
C      1  0.4255170000000  0.5211560000000  0.5455810000000 1.0
C      1  0.5828020000000  0.4885020000000  0.4259370000000 1.0
C      1  0.4538420000000  0.3941770000000  0.5194960000000 1.0
C      1  0.5526570000000  0.4422700000000  0.4192250000000 1.0
C      1  0.4972200000000  0.4742010000000  0.4555920000000 1.0
C      1  0.4912110000000  0.4961920000000  0.4361530000000 1.0
C      1  0.5656110000000  0.5545430000000  0.5620810000000 1.0
C      1  0.4134890000000  0.5684410000000  0.4669190000000 1.0
C      1  0.5964620000000  0.5131600000000  0.4925190000000 1.0
C      1  0.5109710000000  0.4183550000000  0.4349030000000 1.0
C      1  0.4038900000000  0.4213420000000  0.5337890000000 1.0
C      1  0.5101150000000  0.4806450000000  0.5592840000000 1.0
C      1  0.5115210000000  0.4443620000000  0.5592100000000 1.0
C      1  0.4545760000000  0.5782150000000  0.5172650000000 1.0
C      1  0.5065350000000  0.4217590000000  0.5119950000000 1.0
C      1  0.5856380000000  0.5075410000000  0.5708070000000 1.0
C      1  0.5150840000000  0.5018340000000  0.3993930000000 1.0
C      1  0.5390690000000  0.5280340000000  0.5921770000000 1.0
C      1  0.4962380000000  0.4872090000000  0.4824990000000 1.0
C      1  0.4543540000000  0.4606660000000  0.4713820000000 1.0
C      1  0.5610910000000  0.4421860000000  0.5545640000000 1.0
C      1  0.5323740000000  0.4772300000000  0.5126570000000 1.0
C      1  0.4755110000000  0.5944820000000  0.5312540000000 1.0
C      1  0.5629100000000  0.4281060000000  0.5306960000000 1.0
C      1  0.4136990000000  0.5202000000000  0.5169020000000 1.0
C      1  0.4088820000000  0.4636200000000  0.5040330000000 1.0
C      1  0.5380520000000  0.4564110000000  0.5974810000000 1.0
C      1  0.5443260000000  0.5328090000000  0.5631970000000 1.0
C      1  0.5634930000000  0.4753550000000  0.4715290000000 1.0
C      1  0.5005720000000  0.5560580000000  0.5928130000000 1.0
C      1  0.4219280000000  0.5017380000000  0.4646750000000 1.0
C      1  0.4382010000000  0.4807760000000  0.5367800000000 1.0
C      1  0.5737700000000  0.4615570000000  0.4229590000000 1.0
C      1  0.5535850000000  0.5491150000000  0.4757240000000 1.0
C      1  0.4042690000000  0.4790950000000  0.4531590000000 1.0
C      1  0.4216600000000  0.4515570000000  0.5659180000000 1.0
C      1  0.6015300000000  0.5044820000000  0.5468830000000 1.0
C      1  0.5019010000000  0.6115970000000  0.4590700000000 1.0
C      1  0.4362000000000  0.4788200000000  0.5081780000000 1.0
C      1  0.5253860000000  0.3771190000000  0.4859060000000 1.0
C      1  0.5266910000000  0.4935130000000  0.5380510000000 1.0
C      1  0.4948520000000  0.4562570000000  0.4089150000000 1.0
C      1  0.3874640000000  0.5055710000000  0.5230400000000 1.0
C      1  0.5067400000000  0.5967100000000  0.4333980000000 1.0
C      1  0.5100260000000  0.4774370000000  0.6121070000000 1.0
C      1  0.5651310000000  0.6012950000000  0.4938740000000 1.0
C      1  0.5391440000000  0.4881040000000  0.4076320000000 1.0
C      1  0.4280270000000  0.4419770000000  0.4670720000000 1.0
C      1  0.5205890000000  0.4449440000000  0.4250610000000 1.0
C      1  0.5052230000000  0.3778430000000  0.5057760000000 1.0
C      1  0.3980060000000  0.5447130000000  0.4666080000000 1.0
C      1  0.6100480000000  0.4792270000000  0.4635270000000 1.0
C      1  0.5501790000000  0.4821870000000  0.5939520000000 1.0
END
