TITL C-950526-5686-615 2.78952907858124e-07 125000 -69.0604213534568 0 0 14 (Cs) n - 1
REM
REM in /home/bkarasulu/work/CARBON/AIRSS/Generating-Clusters/EDIP-Nigel-Params/with-SteepDescent/Only-C1/SD-CG/HFTN-CG
REM
REM
REM
REM
REM
REM ./C.cell (11c1c37f851c82e70ff6c80c92926a4b)
REM
REM compiler GCC version 9.2.1 20190827 (Red Hat 9.2.1-1)
REM options -cpp -mtune=generic -march=x86-64 -g -O0 -fpre-include=/usr/include/finclude/math-vector-fortran.h
REM seed 215969449 40903558 -1066831417 1776431273 1034306191 1500480266 1241676222 -2098224586 1466100407 -1835635461 585628551 2000676766 -605209404 1327686143 1029538193 1220903339 -2086358080 -1834010592 1017481417 -284702720 -195789879 -1340586055 -1458153929 -509157564 214743912 607516498 692602669 571685198 1828954700 -1967622377 -18963621 773823436 -1369115500
REM
CELL 1.54180   50.00000   50.00000   50.00000   90.00000   90.00000   90.00000
LATT -1
SFAC C  
C      1  0.4779490000000  0.6086090000000  0.4841130000000 1.0
C      1  0.5322770000000  0.4166550000000  0.5167210000000 1.0
C      1  0.5135170000000  0.4650630000000  0.5070060000000 1.0
C      1  0.4765030000000  0.4915880000000  0.4937950000000 1.0
C      1  0.5026510000000  0.4896250000000  0.5016780000000 1.0
C      1  0.5226190000000  0.4407100000000  0.5117940000000 1.0
C      1  0.4977710000000  0.5616160000000  0.4940200000000 1.0
C      1  0.4511690000000  0.4921630000000  0.4862710000000 1.0
C      1  0.5437320000000  0.5110910000000  0.5119440000000 1.0
C      1  0.5077260000000  0.5376450000000  0.4990280000000 1.0
C      1  0.5412270000000  0.3931620000000  0.5213910000000 1.0
C      1  0.4267140000000  0.4935800000000  0.4789340000000 1.0
C      1  0.4876260000000  0.5854440000000  0.4889690000000 1.0
C      1  0.5185210000000  0.5130490000000  0.5043370000000 1.0
END
