TITL C-951343-2256-315 4.4238223287961e-07 125000 -1082.55572240056 0 0 174 (C1) n - 1
REM
REM in /home/bkarasulu/work/CARBON/AIRSS/Generating-Clusters/EDIP-Nigel-Params/with-SteepDescent/Only-C1/SD-CG/HFTN-CG
REM
REM
REM
REM
REM
REM ./C.cell (11c1c37f851c82e70ff6c80c92926a4b)
REM
REM compiler GCC version 9.2.1 20190827 (Red Hat 9.2.1-1)
REM options -cpp -mtune=generic -march=x86-64 -g -O0 -fpre-include=/usr/include/finclude/math-vector-fortran.h
REM seed -2032587361 915667708 -384061490 447494193 58175652 -1530364761 -1892705875 -2022033695 -446149618 1695075543 -1279569376 -1312545688 1918260369 -134563058 -388003661 -925335261 -639256594 636835028 937147077 -1104880682 -1786273786 153215983 943516217 -987700337 -1442539200 322747529 1718920784 938297519 102723820 1619633873 75772066 245266019 1861531005
REM
CELL 1.54180   50.00000   50.00000   50.00000   90.00000   90.00000   90.00000
LATT -1
SFAC C  
C      1  0.4970940000000  0.5550060000000  0.4687690000000 1.0
C      1  0.4839240000000  0.4782950000000  0.5657500000000 1.0
C      1  0.5860280000000  0.4206330000000  0.5162090000000 1.0
C      1  0.5077980000000  0.5544020000000  0.5429200000000 1.0
C      1  0.4561350000000  0.5607000000000  0.4995140000000 1.0
C      1  0.4346670000000  0.4860480000000  0.4109040000000 1.0
C      1  0.4933010000000  0.5057410000000  0.5566470000000 1.0
C      1  0.4609410000000  0.5740070000000  0.5269150000000 1.0
C      1  0.4373670000000  0.5609360000000  0.4403400000000 1.0
C      1  0.5256560000000  0.4695690000000  0.4238810000000 1.0
C      1  0.5586100000000  0.4463560000000  0.5522800000000 1.0
C      1  0.4033890000000  0.4915810000000  0.5304400000000 1.0
C      1  0.4564880000000  0.5239740000000  0.4704930000000 1.0
C      1  0.5684860000000  0.4038020000000  0.5001450000000 1.0
C      1  0.4209040000000  0.5369270000000  0.4326980000000 1.0
C      1  0.4570420000000  0.5033270000000  0.4497820000000 1.0
C      1  0.5038840000000  0.5507910000000  0.4050260000000 1.0
C      1  0.4743540000000  0.4970130000000  0.6044300000000 1.0
C      1  0.5076690000000  0.5919750000000  0.4366390000000 1.0
C      1  0.4403980000000  0.5122030000000  0.4252560000000 1.0
C      1  0.4093540000000  0.5584350000000  0.5149270000000 1.0
C      1  0.4478500000000  0.4342490000000  0.5706200000000 1.0
C      1  0.5424940000000  0.3995590000000  0.5107360000000 1.0
C      1  0.4703030000000  0.5971050000000  0.4722990000000 1.0
C      1  0.4895420000000  0.5059360000000  0.5171340000000 1.0
C      1  0.5421160000000  0.4015840000000  0.4310660000000 1.0
C      1  0.4771020000000  0.5283460000000  0.5704490000000 1.0
C      1  0.5089110000000  0.4446860000000  0.5378000000000 1.0
C      1  0.4818490000000  0.4246290000000  0.4315440000000 1.0
C      1  0.4244140000000  0.4714220000000  0.4333270000000 1.0
C      1  0.4334660000000  0.5405180000000  0.5078180000000 1.0
C      1  0.4723120000000  0.4090320000000  0.4980950000000 1.0
C      1  0.5523500000000  0.3865680000000  0.4549220000000 1.0
C      1  0.5149490000000  0.3943200000000  0.4203330000000 1.0
C      1  0.4459700000000  0.5838140000000  0.4829670000000 1.0
C      1  0.5519790000000  0.5812570000000  0.4514020000000 1.0
C      1  0.5251760000000  0.6208120000000  0.4729540000000 1.0
C      1  0.5808020000000  0.5720300000000  0.4898260000000 1.0
C      1  0.5511520000000  0.5385300000000  0.5358350000000 1.0
C      1  0.6039960000000  0.4780040000000  0.5237500000000 1.0
C      1  0.5762810000000  0.4282350000000  0.5410370000000 1.0
C      1  0.5793000000000  0.4820400000000  0.5362780000000 1.0
C      1  0.5514730000000  0.5490980000000  0.4813750000000 1.0
C      1  0.4152110000000  0.4699530000000  0.5601450000000 1.0
C      1  0.5628090000000  0.5643000000000  0.5468870000000 1.0
C      1  0.4845380000000  0.5785820000000  0.4519970000000 1.0
C      1  0.4735040000000  0.4869800000000  0.4993460000000 1.0
C      1  0.5517590000000  0.4721370000000  0.5250790000000 1.0
C      1  0.5421010000000  0.5877130000000  0.5454790000000 1.0
C      1  0.4775930000000  0.4603210000000  0.4841800000000 1.0
C      1  0.4343000000000  0.5164830000000  0.4877220000000 1.0
C      1  0.5304720000000  0.6016280000000  0.4534280000000 1.0
C      1  0.5147130000000  0.5222980000000  0.4111620000000 1.0
C      1  0.4257340000000  0.5737830000000  0.4641010000000 1.0
C      1  0.5038130000000  0.3862800000000  0.4473850000000 1.0
C      1  0.4857970000000  0.5410050000000  0.6016970000000 1.0
C      1  0.4965600000000  0.5916240000000  0.5685300000000 1.0
C      1  0.4670530000000  0.4381140000000  0.5038020000000 1.0
C      1  0.4394560000000  0.4781820000000  0.4581840000000 1.0
C      1  0.4388500000000  0.4107370000000  0.4655320000000 1.0
C      1  0.4938500000000  0.4373490000000  0.5907430000000 1.0
C      1  0.4513720000000  0.5631790000000  0.5803060000000 1.0
C      1  0.3962720000000  0.5401740000000  0.5363250000000 1.0
C      1  0.4650510000000  0.4472990000000  0.5904660000000 1.0
C      1  0.5706710000000  0.4503950000000  0.4262930000000 1.0
C      1  0.4335200000000  0.4988030000000  0.5298500000000 1.0
C      1  0.5395950000000  0.5550490000000  0.5858980000000 1.0
C      1  0.5493380000000  0.4932850000000  0.4662570000000 1.0
C      1  0.5578320000000  0.5378880000000  0.4263420000000 1.0
C      1  0.5471380000000  0.4906240000000  0.4324340000000 1.0
C      1  0.4974880000000  0.4138670000000  0.5752300000000 1.0
C      1  0.5174770000000  0.4210580000000  0.5564130000000 1.0
C      1  0.4997180000000  0.4189860000000  0.4098390000000 1.0
C      1  0.4596280000000  0.4576680000000  0.4602460000000 1.0
C      1  0.5061080000000  0.6242140000000  0.4915470000000 1.0
C      1  0.4720260000000  0.5289630000000  0.5263890000000 1.0
C      1  0.5576200000000  0.4626220000000  0.4834030000000 1.0
C      1  0.5437620000000  0.5887370000000  0.5150500000000 1.0
C      1  0.3866700000000  0.5146540000000  0.5315770000000 1.0
C      1  0.4096240000000  0.5081390000000  0.4712790000000 1.0
C      1  0.5882710000000  0.4607640000000  0.4862300000000 1.0
C      1  0.5418590000000  0.4454320000000  0.4235880000000 1.0
C      1  0.5436240000000  0.5156410000000  0.4155480000000 1.0
C      1  0.3852720000000  0.4644420000000  0.4657210000000 1.0
C      1  0.5952090000000  0.5354890000000  0.5379040000000 1.0
C      1  0.4891850000000  0.6066490000000  0.5461070000000 1.0
C      1  0.4865780000000  0.4975510000000  0.4399020000000 1.0
C      1  0.4755840000000  0.4529200000000  0.4351830000000 1.0
C      1  0.5338700000000  0.5626480000000  0.5026410000000 1.0
C      1  0.4792030000000  0.4452440000000  0.5301300000000 1.0
C      1  0.5008210000000  0.4692040000000  0.4439070000000 1.0
C      1  0.5708320000000  0.4060610000000  0.4703640000000 1.0
C      1  0.4634570000000  0.4624820000000  0.5493260000000 1.0
C      1  0.4027690000000  0.4427720000000  0.4590680000000 1.0
C      1  0.5287520000000  0.4531570000000  0.5156600000000 1.0
C      1  0.4754670000000  0.5998570000000  0.5228750000000 1.0
C      1  0.5637970000000  0.4348980000000  0.4603990000000 1.0
C      1  0.4442390000000  0.4919020000000  0.5028240000000 1.0
C      1  0.4348340000000  0.4417190000000  0.5022960000000 1.0
C      1  0.4647450000000  0.4025000000000  0.4716340000000 1.0
C      1  0.4649510000000  0.5673120000000  0.4315950000000 1.0
C      1  0.4427720000000  0.5268150000000  0.5357950000000 1.0
C      1  0.5375670000000  0.4276410000000  0.4458800000000 1.0
C      1  0.4894740000000  0.4106830000000  0.4562870000000 1.0
C      1  0.4115120000000  0.5434190000000  0.5617850000000 1.0
C      1  0.5724150000000  0.5901490000000  0.5094850000000 1.0
C      1  0.4241000000000  0.4425920000000  0.5554820000000 1.0
C      1  0.4779930000000  0.4942980000000  0.4109030000000 1.0
C      1  0.6226750000000  0.4926520000000  0.5097010000000 1.0
C      1  0.4415090000000  0.5417400000000  0.5998090000000 1.0
C      1  0.5804400000000  0.5322700000000  0.4429180000000 1.0
C      1  0.5920650000000  0.5174360000000  0.5132670000000 1.0
C      1  0.5796120000000  0.4829270000000  0.5641930000000 1.0
C      1  0.4483030000000  0.5100780000000  0.5707170000000 1.0
C      1  0.5438010000000  0.5621840000000  0.4319930000000 1.0
C      1  0.4408160000000  0.4838150000000  0.5534970000000 1.0
C      1  0.5331720000000  0.5303770000000  0.5991580000000 1.0
C      1  0.4764730000000  0.5560820000000  0.4087060000000 1.0
C      1  0.5193330000000  0.5139360000000  0.5099700000000 1.0
C      1  0.4922020000000  0.4517550000000  0.3932610000000 1.0
C      1  0.5009820000000  0.4899240000000  0.6111380000000 1.0
C      1  0.5257810000000  0.5428030000000  0.5224840000000 1.0
C      1  0.4759660000000  0.5418080000000  0.4843860000000 1.0
C      1  0.4791390000000  0.5503290000000  0.5462490000000 1.0
C      1  0.5152710000000  0.4306640000000  0.4702210000000 1.0
C      1  0.5392750000000  0.5040260000000  0.5857000000000 1.0
C      1  0.5789960000000  0.5772030000000  0.4621050000000 1.0
C      1  0.4003210000000  0.4757590000000  0.5054720000000 1.0
C      1  0.5371040000000  0.4341670000000  0.4942230000000 1.0
C      1  0.5927330000000  0.4876030000000  0.4486880000000 1.0
C      1  0.5097600000000  0.5332380000000  0.6131990000000 1.0
C      1  0.5207650000000  0.3934060000000  0.4940750000000 1.0
C      1  0.4304620000000  0.5770750000000  0.5334130000000 1.0
C      1  0.4750730000000  0.5783960000000  0.5809580000000 1.0
C      1  0.5703390000000  0.5238410000000  0.4907920000000 1.0
C      1  0.5136640000000  0.4725660000000  0.3960860000000 1.0
C      1  0.5743330000000  0.4786350000000  0.4274750000000 1.0
C      1  0.5692990000000  0.5038340000000  0.5791310000000 1.0
C      1  0.5200080000000  0.5710220000000  0.4189010000000 1.0
C      1  0.4861510000000  0.6053600000000  0.4960190000000 1.0
C      1  0.4679430000000  0.4660390000000  0.4075680000000 1.0
C      1  0.5896560000000  0.5650750000000  0.5324490000000 1.0
C      1  0.5108500000000  0.4659370000000  0.5599850000000 1.0
C      1  0.4129550000000  0.4455230000000  0.4326010000000 1.0
C      1  0.5401230000000  0.4348260000000  0.5714330000000 1.0
C      1  0.5774220000000  0.5097670000000  0.4635680000000 1.0
C      1  0.4226500000000  0.5242270000000  0.5828380000000 1.0
C      1  0.5014820000000  0.4999920000000  0.3947030000000 1.0
C      1  0.4019440000000  0.5335750000000  0.4581520000000 1.0
C      1  0.4957250000000  0.3963460000000  0.5048610000000 1.0
C      1  0.5048720000000  0.4584910000000  0.4715910000000 1.0
C      1  0.4233260000000  0.4359190000000  0.5281680000000 1.0
C      1  0.5220100000000  0.5372680000000  0.4609170000000 1.0
C      1  0.5989380000000  0.4400080000000  0.5014230000000 1.0
C      1  0.5196920000000  0.5735660000000  0.5613440000000 1.0
C      1  0.6034680000000  0.4671960000000  0.4639170000000 1.0
C      1  0.5064580000000  0.5196980000000  0.4393330000000 1.0
C      1  0.5928000000000  0.5564460000000  0.4494910000000 1.0
C      1  0.5245800000000  0.5024330000000  0.5583620000000 1.0
C      1  0.5254830000000  0.3819980000000  0.4675280000000 1.0
C      1  0.4273250000000  0.4697560000000  0.4925490000000 1.0
C      1  0.5667720000000  0.5553900000000  0.5752250000000 1.0
C      1  0.5196780000000  0.4544670000000  0.5858560000000 1.0
C      1  0.4056170000000  0.5569010000000  0.4773120000000 1.0
C      1  0.4209990000000  0.4277780000000  0.4783800000000 1.0
C      1  0.4641120000000  0.5246840000000  0.6125080000000 1.0
C      1  0.3889160000000  0.4882690000000  0.4811820000000 1.0
C      1  0.5258770000000  0.4807950000000  0.6015830000000 1.0
C      1  0.5804790000000  0.5290850000000  0.5675880000000 1.0
C      1  0.6178870000000  0.5175820000000  0.4994600000000 1.0
C      1  0.5289120000000  0.5130100000000  0.4798680000000 1.0
C      1  0.4583840000000  0.4754990000000  0.5952820000000 1.0
C      1  0.4318320000000  0.5632550000000  0.5587960000000 1.0
C      1  0.5395570000000  0.5014840000000  0.5316870000000 1.0
END
