TITL C-950522-5749-726 -3.77746122622156e-06 125000 -957.037381787248 0 0 154 (C1) n - 1
REM
REM in /home/bkarasulu/work/CARBON/AIRSS/Generating-Clusters/EDIP-Nigel-Params/with-SteepDescent/Only-C1/SD-CG/HFTN-CG
REM
REM
REM
REM
REM
REM ./C.cell (11c1c37f851c82e70ff6c80c92926a4b)
REM
REM compiler GCC version 9.2.1 20190827 (Red Hat 9.2.1-1)
REM options -cpp -mtune=generic -march=x86-64 -g -O0 -fpre-include=/usr/include/finclude/math-vector-fortran.h
REM seed 1809848277 988835743 1145860298 -1043979103 383063424 -66914234 781364017 -640489060 2088713144 -1142526490 -1575590119 1262730548 -510360587 1123834455 724688256 -1056904633 -1953953685 -425346176 1000779383 -2002957765 -1218063483 1288762169 1435592300 873263209 267869178 -209622200 757906388 819805366 -464775340 -692318198 1481058633 -546292941 216446500
REM
CELL 1.54180   50.00000   50.00000   50.00000   90.00000   90.00000   90.00000
LATT -1
SFAC C  
C      1  0.4665740000000  0.4772880000000  0.5060930000000 1.0
C      1  0.5536120000000  0.4977580000000  0.4993760000000 1.0
C      1  0.4831530000000  0.5769040000000  0.4308170000000 1.0
C      1  0.5368650000000  0.4224990000000  0.4784650000000 1.0
C      1  0.5336860000000  0.4858260000000  0.6100210000000 1.0
C      1  0.5631140000000  0.4694350000000  0.4525430000000 1.0
C      1  0.4880940000000  0.4830280000000  0.6168420000000 1.0
C      1  0.4513120000000  0.4807840000000  0.4261960000000 1.0
C      1  0.5176470000000  0.5315510000000  0.5681190000000 1.0
C      1  0.5111810000000  0.4590390000000  0.5325970000000 1.0
C      1  0.4658590000000  0.5952610000000  0.4431770000000 1.0
C      1  0.5110820000000  0.3947780000000  0.5243180000000 1.0
C      1  0.4768450000000  0.4573320000000  0.4557750000000 1.0
C      1  0.5054110000000  0.5120560000000  0.4010940000000 1.0
C      1  0.4700950000000  0.5757040000000  0.5260690000000 1.0
C      1  0.4602270000000  0.5357730000000  0.5021110000000 1.0
C      1  0.5348060000000  0.5421830000000  0.4343540000000 1.0
C      1  0.4881080000000  0.4099880000000  0.4623180000000 1.0
C      1  0.5451320000000  0.6011930000000  0.4840400000000 1.0
C      1  0.5306490000000  0.5840570000000  0.4609550000000 1.0
C      1  0.4432910000000  0.4441980000000  0.5485400000000 1.0
C      1  0.5563340000000  0.4644030000000  0.4971990000000 1.0
C      1  0.6017850000000  0.4683030000000  0.5323410000000 1.0
C      1  0.5052330000000  0.5775360000000  0.5753440000000 1.0
C      1  0.5962260000000  0.5500320000000  0.4771320000000 1.0
C      1  0.4790210000000  0.4800830000000  0.4160770000000 1.0
C      1  0.4720550000000  0.4346260000000  0.4732230000000 1.0
C      1  0.5197410000000  0.5838440000000  0.5306700000000 1.0
C      1  0.5364750000000  0.4680190000000  0.4121820000000 1.0
C      1  0.4052350000000  0.4720090000000  0.4681480000000 1.0
C      1  0.4618480000000  0.4701940000000  0.5433370000000 1.0
C      1  0.5105240000000  0.4715800000000  0.5746700000000 1.0
C      1  0.4856760000000  0.4977470000000  0.5185520000000 1.0
C      1  0.4936310000000  0.5512150000000  0.5667320000000 1.0
C      1  0.5144040000000  0.5177070000000  0.4582690000000 1.0
C      1  0.5843000000000  0.4846940000000  0.5468290000000 1.0
C      1  0.5891600000000  0.5340130000000  0.4420750000000 1.0
C      1  0.4329050000000  0.5356250000000  0.4337270000000 1.0
C      1  0.4626150000000  0.4208690000000  0.5467390000000 1.0
C      1  0.4237930000000  0.4358130000000  0.5257140000000 1.0
C      1  0.5638210000000  0.5133990000000  0.5852400000000 1.0
C      1  0.4815690000000  0.5508960000000  0.5390880000000 1.0
C      1  0.6031620000000  0.4954590000000  0.4657230000000 1.0
C      1  0.5666830000000  0.5252400000000  0.5575420000000 1.0
C      1  0.4860830000000  0.3891530000000  0.4821100000000 1.0
C      1  0.5173030000000  0.4456300000000  0.4153690000000 1.0
C      1  0.4941970000000  0.5124730000000  0.6176780000000 1.0
C      1  0.4668120000000  0.4950950000000  0.5875010000000 1.0
C      1  0.4528800000000  0.4919420000000  0.5627300000000 1.0
C      1  0.5494480000000  0.5589510000000  0.4560050000000 1.0
C      1  0.4726480000000  0.4048390000000  0.4362600000000 1.0
C      1  0.4636950000000  0.4358930000000  0.5884920000000 1.0
C      1  0.5257760000000  0.4680150000000  0.4630900000000 1.0
C      1  0.3924410000000  0.4676740000000  0.4945060000000 1.0
C      1  0.5224620000000  0.5533220000000  0.5225790000000 1.0
C      1  0.4375690000000  0.4157020000000  0.5103530000000 1.0
C      1  0.5607680000000  0.4565470000000  0.4265190000000 1.0
C      1  0.4277660000000  0.5057950000000  0.5608100000000 1.0
C      1  0.4711110000000  0.4271340000000  0.4168250000000 1.0
C      1  0.5662150000000  0.5890690000000  0.4981070000000 1.0
C      1  0.6047660000000  0.4546420000000  0.4828930000000 1.0
C      1  0.4707590000000  0.5205030000000  0.6012110000000 1.0
C      1  0.3961430000000  0.5469800000000  0.4710090000000 1.0
C      1  0.5302230000000  0.4515590000000  0.4865500000000 1.0
C      1  0.5457650000000  0.5313770000000  0.6017580000000 1.0
C      1  0.4732610000000  0.6047660000000  0.4678460000000 1.0
C      1  0.6083330000000  0.4544690000000  0.5103340000000 1.0
C      1  0.5120290000000  0.5822570000000  0.4318110000000 1.0
C      1  0.3890610000000  0.4943410000000  0.5073730000000 1.0
C      1  0.5773370000000  0.5150590000000  0.5094800000000 1.0
C      1  0.4752260000000  0.5555920000000  0.4124040000000 1.0
C      1  0.4345800000000  0.5751840000000  0.5609470000000 1.0
C      1  0.4626470000000  0.5666700000000  0.4977720000000 1.0
C      1  0.4285920000000  0.4547350000000  0.4611140000000 1.0
C      1  0.4218970000000  0.5282970000000  0.5759930000000 1.0
C      1  0.5405960000000  0.4661270000000  0.5683080000000 1.0
C      1  0.4577870000000  0.4912290000000  0.4776340000000 1.0
C      1  0.5311850000000  0.4134310000000  0.5119870000000 1.0
C      1  0.5666950000000  0.5134100000000  0.4451610000000 1.0
C      1  0.5100400000000  0.4691700000000  0.6038930000000 1.0
C      1  0.4851490000000  0.3928310000000  0.5099270000000 1.0
C      1  0.5512560000000  0.5723440000000  0.5653410000000 1.0
C      1  0.5450470000000  0.5138690000000  0.4702850000000 1.0
C      1  0.4787470000000  0.4486420000000  0.4993470000000 1.0
C      1  0.5338430000000  0.5302860000000  0.5413500000000 1.0
C      1  0.4339650000000  0.5758280000000  0.4917820000000 1.0
C      1  0.4901740000000  0.4574980000000  0.5556280000000 1.0
C      1  0.5616340000000  0.5647940000000  0.5402030000000 1.0
C      1  0.4185170000000  0.5095890000000  0.4333050000000 1.0
C      1  0.4050700000000  0.5004370000000  0.4582680000000 1.0
C      1  0.5171700000000  0.4152230000000  0.4571420000000 1.0
C      1  0.5554300000000  0.4827870000000  0.5903700000000 1.0
C      1  0.4810860000000  0.5774940000000  0.4752160000000 1.0
C      1  0.5232070000000  0.4151650000000  0.5702410000000 1.0
C      1  0.4839340000000  0.4959540000000  0.3922520000000 1.0
C      1  0.4287770000000  0.4107420000000  0.4848520000000 1.0
C      1  0.5753420000000  0.4521360000000  0.4747820000000 1.0
C      1  0.4516290000000  0.4721650000000  0.4544970000000 1.0
C      1  0.5280610000000  0.6104370000000  0.5058140000000 1.0
C      1  0.4649660000000  0.4116370000000  0.5194820000000 1.0
C      1  0.5099910000000  0.3995160000000  0.5522230000000 1.0
C      1  0.4434680000000  0.5850090000000  0.5367390000000 1.0
C      1  0.4506580000000  0.5424760000000  0.4130920000000 1.0
C      1  0.4885620000000  0.4503840000000  0.4137050000000 1.0
C      1  0.3723420000000  0.5125060000000  0.4927760000000 1.0
C      1  0.5423970000000  0.4344720000000  0.5637420000000 1.0
C      1  0.6204850000000  0.4740890000000  0.4700660000000 1.0
C      1  0.4990120000000  0.4759450000000  0.4597440000000 1.0
C      1  0.5215160000000  0.5124720000000  0.6029830000000 1.0
C      1  0.5372150000000  0.5006490000000  0.5272440000000 1.0
C      1  0.4107290000000  0.4998450000000  0.5391730000000 1.0
C      1  0.5188010000000  0.5486420000000  0.4928420000000 1.0
C      1  0.4248860000000  0.5548280000000  0.5751620000000 1.0
C      1  0.5551010000000  0.4780810000000  0.5427240000000 1.0
C      1  0.4301850000000  0.5313730000000  0.5050510000000 1.0
C      1  0.5642500000000  0.4252340000000  0.4656040000000 1.0
C      1  0.4032150000000  0.4487870000000  0.5121540000000 1.0
C      1  0.4761700000000  0.5257870000000  0.5242600000000 1.0
C      1  0.4285000000000  0.4913450000000  0.4143370000000 1.0
C      1  0.5102690000000  0.5741250000000  0.4805740000000 1.0
C      1  0.5284060000000  0.4221630000000  0.4305970000000 1.0
C      1  0.5287350000000  0.4979920000000  0.4133100000000 1.0
C      1  0.4386870000000  0.4419410000000  0.5777850000000 1.0
C      1  0.4995560000000  0.6133600000000  0.5053020000000 1.0
C      1  0.6103290000000  0.5240210000000  0.4630920000000 1.0
C      1  0.5482430000000  0.5176960000000  0.4220270000000 1.0
C      1  0.4237130000000  0.5487660000000  0.4805390000000 1.0
C      1  0.4445570000000  0.4119920000000  0.4405870000000 1.0
C      1  0.5342270000000  0.5537760000000  0.5844940000000 1.0
C      1  0.4417830000000  0.4273880000000  0.4657370000000 1.0
C      1  0.5470620000000  0.5420190000000  0.4807690000000 1.0
C      1  0.5269780000000  0.5886140000000  0.5594060000000 1.0
C      1  0.4997360000000  0.5411250000000  0.4065240000000 1.0
C      1  0.4246700000000  0.5864750000000  0.5159930000000 1.0
C      1  0.5819510000000  0.4898050000000  0.4472460000000 1.0
C      1  0.4821060000000  0.4302640000000  0.5669740000000 1.0
C      1  0.4184070000000  0.5055220000000  0.5122360000000 1.0
C      1  0.4449240000000  0.5394090000000  0.4600550000000 1.0
C      1  0.5724380000000  0.5672350000000  0.5144850000000 1.0
C      1  0.5416080000000  0.4349330000000  0.5335980000000 1.0
C      1  0.4952880000000  0.4983630000000  0.4417830000000 1.0
C      1  0.5739820000000  0.5431520000000  0.4973350000000 1.0
C      1  0.4982360000000  0.5281070000000  0.4809770000000 1.0
C      1  0.5113770000000  0.4873540000000  0.5261070000000 1.0
C      1  0.5601390000000  0.4550630000000  0.5243890000000 1.0
C      1  0.4707280000000  0.5167350000000  0.4656600000000 1.0
C      1  0.4745820000000  0.5433540000000  0.5861040000000 1.0
C      1  0.4919210000000  0.5959020000000  0.5264310000000 1.0
C      1  0.5848980000000  0.5125310000000  0.5386420000000 1.0
C      1  0.3880040000000  0.5202000000000  0.4712890000000 1.0
C      1  0.5209560000000  0.5587810000000  0.4160630000000 1.0
C      1  0.5575160000000  0.4279120000000  0.4355800000000 1.0
C      1  0.5071510000000  0.4444390000000  0.5074510000000 1.0
C      1  0.5793210000000  0.5612100000000  0.4523670000000 1.0
END
