TITL C-950529-3362-126 -5.62693421769781e-07 125000 -303.038473306488 0 0 50 (C1) n - 1
REM
REM in /home/bkarasulu/work/CARBON/AIRSS/Generating-Clusters/EDIP-Nigel-Params/with-SteepDescent/Only-C1/SD-CG/HFTN-CG
REM
REM
REM
REM
REM
REM ./C.cell (11c1c37f851c82e70ff6c80c92926a4b)
REM
REM compiler GCC version 9.2.1 20190827 (Red Hat 9.2.1-1)
REM options -cpp -mtune=generic -march=x86-64 -g -O0 -fpre-include=/usr/include/finclude/math-vector-fortran.h
REM seed 706537700 1449206301 -809258796 1562818384 -1241384627 -329788805 -1115979395 1154997235 1147104318 -903902478 549245530 1912117776 -1452878041 -1782505960 -256768298 -1301196951 1400086389 1847883212 37125115 -1682356274 787098232 716971824 686306267 -208955542 1418694945 155614082 -110013230 1444941223 -1307103798 -630174266 1474765702 -1393726635 -354180288
REM
CELL 1.54180   50.00000   50.00000   50.00000   90.00000   90.00000   90.00000
LATT -1
SFAC C  
C      1  0.4682280000000  0.5374500000000  0.5252780000000 1.0
C      1  0.5181430000000  0.4867250000000  0.4536980000000 1.0
C      1  0.5445650000000  0.5103560000000  0.4849760000000 1.0
C      1  0.5504420000000  0.4636450000000  0.5153720000000 1.0
C      1  0.5239940000000  0.4350270000000  0.5138650000000 1.0
C      1  0.4507930000000  0.5103530000000  0.5558850000000 1.0
C      1  0.4712520000000  0.5535970000000  0.4794440000000 1.0
C      1  0.4454630000000  0.5331770000000  0.5406900000000 1.0
C      1  0.5025740000000  0.4467720000000  0.5307330000000 1.0
C      1  0.5762790000000  0.5008230000000  0.5381470000000 1.0
C      1  0.4692060000000  0.4762680000000  0.5151350000000 1.0
C      1  0.4750260000000  0.4468460000000  0.5195120000000 1.0
C      1  0.5247490000000  0.5581160000000  0.4669180000000 1.0
C      1  0.5038020000000  0.5574200000000  0.5516230000000 1.0
C      1  0.5419210000000  0.4960930000000  0.4384740000000 1.0
C      1  0.5232970000000  0.5273290000000  0.5006650000000 1.0
C      1  0.4703850000000  0.5294280000000  0.4966060000000 1.0
C      1  0.5290810000000  0.5137730000000  0.5588970000000 1.0
C      1  0.4773170000000  0.5208320000000  0.4401890000000 1.0
C      1  0.5434090000000  0.4580520000000  0.4866890000000 1.0
C      1  0.4685940000000  0.4272640000000  0.5003770000000 1.0
C      1  0.4509040000000  0.4821550000000  0.4921880000000 1.0
C      1  0.4482660000000  0.5112200000000  0.4860210000000 1.0
C      1  0.5216090000000  0.4370050000000  0.4832520000000 1.0
C      1  0.4960690000000  0.4880270000000  0.5079900000000 1.0
C      1  0.4423950000000  0.5200880000000  0.4578680000000 1.0
C      1  0.4716460000000  0.4403790000000  0.4756470000000 1.0
C      1  0.4588950000000  0.4860320000000  0.5415420000000 1.0
C      1  0.4537130000000  0.5000580000000  0.4368240000000 1.0
C      1  0.5235310000000  0.5345420000000  0.4518750000000 1.0
C      1  0.5018350000000  0.5132850000000  0.4589470000000 1.0
C      1  0.4859000000000  0.5599150000000  0.5302920000000 1.0
C      1  0.4616110000000  0.5451310000000  0.4535110000000 1.0
C      1  0.5215860000000  0.5560840000000  0.4946040000000 1.0
C      1  0.4870370000000  0.4884050000000  0.5671650000000 1.0
C      1  0.5697700000000  0.5069540000000  0.5001580000000 1.0
C      1  0.5171120000000  0.5381700000000  0.5647630000000 1.0
C      1  0.4968330000000  0.5674380000000  0.5043340000000 1.0
C      1  0.5043120000000  0.4625850000000  0.4445990000000 1.0
C      1  0.4988180000000  0.4492380000000  0.4688750000000 1.0
C      1  0.5153610000000  0.4745130000000  0.5278060000000 1.0
C      1  0.5306170000000  0.4835490000000  0.4806570000000 1.0
C      1  0.4712810000000  0.5106160000000  0.5761470000000 1.0
C      1  0.4540700000000  0.4736380000000  0.4448860000000 1.0
C      1  0.4516400000000  0.4619600000000  0.4701180000000 1.0
C      1  0.5732140000000  0.4830460000000  0.5158750000000 1.0
C      1  0.5483430000000  0.5191860000000  0.4549730000000 1.0
C      1  0.4972500000000  0.5142020000000  0.4918990000000 1.0
C      1  0.5550780000000  0.5131790000000  0.5499610000000 1.0
C      1  0.5127850000000  0.4900550000000  0.5540490000000 1.0
END
