TITL C-950522-5749-87 -2.87040971114116e-06 125000 -801.049154666108 0 0 128 (C1) n - 1
REM
REM in /home/bkarasulu/work/CARBON/AIRSS/Generating-Clusters/EDIP-Nigel-Params/with-SteepDescent/Only-C1/SD-CG/HFTN-CG
REM
REM
REM
REM
REM
REM ./C.cell (11c1c37f851c82e70ff6c80c92926a4b)
REM
REM compiler GCC version 9.2.1 20190827 (Red Hat 9.2.1-1)
REM options -cpp -mtune=generic -march=x86-64 -g -O0 -fpre-include=/usr/include/finclude/math-vector-fortran.h
REM seed -237258046 -929393022 873921207 -733429030 -1938085457 2074579449 1409006497 -1940638703 -1369934763 -890243471 -1368709044 -616176537 -236991325 516704864 1377263730 445603951 1584493911 -34647738 422687493 -1034854199 -1514258078 2013996519 -1689318113 775202542 -935715717 709069765 124765752 1300328230 591886922 1809443742 -2039770851 -1560096919 -1980291928
REM
CELL 1.54180   50.00000   50.00000   50.00000   90.00000   90.00000   90.00000
LATT -1
SFAC C  
C      1  0.4868930000000  0.5734000000000  0.4264140000000 1.0
C      1  0.5536350000000  0.4021010000000  0.5013200000000 1.0
C      1  0.5523850000000  0.4837140000000  0.5122050000000 1.0
C      1  0.4724580000000  0.4849520000000  0.4492920000000 1.0
C      1  0.5301410000000  0.5978350000000  0.4874900000000 1.0
C      1  0.5476140000000  0.5083630000000  0.4293140000000 1.0
C      1  0.4468680000000  0.5004480000000  0.5299970000000 1.0
C      1  0.5487400000000  0.5928940000000  0.5078740000000 1.0
C      1  0.5028510000000  0.6005630000000  0.4976240000000 1.0
C      1  0.5812020000000  0.4120890000000  0.5021410000000 1.0
C      1  0.5533650000000  0.5529160000000  0.5421340000000 1.0
C      1  0.4626430000000  0.4516050000000  0.5721820000000 1.0
C      1  0.5465370000000  0.5213600000000  0.5795900000000 1.0
C      1  0.5402540000000  0.5231020000000  0.5006670000000 1.0
C      1  0.4659330000000  0.4120580000000  0.5050500000000 1.0
C      1  0.5021740000000  0.4519580000000  0.4257860000000 1.0
C      1  0.5309360000000  0.5790850000000  0.4657250000000 1.0
C      1  0.4773070000000  0.5961010000000  0.4713520000000 1.0
C      1  0.5314800000000  0.5015740000000  0.5610090000000 1.0
C      1  0.5324730000000  0.5551440000000  0.4223090000000 1.0
C      1  0.4262740000000  0.5865920000000  0.5211300000000 1.0
C      1  0.4992350000000  0.4930180000000  0.4837720000000 1.0
C      1  0.4997380000000  0.5116310000000  0.4122270000000 1.0
C      1  0.4999850000000  0.4894820000000  0.4367390000000 1.0
C      1  0.4782240000000  0.4576780000000  0.5949340000000 1.0
C      1  0.4335400000000  0.4444040000000  0.5182510000000 1.0
C      1  0.5592830000000  0.4223370000000  0.4599890000000 1.0
C      1  0.6036770000000  0.4459690000000  0.5288590000000 1.0
C      1  0.4741350000000  0.4366640000000  0.5495140000000 1.0
C      1  0.5253730000000  0.5521250000000  0.5555110000000 1.0
C      1  0.4462660000000  0.5430260000000  0.5853590000000 1.0
C      1  0.4496410000000  0.5050340000000  0.4156970000000 1.0
C      1  0.4831170000000  0.4678820000000  0.4752670000000 1.0
C      1  0.4468530000000  0.5079020000000  0.4853990000000 1.0
C      1  0.4384090000000  0.5160380000000  0.4402560000000 1.0
C      1  0.5404140000000  0.4111610000000  0.5254710000000 1.0
C      1  0.4609860000000  0.5117190000000  0.4594590000000 1.0
C      1  0.4150010000000  0.5027970000000  0.4533600000000 1.0
C      1  0.5396420000000  0.4077830000000  0.4761990000000 1.0
C      1  0.4345500000000  0.4554120000000  0.4463960000000 1.0
C      1  0.4179010000000  0.5602000000000  0.5164170000000 1.0
C      1  0.5225930000000  0.5267680000000  0.4282320000000 1.0
C      1  0.5035710000000  0.4396890000000  0.5433180000000 1.0
C      1  0.4372780000000  0.4959600000000  0.5730270000000 1.0
C      1  0.5513420000000  0.4619310000000  0.4415690000000 1.0
C      1  0.5577790000000  0.5579860000000  0.4351890000000 1.0
C      1  0.5489680000000  0.5828700000000  0.5338750000000 1.0
C      1  0.4627910000000  0.5157110000000  0.5089150000000 1.0
C      1  0.5276180000000  0.4860980000000  0.4823310000000 1.0
C      1  0.5685070000000  0.4694980000000  0.5610380000000 1.0
C      1  0.5117990000000  0.4153300000000  0.5263800000000 1.0
C      1  0.4177400000000  0.5201690000000  0.4848670000000 1.0
C      1  0.5508880000000  0.4858840000000  0.5439640000000 1.0
C      1  0.5946280000000  0.4914670000000  0.5426050000000 1.0
C      1  0.5780520000000  0.4625230000000  0.4564300000000 1.0
C      1  0.4192690000000  0.5506930000000  0.4881410000000 1.0
C      1  0.4796970000000  0.4564780000000  0.5047330000000 1.0
C      1  0.4916190000000  0.5066200000000  0.5089710000000 1.0
C      1  0.4419400000000  0.4694450000000  0.5676900000000 1.0
C      1  0.5149460000000  0.5763070000000  0.4314790000000 1.0
C      1  0.4678500000000  0.5899570000000  0.4428930000000 1.0
C      1  0.5231590000000  0.4505840000000  0.5662330000000 1.0
C      1  0.4269240000000  0.5497520000000  0.5660060000000 1.0
C      1  0.5164050000000  0.4761730000000  0.4095350000000 1.0
C      1  0.4415550000000  0.4788600000000  0.4862030000000 1.0
C      1  0.4909180000000  0.4819020000000  0.5878030000000 1.0
C      1  0.5691190000000  0.5245890000000  0.5117070000000 1.0
C      1  0.4924140000000  0.5347570000000  0.5831190000000 1.0
C      1  0.5525680000000  0.4452180000000  0.5614190000000 1.0
C      1  0.5994940000000  0.4723500000000  0.5208750000000 1.0
C      1  0.4706100000000  0.4984550000000  0.5530080000000 1.0
C      1  0.5857020000000  0.4247410000000  0.5276030000000 1.0
C      1  0.5797910000000  0.4741690000000  0.4980140000000 1.0
C      1  0.5135860000000  0.5263820000000  0.5442240000000 1.0
C      1  0.4035330000000  0.5087450000000  0.5096070000000 1.0
C      1  0.5199540000000  0.5815640000000  0.5430610000000 1.0
C      1  0.4739570000000  0.5834300000000  0.5344020000000 1.0
C      1  0.5555690000000  0.5093140000000  0.4576600000000 1.0
C      1  0.4805760000000  0.5088280000000  0.5956970000000 1.0
C      1  0.5807380000000  0.5179690000000  0.5391430000000 1.0
C      1  0.4216700000000  0.4749200000000  0.4646270000000 1.0
C      1  0.4192020000000  0.5143460000000  0.5343910000000 1.0
C      1  0.4206350000000  0.5426420000000  0.5396080000000 1.0
C      1  0.5877990000000  0.5112150000000  0.4945050000000 1.0
C      1  0.4514400000000  0.4347860000000  0.4604570000000 1.0
C      1  0.4720250000000  0.5473490000000  0.4342110000000 1.0
C      1  0.4932830000000  0.4883670000000  0.5324970000000 1.0
C      1  0.5003570000000  0.5538370000000  0.5058150000000 1.0
C      1  0.5675910000000  0.5347280000000  0.5608730000000 1.0
C      1  0.5044350000000  0.4504610000000  0.4581340000000 1.0
C      1  0.4018980000000  0.4805380000000  0.5109040000000 1.0
C      1  0.4437550000000  0.4180050000000  0.4837600000000 1.0
C      1  0.5175870000000  0.4787730000000  0.5767200000000 1.0
C      1  0.4958810000000  0.4132710000000  0.4504130000000 1.0
C      1  0.5290690000000  0.4662100000000  0.4608150000000 1.0
C      1  0.4722330000000  0.5243470000000  0.4129740000000 1.0
C      1  0.5100050000000  0.4109070000000  0.4754530000000 1.0
C      1  0.4441580000000  0.5708080000000  0.4436970000000 1.0
C      1  0.5027600000000  0.4624850000000  0.5219560000000 1.0
C      1  0.4368430000000  0.5690190000000  0.4718350000000 1.0
C      1  0.4515400000000  0.5139510000000  0.5902910000000 1.0
C      1  0.4733900000000  0.4464650000000  0.4199380000000 1.0
C      1  0.4998630000000  0.5802560000000  0.5206380000000 1.0
C      1  0.4961010000000  0.4078890000000  0.5014520000000 1.0
C      1  0.4718350000000  0.5575180000000  0.5828260000000 1.0
C      1  0.5284480000000  0.4657740000000  0.5052730000000 1.0
C      1  0.5249270000000  0.5428500000000  0.5857090000000 1.0
C      1  0.5825160000000  0.5053290000000  0.4673060000000 1.0
C      1  0.5393990000000  0.5301910000000  0.4711080000000 1.0
C      1  0.4824230000000  0.5350800000000  0.4612150000000 1.0
C      1  0.4216690000000  0.4282400000000  0.4984120000000 1.0
C      1  0.4783670000000  0.5512080000000  0.4873710000000 1.0
C      1  0.5592500000000  0.4279670000000  0.5389670000000 1.0
C      1  0.4707010000000  0.4249630000000  0.4411530000000 1.0
C      1  0.5497520000000  0.4333720000000  0.4351150000000 1.0
C      1  0.5118700000000  0.5261200000000  0.4572840000000 1.0
C      1  0.4711340000000  0.5762800000000  0.5615230000000 1.0
C      1  0.4535810000000  0.5862310000000  0.5144610000000 1.0
C      1  0.5127100000000  0.5283770000000  0.5143150000000 1.0
C      1  0.5502290000000  0.5578310000000  0.4627580000000 1.0
C      1  0.5777560000000  0.4412690000000  0.4772470000000 1.0
C      1  0.4546550000000  0.4695760000000  0.4286140000000 1.0
C      1  0.4304060000000  0.4736160000000  0.5129870000000 1.0
C      1  0.5963250000000  0.4833000000000  0.4584110000000 1.0
C      1  0.5452130000000  0.4807110000000  0.4181700000000 1.0
C      1  0.4613410000000  0.5762660000000  0.4870400000000 1.0
C      1  0.4621970000000  0.4374270000000  0.5209430000000 1.0
C      1  0.4861960000000  0.5256410000000  0.5551790000000 1.0
END
