TITL C-950531-5884-106 4.83482043507712e-07 125000 -1026.49013524341 0 0 165 (C1) n - 1
REM
REM in /home/bkarasulu/work/CARBON/AIRSS/Generating-Clusters/EDIP-Nigel-Params/with-SteepDescent/Only-C1/SD-CG/HFTN-CG
REM
REM
REM
REM
REM
REM ./C.cell (11c1c37f851c82e70ff6c80c92926a4b)
REM
REM compiler GCC version 9.2.1 20190827 (Red Hat 9.2.1-1)
REM options -cpp -mtune=generic -march=x86-64 -g -O0 -fpre-include=/usr/include/finclude/math-vector-fortran.h
REM seed 1686704923 -268486059 -137226201 941000919 -177263670 -918547245 -374816372 -929431675 49816348 1021393623 -730123718 1045165585 246248117 -103260049 -2003594002 -1398979281 1967447886 623651298 1769592806 750291720 -1239736107 1850768079 -1338368249 -2017311461 -628280456 -76092673 -702251088 -1405285684 -273813012 1922433724 758108886 710856131 2035530831
REM
CELL 1.54180   50.00000   50.00000   50.00000   90.00000   90.00000   90.00000
LATT -1
SFAC C  
C      1  0.5409590000000  0.6006470000000  0.4788830000000 1.0
C      1  0.4879730000000  0.5256680000000  0.4555990000000 1.0
C      1  0.4552130000000  0.4327470000000  0.5761610000000 1.0
C      1  0.5324570000000  0.5875240000000  0.5390650000000 1.0
C      1  0.5219660000000  0.4657240000000  0.4933880000000 1.0
C      1  0.4270780000000  0.4316550000000  0.5712930000000 1.0
C      1  0.5863220000000  0.5118920000000  0.5525050000000 1.0
C      1  0.4313400000000  0.5398140000000  0.5707500000000 1.0
C      1  0.4570120000000  0.4842130000000  0.5751820000000 1.0
C      1  0.4486010000000  0.5266450000000  0.4201690000000 1.0
C      1  0.5115580000000  0.3895370000000  0.5116890000000 1.0
C      1  0.4467780000000  0.4401140000000  0.5310410000000 1.0
C      1  0.4933710000000  0.4176050000000  0.5474310000000 1.0
C      1  0.4074720000000  0.5386110000000  0.5015680000000 1.0
C      1  0.5076730000000  0.4116490000000  0.4804010000000 1.0
C      1  0.5637260000000  0.5810860000000  0.4829100000000 1.0
C      1  0.4633040000000  0.4160670000000  0.5420000000000 1.0
C      1  0.4265800000000  0.4941970000000  0.4836490000000 1.0
C      1  0.3912630000000  0.4835370000000  0.5391710000000 1.0
C      1  0.5322570000000  0.4250920000000  0.4335210000000 1.0
C      1  0.5869680000000  0.4497990000000  0.4990170000000 1.0
C      1  0.4539640000000  0.4942930000000  0.5246860000000 1.0
C      1  0.4613440000000  0.4017270000000  0.5141560000000 1.0
C      1  0.4305370000000  0.5653490000000  0.4590140000000 1.0
C      1  0.4964900000000  0.4229960000000  0.5749250000000 1.0
C      1  0.4747250000000  0.5381220000000  0.5418830000000 1.0
C      1  0.5441890000000  0.4114000000000  0.5421200000000 1.0
C      1  0.4383610000000  0.4848350000000  0.4100610000000 1.0
C      1  0.4277120000000  0.4652600000000  0.4928350000000 1.0
C      1  0.5949820000000  0.4981150000000  0.5067950000000 1.0
C      1  0.6027970000000  0.4747740000000  0.4892420000000 1.0
C      1  0.5255580000000  0.4716180000000  0.4024350000000 1.0
C      1  0.5486580000000  0.5445160000000  0.4148680000000 1.0
C      1  0.5374080000000  0.4358080000000  0.4589160000000 1.0
C      1  0.4863880000000  0.4224490000000  0.4339080000000 1.0
C      1  0.5300280000000  0.4921330000000  0.4434430000000 1.0
C      1  0.5070300000000  0.4492510000000  0.5798620000000 1.0
C      1  0.5466340000000  0.5400760000000  0.5095310000000 1.0
C      1  0.6131520000000  0.5308290000000  0.4748140000000 1.0
C      1  0.5124190000000  0.5965360000000  0.5218260000000 1.0
C      1  0.5555480000000  0.4821180000000  0.4333840000000 1.0
C      1  0.4849730000000  0.4100380000000  0.4595140000000 1.0
C      1  0.4766100000000  0.5162600000000  0.3946450000000 1.0
C      1  0.5657700000000  0.5240620000000  0.4249500000000 1.0
C      1  0.4923350000000  0.4585870000000  0.5309190000000 1.0
C      1  0.5488130000000  0.5365530000000  0.5624020000000 1.0
C      1  0.5130850000000  0.5420740000000  0.4490600000000 1.0
C      1  0.3878480000000  0.4975830000000  0.5154520000000 1.0
C      1  0.4202140000000  0.5698640000000  0.4861260000000 1.0
C      1  0.4105530000000  0.4602750000000  0.4452920000000 1.0
C      1  0.4167880000000  0.4356820000000  0.4614070000000 1.0
C      1  0.5016840000000  0.5670140000000  0.4225970000000 1.0
C      1  0.5485530000000  0.5670590000000  0.4338230000000 1.0
C      1  0.5916450000000  0.5297030000000  0.4358740000000 1.0
C      1  0.5135590000000  0.5444560000000  0.5166780000000 1.0
C      1  0.5885990000000  0.4628130000000  0.5410100000000 1.0
C      1  0.5690600000000  0.4735140000000  0.4588490000000 1.0
C      1  0.5133680000000  0.5076310000000  0.5722880000000 1.0
C      1  0.5098520000000  0.5093410000000  0.6166250000000 1.0
C      1  0.5320930000000  0.4348850000000  0.5851080000000 1.0
C      1  0.4891580000000  0.4615310000000  0.6015970000000 1.0
C      1  0.4273080000000  0.5083110000000  0.5317520000000 1.0
C      1  0.5531960000000  0.5217980000000  0.5340120000000 1.0
C      1  0.5091470000000  0.4275610000000  0.4182320000000 1.0
C      1  0.5003130000000  0.4309320000000  0.5060820000000 1.0
C      1  0.4693880000000  0.5929030000000  0.4716590000000 1.0
C      1  0.4764310000000  0.4849160000000  0.4820670000000 1.0
C      1  0.5959420000000  0.4902440000000  0.5350000000000 1.0
C      1  0.5244630000000  0.5346830000000  0.4039880000000 1.0
C      1  0.5459800000000  0.4782700000000  0.5070300000000 1.0
C      1  0.4184270000000  0.5435940000000  0.4465870000000 1.0
C      1  0.4618640000000  0.4589010000000  0.5901020000000 1.0
C      1  0.5376050000000  0.5216710000000  0.4507970000000 1.0
C      1  0.4816940000000  0.5010350000000  0.5706490000000 1.0
C      1  0.5508830000000  0.4315920000000  0.5631700000000 1.0
C      1  0.4848770000000  0.3896710000000  0.5026610000000 1.0
C      1  0.5679290000000  0.5669230000000  0.4568320000000 1.0
C      1  0.4609800000000  0.5490730000000  0.4071000000000 1.0
C      1  0.5100090000000  0.4895210000000  0.4208690000000 1.0
C      1  0.5277900000000  0.4866770000000  0.5558830000000 1.0
C      1  0.4729210000000  0.5239880000000  0.5876890000000 1.0
C      1  0.5586910000000  0.5782240000000  0.5360460000000 1.0
C      1  0.4836060000000  0.4726410000000  0.4331550000000 1.0
C      1  0.5587300000000  0.4778640000000  0.5745950000000 1.0
C      1  0.4249230000000  0.4476750000000  0.5480930000000 1.0
C      1  0.5609260000000  0.4086880000000  0.4939700000000 1.0
C      1  0.5235440000000  0.5823740000000  0.4344660000000 1.0
C      1  0.4565880000000  0.4106890000000  0.4658490000000 1.0
C      1  0.4202510000000  0.5546850000000  0.5468480000000 1.0
C      1  0.4160660000000  0.5171010000000  0.4390050000000 1.0
C      1  0.4365230000000  0.5835470000000  0.5070070000000 1.0
C      1  0.5805570000000  0.4274510000000  0.4805160000000 1.0
C      1  0.4535960000000  0.4590600000000  0.5085490000000 1.0
C      1  0.5181960000000  0.5888040000000  0.4626410000000 1.0
C      1  0.4274620000000  0.5374880000000  0.5234140000000 1.0
C      1  0.4152880000000  0.5062310000000  0.5591390000000 1.0
C      1  0.4360370000000  0.5789060000000  0.5369490000000 1.0
C      1  0.5605430000000  0.4534740000000  0.5164460000000 1.0
C      1  0.5930120000000  0.5539640000000  0.4520080000000 1.0
C      1  0.6042410000000  0.5111080000000  0.4550840000000 1.0
C      1  0.4779640000000  0.4611920000000  0.3966870000000 1.0
C      1  0.4606670000000  0.5682180000000  0.4557340000000 1.0
C      1  0.4639150000000  0.5906800000000  0.5004270000000 1.0
C      1  0.4952120000000  0.5766160000000  0.5849800000000 1.0
C      1  0.4581550000000  0.4880220000000  0.4432130000000 1.0
C      1  0.4969870000000  0.5027010000000  0.4706900000000 1.0
C      1  0.4173360000000  0.4228260000000  0.4889630000000 1.0
C      1  0.5938550000000  0.5492210000000  0.5174560000000 1.0
C      1  0.4003010000000  0.4564720000000  0.5345870000000 1.0
C      1  0.5226870000000  0.6137460000000  0.5001460000000 1.0
C      1  0.5181680000000  0.5384980000000  0.5664340000000 1.0
C      1  0.5748780000000  0.5020140000000  0.5781520000000 1.0
C      1  0.5680610000000  0.5600860000000  0.5576320000000 1.0
C      1  0.4637850000000  0.4872930000000  0.3963060000000 1.0
C      1  0.5656970000000  0.4431430000000  0.4604910000000 1.0
C      1  0.4759300000000  0.4440310000000  0.4864950000000 1.0
C      1  0.5089590000000  0.4641170000000  0.5539190000000 1.0
C      1  0.4916690000000  0.4533220000000  0.4566530000000 1.0
C      1  0.5682190000000  0.4555870000000  0.5596220000000 1.0
C      1  0.5514770000000  0.4645090000000  0.4116230000000 1.0
C      1  0.5027450000000  0.5489170000000  0.5434480000000 1.0
C      1  0.5008970000000  0.6261470000000  0.4864110000000 1.0
C      1  0.4296270000000  0.4603990000000  0.4229360000000 1.0
C      1  0.4826290000000  0.5912580000000  0.5235160000000 1.0
C      1  0.5903430000000  0.5425120000000  0.5464000000000 1.0
C      1  0.4640760000000  0.5840110000000  0.5466830000000 1.0
C      1  0.4941090000000  0.5335670000000  0.6066140000000 1.0
C      1  0.5553230000000  0.5205780000000  0.5888900000000 1.0
C      1  0.5043600000000  0.5149060000000  0.4057270000000 1.0
C      1  0.4460930000000  0.4372670000000  0.4227230000000 1.0
C      1  0.5638360000000  0.4045740000000  0.5224390000000 1.0
C      1  0.5095380000000  0.5133310000000  0.5180310000000 1.0
C      1  0.5163860000000  0.4030240000000  0.5362230000000 1.0
C      1  0.4946160000000  0.6068890000000  0.4665240000000 1.0
C      1  0.4695120000000  0.5733360000000  0.5740620000000 1.0
C      1  0.5143860000000  0.5616080000000  0.4730160000000 1.0
C      1  0.4782810000000  0.5079560000000  0.5395320000000 1.0
C      1  0.4734110000000  0.5449650000000  0.4725790000000 1.0
C      1  0.4543800000000  0.5023920000000  0.4948820000000 1.0
C      1  0.5624430000000  0.4924990000000  0.4857980000000 1.0
C      1  0.4726880000000  0.5676670000000  0.4263250000000 1.0
C      1  0.5307350000000  0.5037750000000  0.5966710000000 1.0
C      1  0.5104070000000  0.5538070000000  0.5913220000000 1.0
C      1  0.5665010000000  0.5640140000000  0.5102740000000 1.0
C      1  0.4584050000000  0.5315080000000  0.4925710000000 1.0
C      1  0.4613080000000  0.5445090000000  0.5696020000000 1.0
C      1  0.4035520000000  0.4540280000000  0.5055540000000 1.0
C      1  0.4271210000000  0.4928260000000  0.4528880000000 1.0
C      1  0.4024190000000  0.5102910000000  0.4948880000000 1.0
C      1  0.5395470000000  0.4305080000000  0.5027740000000 1.0
C      1  0.4347930000000  0.5024890000000  0.5799940000000 1.0
C      1  0.5173690000000  0.5094220000000  0.4895600000000 1.0
C      1  0.4681060000000  0.5140400000000  0.4375020000000 1.0
C      1  0.4933290000000  0.5586200000000  0.4958290000000 1.0
C      1  0.6051560000000  0.5260040000000  0.5017670000000 1.0
C      1  0.4943610000000  0.4855810000000  0.6159720000000 1.0
C      1  0.4957680000000  0.4741380000000  0.5058080000000 1.0
C      1  0.5053040000000  0.4506690000000  0.3996750000000 1.0
C      1  0.5452660000000  0.5182390000000  0.4810890000000 1.0
C      1  0.5208940000000  0.4607790000000  0.4635370000000 1.0
C      1  0.4391960000000  0.4243600000000  0.4470560000000 1.0
C      1  0.4609470000000  0.5496360000000  0.5160860000000 1.0
C      1  0.5345730000000  0.4989170000000  0.5294540000000 1.0
C      1  0.4451380000000  0.4128490000000  0.4921810000000 1.0
C      1  0.5979320000000  0.4817010000000  0.4607220000000 1.0
END
