TITL C-950530-3293-606 1.14755933230791e-07 125000 -1191.093069367 0 0 190 (C1) n - 1
REM
REM in /home/bkarasulu/work/CARBON/AIRSS/Generating-Clusters/EDIP-Nigel-Params/with-SteepDescent/Only-C1/SD-CG/HFTN-CG
REM
REM
REM
REM
REM
REM ./C.cell (11c1c37f851c82e70ff6c80c92926a4b)
REM
REM compiler GCC version 9.2.1 20190827 (Red Hat 9.2.1-1)
REM options -cpp -mtune=generic -march=x86-64 -g -O0 -fpre-include=/usr/include/finclude/math-vector-fortran.h
REM seed 919309071 349353063 758132115 1291750472 46149412 -844074891 702186705 -795744793 180716722 680084647 -1175471020 -548006578 -987430012 2091576616 -249495293 -669868603 -1266149234 -972493228 -1219960470 891935869 -1898428048 548622710 1887057165 1982678943 252969188 1314225486 -2037951946 -1638773224 -251969256 -2042404252 -772903333 -1422418281 -555618989
REM
CELL 1.54180   50.00000   50.00000   50.00000   90.00000   90.00000   90.00000
LATT -1
SFAC C  
C      1  0.6211370000000  0.5097260000000  0.5068040000000 1.0
C      1  0.4504250000000  0.4034060000000  0.4494090000000 1.0
C      1  0.3817810000000  0.5118170000000  0.5445970000000 1.0
C      1  0.4936050000000  0.5613510000000  0.5795370000000 1.0
C      1  0.4628970000000  0.4465550000000  0.6040760000000 1.0
C      1  0.4802990000000  0.5859540000000  0.4520920000000 1.0
C      1  0.4227520000000  0.5622810000000  0.5070940000000 1.0
C      1  0.4813040000000  0.4258880000000  0.5929000000000 1.0
C      1  0.5128790000000  0.5409800000000  0.4181120000000 1.0
C      1  0.5795930000000  0.5797230000000  0.4730320000000 1.0
C      1  0.4918500000000  0.5865470000000  0.5089550000000 1.0
C      1  0.5207420000000  0.4601820000000  0.5765790000000 1.0
C      1  0.4257260000000  0.5264350000000  0.5305070000000 1.0
C      1  0.4301470000000  0.4517240000000  0.4398040000000 1.0
C      1  0.5521640000000  0.5002330000000  0.5961780000000 1.0
C      1  0.4455110000000  0.4270990000000  0.4315630000000 1.0
C      1  0.4817410000000  0.5400490000000  0.4750640000000 1.0
C      1  0.5892110000000  0.4345590000000  0.4748320000000 1.0
C      1  0.4746720000000  0.6004020000000  0.5580710000000 1.0
C      1  0.5551750000000  0.5316470000000  0.4290750000000 1.0
C      1  0.5510030000000  0.4529490000000  0.4137240000000 1.0
C      1  0.5249610000000  0.3871970000000  0.4852170000000 1.0
C      1  0.4056270000000  0.5440500000000  0.4875900000000 1.0
C      1  0.6127160000000  0.4672320000000  0.5159740000000 1.0
C      1  0.5741260000000  0.4307220000000  0.4509560000000 1.0
C      1  0.4774480000000  0.5567910000000  0.4520870000000 1.0
C      1  0.4145800000000  0.5347760000000  0.4588410000000 1.0
C      1  0.5330250000000  0.5592980000000  0.5271530000000 1.0
C      1  0.5297740000000  0.3997800000000  0.5358810000000 1.0
C      1  0.5038370000000  0.4795800000000  0.5546600000000 1.0
C      1  0.4792540000000  0.3915060000000  0.5467860000000 1.0
C      1  0.4794130000000  0.4002720000000  0.4975360000000 1.0
C      1  0.4925980000000  0.4903500000000  0.4786680000000 1.0
C      1  0.5305200000000  0.5760180000000  0.4569610000000 1.0
C      1  0.4650810000000  0.4797760000000  0.4704650000000 1.0
C      1  0.5235560000000  0.4470080000000  0.4127460000000 1.0
C      1  0.4298280000000  0.5550770000000  0.4408050000000 1.0
C      1  0.5632580000000  0.5960140000000  0.5210270000000 1.0
C      1  0.4343220000000  0.3939980000000  0.5001120000000 1.0
C      1  0.4361480000000  0.5152290000000  0.4676550000000 1.0
C      1  0.5100630000000  0.5905430000000  0.4138120000000 1.0
C      1  0.4759330000000  0.4521370000000  0.3954710000000 1.0
C      1  0.5476930000000  0.5640140000000  0.5534680000000 1.0
C      1  0.5052670000000  0.4614660000000  0.3946700000000 1.0
C      1  0.4377680000000  0.4479620000000  0.5892470000000 1.0
C      1  0.4170940000000  0.4792400000000  0.5542840000000 1.0
C      1  0.5278920000000  0.4100360000000  0.5079940000000 1.0
C      1  0.6061570000000  0.5181670000000  0.4274070000000 1.0
C      1  0.4742790000000  0.5482280000000  0.5967240000000 1.0
C      1  0.4709540000000  0.5626670000000  0.4076110000000 1.0
C      1  0.5367080000000  0.5000870000000  0.4039200000000 1.0
C      1  0.6180900000000  0.5282530000000  0.5284940000000 1.0
C      1  0.5451700000000  0.4933400000000  0.5484110000000 1.0
C      1  0.4552950000000  0.4778830000000  0.4039170000000 1.0
C      1  0.5068240000000  0.3879340000000  0.5455170000000 1.0
C      1  0.4383910000000  0.4987890000000  0.5922420000000 1.0
C      1  0.5108850000000  0.5172890000000  0.6115510000000 1.0
C      1  0.4913210000000  0.4900200000000  0.5087260000000 1.0
C      1  0.4691710000000  0.4507770000000  0.4600120000000 1.0
C      1  0.5508110000000  0.4582710000000  0.5750120000000 1.0
C      1  0.5603940000000  0.5400670000000  0.5652510000000 1.0
C      1  0.4219810000000  0.4971140000000  0.4871860000000 1.0
C      1  0.5084520000000  0.4916140000000  0.3998800000000 1.0
C      1  0.5006160000000  0.4469400000000  0.4506740000000 1.0
C      1  0.5066700000000  0.4669340000000  0.6123190000000 1.0
C      1  0.4145010000000  0.5754320000000  0.5332030000000 1.0
C      1  0.4658380000000  0.3883800000000  0.5210100000000 1.0
C      1  0.4866170000000  0.4389650000000  0.5473350000000 1.0
C      1  0.4787440000000  0.4643350000000  0.5587310000000 1.0
C      1  0.5841920000000  0.4909170000000  0.4791660000000 1.0
C      1  0.5355000000000  0.5531820000000  0.4762750000000 1.0
C      1  0.4612870000000  0.4335380000000  0.4852620000000 1.0
C      1  0.3993790000000  0.5023680000000  0.4455830000000 1.0
C      1  0.5712080000000  0.4531330000000  0.4331690000000 1.0
C      1  0.5005880000000  0.4904160000000  0.4277960000000 1.0
C      1  0.5933660000000  0.4720260000000  0.4338590000000 1.0
C      1  0.3955500000000  0.4571130000000  0.5116250000000 1.0
C      1  0.4520860000000  0.5937970000000  0.4637410000000 1.0
C      1  0.5260850000000  0.5174480000000  0.5496770000000 1.0
C      1  0.4769140000000  0.4719910000000  0.6107530000000 1.0
C      1  0.5889290000000  0.4917600000000  0.5555680000000 1.0
C      1  0.5941950000000  0.5563130000000  0.4597510000000 1.0
C      1  0.5830640000000  0.5813500000000  0.5040920000000 1.0
C      1  0.5382370000000  0.4645200000000  0.5068580000000 1.0
C      1  0.4653360000000  0.5188260000000  0.4279450000000 1.0
C      1  0.4428720000000  0.4118300000000  0.4763580000000 1.0
C      1  0.4836460000000  0.5569070000000  0.5006760000000 1.0
C      1  0.5618420000000  0.4859520000000  0.5714090000000 1.0
C      1  0.5578650000000  0.5900640000000  0.4545650000000 1.0
C      1  0.4666770000000  0.6039110000000  0.5107380000000 1.0
C      1  0.4312360000000  0.5814760000000  0.4496820000000 1.0
C      1  0.4428310000000  0.4229280000000  0.5530100000000 1.0
C      1  0.5369290000000  0.5287790000000  0.4073600000000 1.0
C      1  0.4969310000000  0.5139770000000  0.5622770000000 1.0
C      1  0.4277610000000  0.4249470000000  0.5763850000000 1.0
C      1  0.5303970000000  0.5241450000000  0.4740030000000 1.0
C      1  0.4582480000000  0.5257850000000  0.4796860000000 1.0
C      1  0.5874830000000  0.5436290000000  0.5563530000000 1.0
C      1  0.4973240000000  0.6176040000000  0.5587670000000 1.0
C      1  0.5122880000000  0.5999060000000  0.4935420000000 1.0
C      1  0.4386890000000  0.4465700000000  0.5334130000000 1.0
C      1  0.5762460000000  0.5374870000000  0.5033720000000 1.0
C      1  0.6171470000000  0.5197730000000  0.4811920000000 1.0
C      1  0.4294280000000  0.4741630000000  0.5804600000000 1.0
C      1  0.4409100000000  0.4497940000000  0.5014850000000 1.0
C      1  0.5452930000000  0.4151520000000  0.5530040000000 1.0
C      1  0.4797840000000  0.3960500000000  0.4489630000000 1.0
C      1  0.4547850000000  0.5181640000000  0.5297980000000 1.0
C      1  0.5626540000000  0.5806040000000  0.4268250000000 1.0
C      1  0.4830810000000  0.5876080000000  0.4208450000000 1.0
C      1  0.4257210000000  0.5466000000000  0.5783490000000 1.0
C      1  0.5387530000000  0.4722090000000  0.4765920000000 1.0
C      1  0.5518990000000  0.5588990000000  0.5007170000000 1.0
C      1  0.4292140000000  0.5981820000000  0.5398050000000 1.0
C      1  0.5083910000000  0.4698310000000  0.5217520000000 1.0
C      1  0.4959840000000  0.5175290000000  0.4365110000000 1.0
C      1  0.5976700000000  0.4679080000000  0.5409870000000 1.0
C      1  0.5167380000000  0.5438290000000  0.5763480000000 1.0
C      1  0.4932610000000  0.4444710000000  0.5201830000000 1.0
C      1  0.5006670000000  0.4223680000000  0.5020720000000 1.0
C      1  0.5255460000000  0.5698430000000  0.4263800000000 1.0
C      1  0.4829080000000  0.5209330000000  0.6033390000000 1.0
C      1  0.4585790000000  0.5479730000000  0.4312640000000 1.0
C      1  0.5597540000000  0.5013420000000  0.4326180000000 1.0
C      1  0.5283720000000  0.4029780000000  0.4604790000000 1.0
C      1  0.5063770000000  0.5799270000000  0.5342160000000 1.0
C      1  0.5747060000000  0.5536190000000  0.4262550000000 1.0
C      1  0.5285030000000  0.5389980000000  0.6024110000000 1.0
C      1  0.4147960000000  0.5559390000000  0.5535730000000 1.0
C      1  0.4108280000000  0.4121610000000  0.4927630000000 1.0
C      1  0.5887770000000  0.4648230000000  0.4975500000000 1.0
C      1  0.4129400000000  0.4428630000000  0.4907420000000 1.0
C      1  0.5877270000000  0.4974850000000  0.4219390000000 1.0
C      1  0.4933070000000  0.5442830000000  0.3955320000000 1.0
C      1  0.3816280000000  0.4813240000000  0.5082510000000 1.0
C      1  0.4776250000000  0.5328870000000  0.5439950000000 1.0
C      1  0.4534740000000  0.5622020000000  0.5037670000000 1.0
C      1  0.5550050000000  0.5296520000000  0.5933800000000 1.0
C      1  0.5468190000000  0.4342530000000  0.5043740000000 1.0
C      1  0.4099070000000  0.5091120000000  0.5522160000000 1.0
C      1  0.4476990000000  0.5554300000000  0.5925830000000 1.0
C      1  0.4103560000000  0.4553210000000  0.4624510000000 1.0
C      1  0.5553450000000  0.4955960000000  0.4658370000000 1.0
C      1  0.5746660000000  0.4288940000000  0.4986770000000 1.0
C      1  0.5591510000000  0.4815440000000  0.5242140000000 1.0
C      1  0.4097860000000  0.4550740000000  0.5370870000000 1.0
C      1  0.4623300000000  0.4907420000000  0.5197070000000 1.0
C      1  0.4460940000000  0.5904050000000  0.4934810000000 1.0
C      1  0.5932980000000  0.5340420000000  0.4785970000000 1.0
C      1  0.4702480000000  0.4307060000000  0.4161770000000 1.0
C      1  0.4465730000000  0.4794980000000  0.4954890000000 1.0
C      1  0.4218030000000  0.4985330000000  0.4271570000000 1.0
C      1  0.5039090000000  0.4211180000000  0.4663470000000 1.0
C      1  0.5952120000000  0.5505150000000  0.5252090000000 1.0
C      1  0.4764890000000  0.4727850000000  0.4287370000000 1.0
C      1  0.4873550000000  0.5147470000000  0.3876920000000 1.0
C      1  0.3832730000000  0.5078780000000  0.5165830000000 1.0
C      1  0.5010410000000  0.5182070000000  0.4668410000000 1.0
C      1  0.5368690000000  0.6045010000000  0.5104960000000 1.0
C      1  0.4644610000000  0.4984990000000  0.6062980000000 1.0
C      1  0.4206230000000  0.5187110000000  0.5789870000000 1.0
C      1  0.4014760000000  0.4836770000000  0.4687370000000 1.0
C      1  0.4541530000000  0.4722770000000  0.5436820000000 1.0
C      1  0.4952740000000  0.3812040000000  0.4803360000000 1.0
C      1  0.5169550000000  0.6058830000000  0.5430150000000 1.0
C      1  0.5764110000000  0.4496300000000  0.5371900000000 1.0
C      1  0.5222270000000  0.5314050000000  0.5237580000000 1.0
C      1  0.4468000000000  0.5013880000000  0.4438030000000 1.0
C      1  0.5536050000000  0.4124600000000  0.4539420000000 1.0
C      1  0.4712720000000  0.4173270000000  0.5600340000000 1.0
C      1  0.5350500000000  0.5151440000000  0.5015960000000 1.0
C      1  0.5082720000000  0.5939420000000  0.4652430000000 1.0
C      1  0.4899710000000  0.4119270000000  0.4251200000000 1.0
C      1  0.4551620000000  0.6088050000000  0.5375420000000 1.0
C      1  0.4086520000000  0.5192970000000  0.5055210000000 1.0
C      1  0.4937170000000  0.5371740000000  0.5202450000000 1.0
C      1  0.6022410000000  0.4789240000000  0.4595190000000 1.0
C      1  0.5641240000000  0.5865280000000  0.5477890000000 1.0
C      1  0.5633250000000  0.5083680000000  0.5070430000000 1.0
C      1  0.6337230000000  0.4855410000000  0.5120760000000 1.0
C      1  0.6038010000000  0.5458740000000  0.4311320000000 1.0
C      1  0.5087750000000  0.4383140000000  0.5967200000000 1.0
C      1  0.5613020000000  0.4375270000000  0.5580230000000 1.0
C      1  0.5159890000000  0.4219360000000  0.4224790000000 1.0
C      1  0.4281650000000  0.4712050000000  0.4176020000000 1.0
C      1  0.4831030000000  0.5703570000000  0.5536740000000 1.0
C      1  0.5120190000000  0.4710160000000  0.4658730000000 1.0
C      1  0.6038970000000  0.5182330000000  0.5541270000000 1.0
C      1  0.5240090000000  0.4924050000000  0.6049060000000 1.0
C      1  0.4615470000000  0.5080970000000  0.3997720000000 1.0
END
