TITL C-951346-9544-696 0.000572427117124914 125000 -513.247582946142 0 0 84 (C1) n - 1
REM
REM in /home/bkarasulu/work/CARBON/AIRSS/Generating-Clusters/EDIP-Nigel-Params/with-SteepDescent/Only-C1/SD-CG/HFTN-CG
REM
REM
REM
REM
REM
REM ./C.cell (11c1c37f851c82e70ff6c80c92926a4b)
REM
REM compiler GCC version 9.2.1 20190827 (Red Hat 9.2.1-1)
REM options -cpp -mtune=generic -march=x86-64 -g -O0 -fpre-include=/usr/include/finclude/math-vector-fortran.h
REM seed -2013079578 -659721194 1089495805 307976142 206868201 219162231 -447452831 -805996393 -2017833984 -736360933 1415770519 384761409 555961940 48839621 1023330882 -1633822468 1268397188 732921909 -658782480 -873279946 -1334263667 -611024626 573651574 -252741104 -1085298747 -107407702 -316473440 -1697651091 1467331070 -1843763486 -759349908 -533013310 -553891633
REM
CELL 1.54180   50.00000   50.00000   50.00000   90.00000   90.00000   90.00000
LATT -1
SFAC C  
C      1  0.4812340000000  0.4987520000000  0.5238190000000 1.0
C      1  0.5220170000000  0.5072520000000  0.5691190000000 1.0
C      1  0.5478370000000  0.5199640000000  0.4811310000000 1.0
C      1  0.4694980000000  0.4756440000000  0.5010050000000 1.0
C      1  0.4317550000000  0.4691260000000  0.5447590000000 1.0
C      1  0.5439100000000  0.4696490000000  0.4319050000000 1.0
C      1  0.5220510000000  0.5463210000000  0.6193540000000 1.0
C      1  0.4956210000000  0.5513570000000  0.6213050000000 1.0
C      1  0.4237760000000  0.4859140000000  0.4956370000000 1.0
C      1  0.4888140000000  0.5520100000000  0.4540330000000 1.0
C      1  0.4793880000000  0.5299720000000  0.5168210000000 1.0
C      1  0.4672590000000  0.4946290000000  0.5506540000000 1.0
C      1  0.5362010000000  0.4376650000000  0.5517900000000 1.0
C      1  0.4862220000000  0.5832660000000  0.4982440000000 1.0
C      1  0.4544990000000  0.4556710000000  0.4339730000000 1.0
C      1  0.4366360000000  0.5223070000000  0.4536770000000 1.0
C      1  0.5126520000000  0.4273350000000  0.5386520000000 1.0
C      1  0.4956070000000  0.5141610000000  0.4235190000000 1.0
C      1  0.4611700000000  0.4647630000000  0.5513010000000 1.0
C      1  0.5598040000000  0.4954700000000  0.4369500000000 1.0
C      1  0.4742730000000  0.5161440000000  0.5708020000000 1.0
C      1  0.4289550000000  0.4972990000000  0.5511380000000 1.0
C      1  0.5033050000000  0.4452730000000  0.4502440000000 1.0
C      1  0.5204470000000  0.4282300000000  0.4669930000000 1.0
C      1  0.4667170000000  0.4427470000000  0.5131510000000 1.0
C      1  0.6003280000000  0.5051390000000  0.5161960000000 1.0
C      1  0.5169720000000  0.4122850000000  0.5153560000000 1.0
C      1  0.5817490000000  0.5459860000000  0.5106350000000 1.0
C      1  0.4615070000000  0.5612170000000  0.5315650000000 1.0
C      1  0.5588210000000  0.5015610000000  0.5372470000000 1.0
C      1  0.4619320000000  0.5680060000000  0.5035490000000 1.0
C      1  0.4267080000000  0.5139510000000  0.5039190000000 1.0
C      1  0.5033580000000  0.5852670000000  0.5209550000000 1.0
C      1  0.4643900000000  0.4835090000000  0.4310290000000 1.0
C      1  0.4646880000000  0.5399520000000  0.4891650000000 1.0
C      1  0.4633130000000  0.5637220000000  0.4452170000000 1.0
C      1  0.5006910000000  0.5189850000000  0.5823440000000 1.0
C      1  0.4856480000000  0.4278870000000  0.5502590000000 1.0
C      1  0.5319890000000  0.4906150000000  0.5482930000000 1.0
C      1  0.5214300000000  0.5633730000000  0.5169040000000 1.0
C      1  0.5435590000000  0.5185860000000  0.4446070000000 1.0
C      1  0.5412910000000  0.4724490000000  0.4933750000000 1.0
C      1  0.5619680000000  0.4537190000000  0.4514620000000 1.0
C      1  0.5426950000000  0.5695140000000  0.4957870000000 1.0
C      1  0.4655240000000  0.4214060000000  0.5318360000000 1.0
C      1  0.5613550000000  0.5463430000000  0.4914460000000 1.0
C      1  0.4611840000000  0.4284430000000  0.4678160000000 1.0
C      1  0.5357240000000  0.4643120000000  0.5592590000000 1.0
C      1  0.4817550000000  0.4358740000000  0.4878500000000 1.0
C      1  0.5207910000000  0.5282980000000  0.4278930000000 1.0
C      1  0.5107690000000  0.4895410000000  0.5262780000000 1.0
C      1  0.4568640000000  0.5001180000000  0.4565420000000 1.0
C      1  0.5269990000000  0.5766170000000  0.4713990000000 1.0
C      1  0.4362600000000  0.5323650000000  0.4825870000000 1.0
C      1  0.4761540000000  0.4473390000000  0.5683200000000 1.0
C      1  0.5142440000000  0.4680740000000  0.4360780000000 1.0
C      1  0.5752730000000  0.4917060000000  0.5143770000000 1.0
C      1  0.4553950000000  0.5369250000000  0.5721520000000 1.0
C      1  0.5055390000000  0.4169830000000  0.4900330000000 1.0
C      1  0.5472210000000  0.4366080000000  0.4687430000000 1.0
C      1  0.4220630000000  0.4686660000000  0.5180520000000 1.0
C      1  0.5207390000000  0.5165320000000  0.4927190000000 1.0
C      1  0.4473830000000  0.4789270000000  0.4787200000000 1.0
C      1  0.5060850000000  0.5438010000000  0.5960270000000 1.0
C      1  0.5614210000000  0.4916450000000  0.4875360000000 1.0
C      1  0.4474770000000  0.5408470000000  0.5453310000000 1.0
C      1  0.5354080000000  0.5693010000000  0.4456450000000 1.0
C      1  0.5926700000000  0.5290720000000  0.5297840000000 1.0
C      1  0.5131350000000  0.5551120000000  0.4351640000000 1.0
C      1  0.4708880000000  0.5270890000000  0.4193750000000 1.0
C      1  0.5164810000000  0.4705360000000  0.5051240000000 1.0
C      1  0.4938340000000  0.4854310000000  0.4231940000000 1.0
C      1  0.5003370000000  0.5666970000000  0.4780440000000 1.0
C      1  0.4955700000000  0.4715720000000  0.4844020000000 1.0
C      1  0.4417840000000  0.4526660000000  0.4629690000000 1.0
C      1  0.4509340000000  0.5407370000000  0.4340720000000 1.0
C      1  0.5739130000000  0.5219030000000  0.5501840000000 1.0
C      1  0.5590790000000  0.4290310000000  0.5415460000000 1.0
C      1  0.4765970000000  0.4349850000000  0.4426080000000 1.0
C      1  0.5064130000000  0.5393440000000  0.5048150000000 1.0
C      1  0.4359120000000  0.5175860000000  0.5320190000000 1.0
C      1  0.4809380000000  0.5186150000000  0.4651190000000 1.0
C      1  0.5026020000000  0.5009020000000  0.4756890000000 1.0
C      1  0.5746000000000  0.4814050000000  0.4614130000000 1.0
END
