TITL C-951344-124-9 -1.6359209129691e-06 125000 -903.106112045009 0 0 145 (C1) n - 1
REM
REM in /home/bkarasulu/work/CARBON/AIRSS/Generating-Clusters/EDIP-Nigel-Params/with-SteepDescent/Only-C1/SD-CG/HFTN-CG
REM
REM
REM
REM
REM
REM ./C.cell (11c1c37f851c82e70ff6c80c92926a4b)
REM
REM compiler GCC version 9.2.1 20190827 (Red Hat 9.2.1-1)
REM options -cpp -mtune=generic -march=x86-64 -g -O0 -fpre-include=/usr/include/finclude/math-vector-fortran.h
REM seed -981239472 246246578 197037169 2013045 -2136319384 1350823841 1595614767 1003476306 -2077300077 -1888060288 -700425658 1321779299 1529275996 1500845653 464779900 -739932409 1364662888 973777862 -1186255176 2037371316 -1867444 -1715259835 1416683161 -1048706037 -323457092 693399468 1300488231 970212330 -1561117656 -9281274 -57316731 -1828183659 -461546876
REM
CELL 1.54180   50.00000   50.00000   50.00000   90.00000   90.00000   90.00000
LATT -1
SFAC C  
C      1  0.5155440000000  0.4147360000000  0.4389290000000 1.0
C      1  0.4715430000000  0.4247590000000  0.5060350000000 1.0
C      1  0.4490300000000  0.4462280000000  0.5085740000000 1.0
C      1  0.4453250000000  0.5675880000000  0.4473100000000 1.0
C      1  0.5589570000000  0.4433870000000  0.4364610000000 1.0
C      1  0.5942000000000  0.4979820000000  0.4411830000000 1.0
C      1  0.5731790000000  0.5020600000000  0.4224200000000 1.0
C      1  0.4855380000000  0.5252200000000  0.5529630000000 1.0
C      1  0.4147720000000  0.4546850000000  0.4394420000000 1.0
C      1  0.4668900000000  0.5569240000000  0.4300840000000 1.0
C      1  0.5822710000000  0.5282090000000  0.4924200000000 1.0
C      1  0.5251620000000  0.5028430000000  0.4165890000000 1.0
C      1  0.5652250000000  0.4257450000000  0.5301080000000 1.0
C      1  0.4737460000000  0.4316400000000  0.4156250000000 1.0
C      1  0.5829290000000  0.4837910000000  0.5615590000000 1.0
C      1  0.5339590000000  0.4764660000000  0.4585260000000 1.0
C      1  0.4813020000000  0.4396300000000  0.5649430000000 1.0
C      1  0.5238490000000  0.5989110000000  0.4904920000000 1.0
C      1  0.5404070000000  0.5009340000000  0.4986720000000 1.0
C      1  0.5659690000000  0.5769780000000  0.5052530000000 1.0
C      1  0.4338250000000  0.5682690000000  0.4958470000000 1.0
C      1  0.4287350000000  0.4157050000000  0.4830450000000 1.0
C      1  0.3942130000000  0.4821720000000  0.4739830000000 1.0
C      1  0.4229070000000  0.5436570000000  0.4814830000000 1.0
C      1  0.4027040000000  0.4565360000000  0.4644300000000 1.0
C      1  0.5390200000000  0.5731350000000  0.4508090000000 1.0
C      1  0.5432570000000  0.4262710000000  0.4892640000000 1.0
C      1  0.4064690000000  0.4341020000000  0.5316380000000 1.0
C      1  0.5236140000000  0.5046970000000  0.4481890000000 1.0
C      1  0.5307490000000  0.5273800000000  0.5382180000000 1.0
C      1  0.4488510000000  0.5489320000000  0.5684620000000 1.0
C      1  0.4002500000000  0.5231890000000  0.5171000000000 1.0
C      1  0.5017530000000  0.4313860000000  0.4176080000000 1.0
C      1  0.5396230000000  0.4551360000000  0.5599450000000 1.0
C      1  0.4544420000000  0.5761030000000  0.4748870000000 1.0
C      1  0.4623060000000  0.5294460000000  0.4235890000000 1.0
C      1  0.4898870000000  0.4654220000000  0.5237150000000 1.0
C      1  0.6056590000000  0.4610930000000  0.5143740000000 1.0
C      1  0.5323300000000  0.5508490000000  0.4713410000000 1.0
C      1  0.4233980000000  0.5088620000000  0.5805570000000 1.0
C      1  0.4172110000000  0.5206030000000  0.4437140000000 1.0
C      1  0.5455030000000  0.5273460000000  0.4587500000000 1.0
C      1  0.4750950000000  0.4244680000000  0.4617160000000 1.0
C      1  0.4825790000000  0.5742370000000  0.5458760000000 1.0
C      1  0.4579660000000  0.4115650000000  0.4824890000000 1.0
C      1  0.5477530000000  0.5843000000000  0.5491790000000 1.0
C      1  0.4805270000000  0.5421830000000  0.5792450000000 1.0
C      1  0.3982530000000  0.5098480000000  0.4664510000000 1.0
C      1  0.4359800000000  0.4844620000000  0.5866630000000 1.0
C      1  0.4961730000000  0.4036690000000  0.4581170000000 1.0
C      1  0.5545120000000  0.4834970000000  0.5535240000000 1.0
C      1  0.4428070000000  0.5100850000000  0.4326540000000 1.0
C      1  0.5159820000000  0.4519750000000  0.4533660000000 1.0
C      1  0.5753670000000  0.5281220000000  0.5208910000000 1.0
C      1  0.4666630000000  0.4092570000000  0.5305760000000 1.0
C      1  0.6044320000000  0.4890930000000  0.5169290000000 1.0
C      1  0.5245750000000  0.5958160000000  0.5381740000000 1.0
C      1  0.4977650000000  0.5281480000000  0.6010870000000 1.0
C      1  0.5097610000000  0.5091570000000  0.5478670000000 1.0
C      1  0.5371240000000  0.5748270000000  0.5014710000000 1.0
C      1  0.4059490000000  0.4656970000000  0.5327470000000 1.0
C      1  0.4233940000000  0.4615560000000  0.5732430000000 1.0
C      1  0.5017720000000  0.4464340000000  0.5024190000000 1.0
C      1  0.4472810000000  0.4659970000000  0.4771660000000 1.0
C      1  0.6021650000000  0.4880130000000  0.4666770000000 1.0
C      1  0.4708100000000  0.5269930000000  0.4615360000000 1.0
C      1  0.5898820000000  0.5336030000000  0.5628720000000 1.0
C      1  0.5500770000000  0.4869410000000  0.4127920000000 1.0
C      1  0.3929950000000  0.4392790000000  0.5072320000000 1.0
C      1  0.4296430000000  0.4885210000000  0.4881290000000 1.0
C      1  0.4220230000000  0.5126190000000  0.5312810000000 1.0
C      1  0.4822840000000  0.5493750000000  0.4814160000000 1.0
C      1  0.4946520000000  0.5680430000000  0.5735270000000 1.0
C      1  0.5414220000000  0.4296810000000  0.5445470000000 1.0
C      1  0.4790820000000  0.5928290000000  0.4771920000000 1.0
C      1  0.5837510000000  0.4545810000000  0.4981380000000 1.0
C      1  0.5644200000000  0.5301550000000  0.4200910000000 1.0
C      1  0.5249770000000  0.5395600000000  0.5979220000000 1.0
C      1  0.5582460000000  0.5160230000000  0.4814300000000 1.0
C      1  0.5268390000000  0.4520730000000  0.5847720000000 1.0
C      1  0.5317000000000  0.4511990000000  0.4991640000000 1.0
C      1  0.5514090000000  0.5087330000000  0.5276510000000 1.0
C      1  0.4593420000000  0.4664720000000  0.5292640000000 1.0
C      1  0.4855020000000  0.4982470000000  0.4961680000000 1.0
C      1  0.5859640000000  0.4644180000000  0.4712420000000 1.0
C      1  0.4970570000000  0.5942620000000  0.5006260000000 1.0
C      1  0.5465260000000  0.5771480000000  0.5764870000000 1.0
C      1  0.5461080000000  0.4736910000000  0.4861470000000 1.0
C      1  0.6037680000000  0.5054960000000  0.4914260000000 1.0
C      1  0.4974780000000  0.5005530000000  0.6031100000000 1.0
C      1  0.4684840000000  0.5443960000000  0.5085270000000 1.0
C      1  0.4623050000000  0.5065430000000  0.5535160000000 1.0
C      1  0.4520590000000  0.5710640000000  0.5484330000000 1.0
C      1  0.5346860000000  0.5338340000000  0.4162980000000 1.0
C      1  0.5529320000000  0.4983860000000  0.5797690000000 1.0
C      1  0.5640430000000  0.4695760000000  0.4508390000000 1.0
C      1  0.4368550000000  0.5213940000000  0.5578340000000 1.0
C      1  0.5167330000000  0.5485000000000  0.5203110000000 1.0
C      1  0.4437440000000  0.5171420000000  0.4804400000000 1.0
C      1  0.4999230000000  0.4564170000000  0.5800150000000 1.0
C      1  0.4288110000000  0.4851170000000  0.5201190000000 1.0
C      1  0.4560810000000  0.4567040000000  0.5581310000000 1.0
C      1  0.4823730000000  0.4838140000000  0.4321440000000 1.0
C      1  0.4585560000000  0.4335010000000  0.4386590000000 1.0
C      1  0.4000500000000  0.4702730000000  0.5604850000000 1.0
C      1  0.4764070000000  0.4757880000000  0.4750640000000 1.0
C      1  0.4426270000000  0.4587460000000  0.4451360000000 1.0
C      1  0.5021150000000  0.4825800000000  0.4098450000000 1.0
C      1  0.5170960000000  0.4175640000000  0.5315610000000 1.0
C      1  0.5108600000000  0.5405810000000  0.4905600000000 1.0
C      1  0.5056440000000  0.4887400000000  0.5279980000000 1.0
C      1  0.5161230000000  0.4558290000000  0.4097140000000 1.0
C      1  0.5973810000000  0.5382080000000  0.5367200000000 1.0
C      1  0.5064350000000  0.3968430000000  0.4835240000000 1.0
C      1  0.4388330000000  0.5640770000000  0.5237170000000 1.0
C      1  0.5237090000000  0.5975560000000  0.4606610000000 1.0
C      1  0.4943070000000  0.5673140000000  0.4359430000000 1.0
C      1  0.5624840000000  0.5448570000000  0.5628350000000 1.0
C      1  0.4976890000000  0.5950280000000  0.5300680000000 1.0
C      1  0.4913730000000  0.5044070000000  0.4529990000000 1.0
C      1  0.4115810000000  0.4391450000000  0.4857120000000 1.0
C      1  0.5125680000000  0.5114400000000  0.4908330000000 1.0
C      1  0.4620790000000  0.4834900000000  0.5728990000000 1.0
C      1  0.4954700000000  0.5919710000000  0.4526270000000 1.0
C      1  0.4880950000000  0.5479740000000  0.5313480000000 1.0
C      1  0.5226270000000  0.5589110000000  0.4288160000000 1.0
C      1  0.5668120000000  0.5697220000000  0.5333450000000 1.0
C      1  0.5460760000000  0.4573890000000  0.4124250000000 1.0
C      1  0.4307500000000  0.4215000000000  0.5214640000000 1.0
C      1  0.4528450000000  0.4824550000000  0.4289130000000 1.0
C      1  0.5384060000000  0.4294720000000  0.4544860000000 1.0
C      1  0.5701580000000  0.5679180000000  0.4554900000000 1.0
C      1  0.5763960000000  0.5436790000000  0.4419580000000 1.0
C      1  0.5452840000000  0.5264460000000  0.5798120000000 1.0
C      1  0.4897470000000  0.4179270000000  0.5459370000000 1.0
C      1  0.5214560000000  0.5670900000000  0.5874430000000 1.0
C      1  0.5235370000000  0.4077130000000  0.5030730000000 1.0
C      1  0.3973720000000  0.5304450000000  0.4901380000000 1.0
C      1  0.6001700000000  0.5007310000000  0.5448890000000 1.0
C      1  0.4859340000000  0.4792950000000  0.5901010000000 1.0
C      1  0.5701190000000  0.4293330000000  0.5029790000000 1.0
C      1  0.4623950000000  0.5163880000000  0.5035360000000 1.0
C      1  0.4922240000000  0.4501210000000  0.4733380000000 1.0
C      1  0.5804000000000  0.5625440000000  0.4836380000000 1.0
C      1  0.4204510000000  0.5502130000000  0.4517110000000 1.0
END
