TITL C-951335-1172-539 -3.4003526575188e-06 125000 -983.884239357648 0 0 159 (C1) n - 1
REM
REM in /home/bkarasulu/work/CARBON/AIRSS/Generating-Clusters/EDIP-Nigel-Params/with-SteepDescent/Only-C1/SD-CG/HFTN-CG
REM
REM
REM
REM
REM
REM ./C.cell (11c1c37f851c82e70ff6c80c92926a4b)
REM
REM compiler GCC version 9.2.1 20190827 (Red Hat 9.2.1-1)
REM options -cpp -mtune=generic -march=x86-64 -g -O0 -fpre-include=/usr/include/finclude/math-vector-fortran.h
REM seed 552913415 2127716781 1437432813 2115965331 -21419130 702144075 -2135031648 1874084082 -1615825936 -1167655602 127702322 -483629319 -503747327 1179404700 -1212348387 1151874625 -1376816149 1835482434 -606112658 1933539450 2109929782 -262176388 2109311805 44494619 -434720602 571106067 -427316842 2043234189 374943715 2040238145 -1977587729 -1527702321 2135279544
REM
CELL 1.54180   50.00000   50.00000   50.00000   90.00000   90.00000   90.00000
LATT -1
SFAC C  
C      1  0.5096350000000  0.4085600000000  0.4323270000000 1.0
C      1  0.4740380000000  0.5389010000000  0.5367360000000 1.0
C      1  0.5192520000000  0.5434630000000  0.4091430000000 1.0
C      1  0.4773710000000  0.4508060000000  0.5231300000000 1.0
C      1  0.5275640000000  0.5721250000000  0.5163310000000 1.0
C      1  0.5097650000000  0.5998180000000  0.4494530000000 1.0
C      1  0.5538040000000  0.5789430000000  0.5552490000000 1.0
C      1  0.4417410000000  0.5218020000000  0.4945150000000 1.0
C      1  0.5608730000000  0.4379060000000  0.5675640000000 1.0
C      1  0.5060890000000  0.4350830000000  0.4869410000000 1.0
C      1  0.5282190000000  0.5412160000000  0.4832710000000 1.0
C      1  0.3953930000000  0.5099610000000  0.5383990000000 1.0
C      1  0.5170450000000  0.5069950000000  0.4436650000000 1.0
C      1  0.4486120000000  0.5368260000000  0.4077510000000 1.0
C      1  0.5066420000000  0.4802080000000  0.4930890000000 1.0
C      1  0.4489570000000  0.5792940000000  0.4901580000000 1.0
C      1  0.5392760000000  0.4698230000000  0.4608900000000 1.0
C      1  0.5083610000000  0.4557940000000  0.5700870000000 1.0
C      1  0.4336990000000  0.5567010000000  0.4827520000000 1.0
C      1  0.5787560000000  0.5091750000000  0.5608540000000 1.0
C      1  0.5500420000000  0.4526230000000  0.5942390000000 1.0
C      1  0.4927460000000  0.5324680000000  0.4047870000000 1.0
C      1  0.4324740000000  0.4674090000000  0.5673340000000 1.0
C      1  0.5283720000000  0.5187980000000  0.5996280000000 1.0
C      1  0.4353350000000  0.4415510000000  0.4255090000000 1.0
C      1  0.4160900000000  0.5210680000000  0.5559960000000 1.0
C      1  0.4259210000000  0.5527810000000  0.4555550000000 1.0
C      1  0.4834410000000  0.5177300000000  0.4831490000000 1.0
C      1  0.4769800000000  0.4624900000000  0.4066600000000 1.0
C      1  0.4514280000000  0.5868040000000  0.5182880000000 1.0
C      1  0.5202520000000  0.3959740000000  0.5134100000000 1.0
C      1  0.5061430000000  0.4050810000000  0.4873920000000 1.0
C      1  0.5669760000000  0.5864890000000  0.5040980000000 1.0
C      1  0.5322810000000  0.6110960000000  0.5297410000000 1.0
C      1  0.4567210000000  0.4931150000000  0.5398680000000 1.0
C      1  0.5137270000000  0.4825810000000  0.4632330000000 1.0
C      1  0.3984540000000  0.5327000000000  0.5173220000000 1.0
C      1  0.4562130000000  0.5180520000000  0.5237060000000 1.0
C      1  0.5849710000000  0.4857020000000  0.5443210000000 1.0
C      1  0.4490700000000  0.3994600000000  0.5033390000000 1.0
C      1  0.5047370000000  0.4626280000000  0.4172440000000 1.0
C      1  0.4890120000000  0.4088110000000  0.5629840000000 1.0
C      1  0.4750160000000  0.5361570000000  0.4503780000000 1.0
C      1  0.4546100000000  0.5099330000000  0.4025230000000 1.0
C      1  0.4719340000000  0.4929170000000  0.4542030000000 1.0
C      1  0.4821180000000  0.5846830000000  0.4475450000000 1.0
C      1  0.5638430000000  0.5091340000000  0.5029390000000 1.0
C      1  0.4424530000000  0.5682670000000  0.5412270000000 1.0
C      1  0.5498420000000  0.4711580000000  0.4860210000000 1.0
C      1  0.5223430000000  0.3988480000000  0.4600430000000 1.0
C      1  0.4983960000000  0.5772030000000  0.5246280000000 1.0
C      1  0.5975370000000  0.5411400000000  0.5098930000000 1.0
C      1  0.5140800000000  0.6069830000000  0.4790880000000 1.0
C      1  0.4793100000000  0.5997600000000  0.5174350000000 1.0
C      1  0.4806990000000  0.4770110000000  0.6022710000000 1.0
C      1  0.4073240000000  0.5305280000000  0.4588510000000 1.0
C      1  0.4838750000000  0.4886090000000  0.5528600000000 1.0
C      1  0.5297600000000  0.5319960000000  0.4551000000000 1.0
C      1  0.5286510000000  0.5955460000000  0.5536480000000 1.0
C      1  0.5754380000000  0.5546220000000  0.4934510000000 1.0
C      1  0.4938280000000  0.5581390000000  0.4512870000000 1.0
C      1  0.5736610000000  0.5787640000000  0.5324560000000 1.0
C      1  0.4738020000000  0.4138980000000  0.4582660000000 1.0
C      1  0.5351440000000  0.5449160000000  0.5343890000000 1.0
C      1  0.4954490000000  0.5314920000000  0.5606910000000 1.0
C      1  0.5739660000000  0.4701890000000  0.5873390000000 1.0
C      1  0.4758830000000  0.4631840000000  0.4509730000000 1.0
C      1  0.5576300000000  0.5541490000000  0.5715910000000 1.0
C      1  0.5843040000000  0.4598080000000  0.5599210000000 1.0
C      1  0.4859880000000  0.6085640000000  0.4898090000000 1.0
C      1  0.4769060000000  0.3932130000000  0.5036990000000 1.0
C      1  0.4461350000000  0.4161630000000  0.4624590000000 1.0
C      1  0.6025550000000  0.4940640000000  0.4869230000000 1.0
C      1  0.4918960000000  0.4395280000000  0.4602220000000 1.0
C      1  0.5198280000000  0.5540910000000  0.4378360000000 1.0
C      1  0.5440260000000  0.6075250000000  0.5034910000000 1.0
C      1  0.5769160000000  0.5724260000000  0.4495130000000 1.0
C      1  0.4578630000000  0.4506930000000  0.5677130000000 1.0
C      1  0.5493620000000  0.4581370000000  0.4021580000000 1.0
C      1  0.4881130000000  0.5153710000000  0.4312990000000 1.0
C      1  0.5260130000000  0.4558300000000  0.5350280000000 1.0
C      1  0.5362660000000  0.4295650000000  0.5477660000000 1.0
C      1  0.4230930000000  0.5444130000000  0.5362840000000 1.0
C      1  0.4000260000000  0.4756380000000  0.4588510000000 1.0
C      1  0.5280070000000  0.4760080000000  0.4045940000000 1.0
C      1  0.4685450000000  0.4248240000000  0.5334430000000 1.0
C      1  0.4142440000000  0.4599590000000  0.5456250000000 1.0
C      1  0.4040140000000  0.4832380000000  0.5299620000000 1.0
C      1  0.5125120000000  0.4253970000000  0.5677510000000 1.0
C      1  0.4656140000000  0.4391010000000  0.4233430000000 1.0
C      1  0.5992020000000  0.4654660000000  0.4900920000000 1.0
C      1  0.5605340000000  0.4467490000000  0.4249670000000 1.0
C      1  0.5882650000000  0.4509620000000  0.4664610000000 1.0
C      1  0.4634000000000  0.4222350000000  0.5715230000000 1.0
C      1  0.5466870000000  0.4193160000000  0.4640400000000 1.0
C      1  0.4447110000000  0.4980960000000  0.4725840000000 1.0
C      1  0.5305910000000  0.5721020000000  0.4832910000000 1.0
C      1  0.5730490000000  0.5367420000000  0.5541940000000 1.0
C      1  0.5535670000000  0.4678540000000  0.5298100000000 1.0
C      1  0.4511230000000  0.5136920000000  0.5868170000000 1.0
C      1  0.4796170000000  0.4091450000000  0.4299910000000 1.0
C      1  0.4549990000000  0.4828730000000  0.4091330000000 1.0
C      1  0.5384740000000  0.5236610000000  0.4041270000000 1.0
C      1  0.4616300000000  0.5752750000000  0.4262990000000 1.0
C      1  0.5525440000000  0.5365890000000  0.5008520000000 1.0
C      1  0.4227290000000  0.5062650000000  0.4496400000000 1.0
C      1  0.4602440000000  0.5431060000000  0.5852070000000 1.0
C      1  0.5889510000000  0.5532340000000  0.5358280000000 1.0
C      1  0.5810670000000  0.5232970000000  0.4522130000000 1.0
C      1  0.4720790000000  0.5529330000000  0.3984910000000 1.0
C      1  0.4092510000000  0.4493210000000  0.4972870000000 1.0
C      1  0.5934620000000  0.5110860000000  0.5094830000000 1.0
C      1  0.5331230000000  0.4976850000000  0.5795340000000 1.0
C      1  0.5093020000000  0.5056450000000  0.5544540000000 1.0
C      1  0.4999100000000  0.5158130000000  0.6098830000000 1.0
C      1  0.4812260000000  0.4677910000000  0.5736030000000 1.0
C      1  0.5685200000000  0.4950130000000  0.4317700000000 1.0
C      1  0.4092910000000  0.4859440000000  0.4311680000000 1.0
C      1  0.4283920000000  0.4459830000000  0.5211100000000 1.0
C      1  0.4641300000000  0.5654530000000  0.5625630000000 1.0
C      1  0.5631620000000  0.4974100000000  0.5816870000000 1.0
C      1  0.4499700000000  0.5485340000000  0.4365990000000 1.0
C      1  0.4680040000000  0.5931020000000  0.4729480000000 1.0
C      1  0.3944910000000  0.4931000000000  0.4834750000000 1.0
C      1  0.4070600000000  0.5206970000000  0.4896120000000 1.0
C      1  0.5818700000000  0.5499210000000  0.4645040000000 1.0
C      1  0.5381190000000  0.4999320000000  0.4205440000000 1.0
C      1  0.5244810000000  0.5141010000000  0.5287520000000 1.0
C      1  0.5362240000000  0.5457150000000  0.5903890000000 1.0
C      1  0.5253730000000  0.4700070000000  0.5905720000000 1.0
C      1  0.5124040000000  0.4389260000000  0.4362970000000 1.0
C      1  0.5531250000000  0.5832480000000  0.4597340000000 1.0
C      1  0.4888090000000  0.5367490000000  0.5904420000000 1.0
C      1  0.4817490000000  0.4930250000000  0.4976270000000 1.0
C      1  0.5516610000000  0.4986800000000  0.5276210000000 1.0
C      1  0.5316060000000  0.5821660000000  0.4402220000000 1.0
C      1  0.4262520000000  0.4326960000000  0.4520810000000 1.0
C      1  0.5159180000000  0.5518190000000  0.5587980000000 1.0
C      1  0.5041990000000  0.5314570000000  0.5001210000000 1.0
C      1  0.5793050000000  0.4988100000000  0.4688560000000 1.0
C      1  0.4527950000000  0.4667610000000  0.5194690000000 1.0
C      1  0.5400190000000  0.4435520000000  0.4467720000000 1.0
C      1  0.4159310000000  0.4532730000000  0.4692700000000 1.0
C      1  0.3946640000000  0.4737470000000  0.5048610000000 1.0
C      1  0.5781290000000  0.4654540000000  0.4399340000000 1.0
C      1  0.4645400000000  0.4995400000000  0.6078560000000 1.0
C      1  0.5073080000000  0.4779190000000  0.6129940000000 1.0
C      1  0.4943710000000  0.3930360000000  0.5282970000000 1.0
C      1  0.5046740000000  0.4546980000000  0.5097450000000 1.0
C      1  0.4366790000000  0.4991410000000  0.5640450000000 1.0
C      1  0.5590360000000  0.4265870000000  0.4999660000000 1.0
C      1  0.4298600000000  0.4696820000000  0.4169370000000 1.0
C      1  0.4413020000000  0.4179820000000  0.5233620000000 1.0
C      1  0.5425710000000  0.4125260000000  0.5228380000000 1.0
C      1  0.5772450000000  0.4231000000000  0.4726380000000 1.0
C      1  0.5650570000000  0.4564590000000  0.5041970000000 1.0
C      1  0.4575020000000  0.4764690000000  0.4923840000000 1.0
C      1  0.4883670000000  0.5514040000000  0.5153170000000 1.0
C      1  0.5008040000000  0.5776560000000  0.5549270000000 1.0
END
