TITL C-951347-9520-357 -2.16679798926223e-06 125000 -1100.25111230334 0 0 177 (C1) n - 1
REM
REM in /home/bkarasulu/work/CARBON/AIRSS/Generating-Clusters/EDIP-Nigel-Params/with-SteepDescent/Only-C1/SD-CG/HFTN-CG
REM
REM
REM
REM
REM
REM ./C.cell (11c1c37f851c82e70ff6c80c92926a4b)
REM
REM compiler GCC version 9.2.1 20190827 (Red Hat 9.2.1-1)
REM options -cpp -mtune=generic -march=x86-64 -g -O0 -fpre-include=/usr/include/finclude/math-vector-fortran.h
REM seed 734147508 1375979248 9080324 318371426 -1785940752 -871786879 -1211460769 390457207 406806790 1066489276 714865761 1496792999 712479185 1558573992 1206438653 1257099827 2036277143 1292913396 -1614421653 -707329474 83066348 463624764 407450022 -608156216 473307277 747346164 1218888404 4746939 -1180636698 272809577 1853444716 1545235433 721487499
REM
CELL 1.54180   50.00000   50.00000   50.00000   90.00000   90.00000   90.00000
LATT -1
SFAC C  
C      1  0.5743570000000  0.4127830000000  0.4431130000000 1.0
C      1  0.5334040000000  0.4559070000000  0.5629190000000 1.0
C      1  0.5325550000000  0.5105730000000  0.4019980000000 1.0
C      1  0.5583400000000  0.4504850000000  0.4823140000000 1.0
C      1  0.5698540000000  0.4034160000000  0.4717440000000 1.0
C      1  0.5407390000000  0.5564110000000  0.5394190000000 1.0
C      1  0.4990330000000  0.4025150000000  0.4996300000000 1.0
C      1  0.4295230000000  0.5025150000000  0.5751200000000 1.0
C      1  0.5510080000000  0.4305480000000  0.5622810000000 1.0
C      1  0.4441120000000  0.4535850000000  0.5627670000000 1.0
C      1  0.5396670000000  0.4089280000000  0.5762490000000 1.0
C      1  0.5508470000000  0.5831500000000  0.5480580000000 1.0
C      1  0.5707550000000  0.5690020000000  0.4558380000000 1.0
C      1  0.4931740000000  0.4777450000000  0.5478390000000 1.0
C      1  0.5593760000000  0.4227700000000  0.5344200000000 1.0
C      1  0.4616400000000  0.4779620000000  0.4529230000000 1.0
C      1  0.4593690000000  0.4750640000000  0.6034360000000 1.0
C      1  0.5116840000000  0.4494390000000  0.5186670000000 1.0
C      1  0.4573970000000  0.4490680000000  0.5899900000000 1.0
C      1  0.5709530000000  0.4255640000000  0.4928910000000 1.0
C      1  0.4460380000000  0.5631860000000  0.4742120000000 1.0
C      1  0.5543940000000  0.4504570000000  0.4520760000000 1.0
C      1  0.5121200000000  0.6050370000000  0.4675770000000 1.0
C      1  0.5535090000000  0.5576040000000  0.4138160000000 1.0
C      1  0.5240350000000  0.4613170000000  0.4447120000000 1.0
C      1  0.5536150000000  0.4382360000000  0.4010750000000 1.0
C      1  0.4357230000000  0.6094380000000  0.4773080000000 1.0
C      1  0.4564470000000  0.4323860000000  0.4383970000000 1.0
C      1  0.5215920000000  0.4886430000000  0.4611390000000 1.0
C      1  0.4411660000000  0.5104090000000  0.4832700000000 1.0
C      1  0.4645870000000  0.5112320000000  0.5285800000000 1.0
C      1  0.4772000000000  0.4712390000000  0.4778930000000 1.0
C      1  0.6014420000000  0.4892090000000  0.4675130000000 1.0
C      1  0.5056050000000  0.5695280000000  0.5290680000000 1.0
C      1  0.5250250000000  0.5865870000000  0.4480640000000 1.0
C      1  0.5549810000000  0.4761390000000  0.4981560000000 1.0
C      1  0.4846530000000  0.4293990000000  0.4304720000000 1.0
C      1  0.4957780000000  0.5475390000000  0.5482140000000 1.0
C      1  0.4169330000000  0.4882190000000  0.5198290000000 1.0
C      1  0.5339310000000  0.5568420000000  0.5892450000000 1.0
C      1  0.5904130000000  0.5728040000000  0.4759820000000 1.0
C      1  0.5525290000000  0.5090310000000  0.4230420000000 1.0
C      1  0.5035990000000  0.5011380000000  0.5643450000000 1.0
C      1  0.5016860000000  0.4542390000000  0.6043520000000 1.0
C      1  0.5514660000000  0.4655340000000  0.3915290000000 1.0
C      1  0.5477400000000  0.5531910000000  0.5118170000000 1.0
C      1  0.4810380000000  0.5421600000000  0.4576400000000 1.0
C      1  0.4704700000000  0.3881210000000  0.5385410000000 1.0
C      1  0.4855860000000  0.3921720000000  0.4740460000000 1.0
C      1  0.4988280000000  0.3996570000000  0.4479290000000 1.0
C      1  0.4895060000000  0.4451940000000  0.4770480000000 1.0
C      1  0.4653600000000  0.5565000000000  0.4336750000000 1.0
C      1  0.5271910000000  0.4813440000000  0.3948670000000 1.0
C      1  0.4304430000000  0.5323740000000  0.5707960000000 1.0
C      1  0.5542010000000  0.5353760000000  0.5831450000000 1.0
C      1  0.5470820000000  0.4929740000000  0.4754810000000 1.0
C      1  0.5213310000000  0.4956080000000  0.5908270000000 1.0
C      1  0.4017280000000  0.5670620000000  0.4991260000000 1.0
C      1  0.4131060000000  0.5497420000000  0.5544180000000 1.0
C      1  0.4761080000000  0.4854960000000  0.5254690000000 1.0
C      1  0.4379380000000  0.5012390000000  0.4068590000000 1.0
C      1  0.4145610000000  0.4789790000000  0.5668460000000 1.0
C      1  0.5356560000000  0.5838470000000  0.5738500000000 1.0
C      1  0.5424260000000  0.5996520000000  0.5007690000000 1.0
C      1  0.4563280000000  0.4924460000000  0.5801140000000 1.0
C      1  0.4116030000000  0.5526650000000  0.4426440000000 1.0
C      1  0.4686830000000  0.6024940000000  0.5413500000000 1.0
C      1  0.4542410000000  0.4338120000000  0.5426640000000 1.0
C      1  0.5199190000000  0.5139570000000  0.4434770000000 1.0
C      1  0.5483180000000  0.5094500000000  0.5961290000000 1.0
C      1  0.5829810000000  0.4416780000000  0.4382580000000 1.0
C      1  0.5050200000000  0.4375560000000  0.4538630000000 1.0
C      1  0.5753070000000  0.5520080000000  0.4310790000000 1.0
C      1  0.4778020000000  0.5127890000000  0.5752480000000 1.0
C      1  0.5255430000000  0.4659080000000  0.5906970000000 1.0
C      1  0.5572880000000  0.5045770000000  0.5433080000000 1.0
C      1  0.6000910000000  0.4283310000000  0.5014260000000 1.0
C      1  0.6166070000000  0.4661280000000  0.4697120000000 1.0
C      1  0.3879370000000  0.5443570000000  0.5125240000000 1.0
C      1  0.4099710000000  0.4244580000000  0.4939740000000 1.0
C      1  0.4555080000000  0.5065920000000  0.4542790000000 1.0
C      1  0.5874430000000  0.4282440000000  0.5276530000000 1.0
C      1  0.4168990000000  0.4686280000000  0.5409160000000 1.0
C      1  0.5120130000000  0.5335370000000  0.4051930000000 1.0
C      1  0.5438160000000  0.5254840000000  0.5066180000000 1.0
C      1  0.5050430000000  0.5680980000000  0.4971510000000 1.0
C      1  0.4661850000000  0.5380680000000  0.5463260000000 1.0
C      1  0.5123080000000  0.5791720000000  0.4240920000000 1.0
C      1  0.3943780000000  0.4460040000000  0.5030380000000 1.0
C      1  0.4407700000000  0.5981900000000  0.5034570000000 1.0
C      1  0.4035850000000  0.4739670000000  0.4676940000000 1.0
C      1  0.5229180000000  0.3892010000000  0.5679250000000 1.0
C      1  0.4962140000000  0.5143710000000  0.4984690000000 1.0
C      1  0.5836880000000  0.4947290000000  0.5164990000000 1.0
C      1  0.5070360000000  0.5918320000000  0.5694670000000 1.0
C      1  0.5934460000000  0.4868530000000  0.5856220000000 1.0
C      1  0.4174260000000  0.4264210000000  0.4640300000000 1.0
C      1  0.5042950000000  0.5502840000000  0.5968750000000 1.0
C      1  0.5881680000000  0.5289830000000  0.4816720000000 1.0
C      1  0.4566680000000  0.3962870000000  0.4743230000000 1.0
C      1  0.4594450000000  0.4392040000000  0.5133080000000 1.0
C      1  0.5257010000000  0.5585640000000  0.4108550000000 1.0
C      1  0.3895090000000  0.4940320000000  0.5098500000000 1.0
C      1  0.5307180000000  0.4775660000000  0.5182310000000 1.0
C      1  0.6156450000000  0.4476210000000  0.4890780000000 1.0
C      1  0.5412920000000  0.5661030000000  0.4632100000000 1.0
C      1  0.5797440000000  0.4470030000000  0.4101110000000 1.0
C      1  0.5443020000000  0.4783560000000  0.5447740000000 1.0
C      1  0.4866480000000  0.4771550000000  0.6164070000000 1.0
C      1  0.4571040000000  0.6156940000000  0.5195080000000 1.0
C      1  0.5284030000000  0.4009040000000  0.4485640000000 1.0
C      1  0.4180640000000  0.5558140000000  0.4734640000000 1.0
C      1  0.5123920000000  0.4674860000000  0.4167850000000 1.0
C      1  0.4139820000000  0.5246270000000  0.4769270000000 1.0
C      1  0.4597780000000  0.5259850000000  0.5035000000000 1.0
C      1  0.5980620000000  0.5041790000000  0.4916980000000 1.0
C      1  0.5607070000000  0.5332330000000  0.5529120000000 1.0
C      1  0.4831440000000  0.4367540000000  0.5914080000000 1.0
C      1  0.5289310000000  0.4029710000000  0.4974420000000 1.0
C      1  0.4069630000000  0.5203350000000  0.4475410000000 1.0
C      1  0.4933870000000  0.5910230000000  0.4835710000000 1.0
C      1  0.3878080000000  0.4706450000000  0.4909010000000 1.0
C      1  0.4162310000000  0.5864000000000  0.5177840000000 1.0
C      1  0.4173530000000  0.4543730000000  0.4530510000000 1.0
C      1  0.4660100000000  0.5126140000000  0.3957110000000 1.0
C      1  0.5333190000000  0.5360940000000  0.4609240000000 1.0
C      1  0.4351980000000  0.4839760000000  0.4972360000000 1.0
C      1  0.5903670000000  0.5370030000000  0.5441610000000 1.0
C      1  0.4617800000000  0.5846890000000  0.4396720000000 1.0
C      1  0.4528360000000  0.5445880000000  0.5857180000000 1.0
C      1  0.4747030000000  0.4888960000000  0.4118300000000 1.0
C      1  0.4920590000000  0.4479530000000  0.4077530000000 1.0
C      1  0.4985260000000  0.4911560000000  0.4797960000000 1.0
C      1  0.5969660000000  0.5060180000000  0.4452030000000 1.0
C      1  0.5078580000000  0.4526010000000  0.5471950000000 1.0
C      1  0.3906030000000  0.5411940000000  0.5403630000000 1.0
C      1  0.4635760000000  0.5696420000000  0.5768780000000 1.0
C      1  0.5468240000000  0.6031010000000  0.5283120000000 1.0
C      1  0.4959210000000  0.5416070000000  0.4838210000000 1.0
C      1  0.4814480000000  0.5361770000000  0.4050430000000 1.0
C      1  0.5767720000000  0.5218330000000  0.4325940000000 1.0
C      1  0.4473410000000  0.6027300000000  0.4538090000000 1.0
C      1  0.4557260000000  0.4072140000000  0.5498540000000 1.0
C      1  0.4558520000000  0.5733250000000  0.4981560000000 1.0
C      1  0.4375990000000  0.5452050000000  0.4276330000000 1.0
C      1  0.5419410000000  0.3942230000000  0.4732700000000 1.0
C      1  0.5415520000000  0.4009120000000  0.5238310000000 1.0
C      1  0.5198830000000  0.5109020000000  0.5182900000000 1.0
C      1  0.4840000000000  0.5273910000000  0.6018890000000 1.0
C      1  0.5186830000000  0.3938210000000  0.5405100000000 1.0
C      1  0.4878430000000  0.5195000000000  0.4391970000000 1.0
C      1  0.5706460000000  0.4929470000000  0.5978730000000 1.0
C      1  0.4424440000000  0.4122010000000  0.4539480000000 1.0
C      1  0.5009760000000  0.5032870000000  0.6120730000000 1.0
C      1  0.5352700000000  0.5719990000000  0.4928610000000 1.0
C      1  0.5464300000000  0.4179580000000  0.4320270000000 1.0
C      1  0.4984840000000  0.5975190000000  0.5412820000000 1.0
C      1  0.4411920000000  0.4689280000000  0.4097900000000 1.0
C      1  0.6041500000000  0.4941060000000  0.5623810000000 1.0
C      1  0.4532150000000  0.5799360000000  0.5520730000000 1.0
C      1  0.5136720000000  0.5224830000000  0.5461930000000 1.0
C      1  0.5980720000000  0.5529210000000  0.4938480000000 1.0
C      1  0.4433960000000  0.4590220000000  0.4387070000000 1.0
C      1  0.4927680000000  0.5657010000000  0.5743400000000 1.0
C      1  0.4947190000000  0.3876760000000  0.5254430000000 1.0
C      1  0.6008000000000  0.5091010000000  0.5390910000000 1.0
C      1  0.4341920000000  0.5155050000000  0.4335920000000 1.0
C      1  0.4401920000000  0.4211350000000  0.4965240000000 1.0
C      1  0.4694930000000  0.4624690000000  0.3953760000000 1.0
C      1  0.3901090000000  0.5203610000000  0.4954260000000 1.0
C      1  0.5954380000000  0.5537210000000  0.5218640000000 1.0
C      1  0.4905560000000  0.4327560000000  0.5036520000000 1.0
C      1  0.5306660000000  0.6186980000000  0.4841210000000 1.0
C      1  0.4526210000000  0.5522590000000  0.5175030000000 1.0
C      1  0.5518470000000  0.5211050000000  0.4792480000000 1.0
C      1  0.4251810000000  0.5746910000000  0.5444650000000 1.0
C      1  0.4609700000000  0.4700560000000  0.5043830000000 1.0
END
