TITL C-951339-9237-351 2.08849085613513e-07 125000 -513.803612758509 0 0 84 (C1) n - 1
REM
REM in /home/bkarasulu/work/CARBON/AIRSS/Generating-Clusters/EDIP-Nigel-Params/with-SteepDescent/Only-C1/SD-CG/HFTN-CG
REM
REM
REM
REM
REM
REM ./C.cell (11c1c37f851c82e70ff6c80c92926a4b)
REM
REM compiler GCC version 9.2.1 20190827 (Red Hat 9.2.1-1)
REM options -cpp -mtune=generic -march=x86-64 -g -O0 -fpre-include=/usr/include/finclude/math-vector-fortran.h
REM seed 1673474761 1140317375 -1372037638 939315893 900365617 1635594979 1386547745 -1352146982 1926700388 1636586405 -2092729338 672126788 -1869742198 -1750379509 104946666 -1668268934 -1717852433 1762573606 2100746390 943537911 36527257 1726452797 537440360 -849302828 2039641935 309217339 -252268464 603171169 -2116814176 298898067 274273127 -367236296 -861213207
REM
CELL 1.54180   50.00000   50.00000   50.00000   90.00000   90.00000   90.00000
LATT -1
SFAC C  
C      1  0.5375830000000  0.5007060000000  0.5855740000000 1.0
C      1  0.5018590000000  0.5711120000000  0.4789680000000 1.0
C      1  0.5735550000000  0.4685840000000  0.5012930000000 1.0
C      1  0.5743680000000  0.4874960000000  0.4780700000000 1.0
C      1  0.4391910000000  0.5018540000000  0.5097150000000 1.0
C      1  0.5844800000000  0.4772540000000  0.4540650000000 1.0
C      1  0.5327290000000  0.5321720000000  0.5452510000000 1.0
C      1  0.5533970000000  0.4484540000000  0.4320550000000 1.0
C      1  0.5064880000000  0.4497750000000  0.4510960000000 1.0
C      1  0.4231830000000  0.4605930000000  0.5121410000000 1.0
C      1  0.5440140000000  0.5005770000000  0.5090210000000 1.0
C      1  0.4648050000000  0.5018640000000  0.5805010000000 1.0
C      1  0.4484530000000  0.5404580000000  0.5390150000000 1.0
C      1  0.5149340000000  0.5343220000000  0.5003110000000 1.0
C      1  0.5623560000000  0.4741940000000  0.4375900000000 1.0
C      1  0.5421570000000  0.5504940000000  0.4993130000000 1.0
C      1  0.5428760000000  0.5215010000000  0.4405120000000 1.0
C      1  0.5491610000000  0.5580980000000  0.4711980000000 1.0
C      1  0.5607290000000  0.4810900000000  0.5258670000000 1.0
C      1  0.5216730000000  0.4491000000000  0.5330410000000 1.0
C      1  0.4903160000000  0.4817700000000  0.5429570000000 1.0
C      1  0.5053550000000  0.4703590000000  0.5210460000000 1.0
C      1  0.4902710000000  0.4616980000000  0.4975290000000 1.0
C      1  0.4893640000000  0.5363400000000  0.4346200000000 1.0
C      1  0.5158480000000  0.5789530000000  0.5201790000000 1.0
C      1  0.4458310000000  0.5319570000000  0.4394310000000 1.0
C      1  0.4706690000000  0.4874340000000  0.4419360000000 1.0
C      1  0.4346830000000  0.4548440000000  0.4629960000000 1.0
C      1  0.4444290000000  0.4811120000000  0.4549090000000 1.0
C      1  0.4903080000000  0.4927930000000  0.5882680000000 1.0
C      1  0.4741370000000  0.5593160000000  0.4792780000000 1.0
C      1  0.4511830000000  0.4332320000000  0.4590890000000 1.0
C      1  0.5395570000000  0.4920350000000  0.4446350000000 1.0
C      1  0.5341320000000  0.4147050000000  0.4890240000000 1.0
C      1  0.4772180000000  0.5333150000000  0.4958720000000 1.0
C      1  0.4722810000000  0.5261210000000  0.5252710000000 1.0
C      1  0.5618360000000  0.4431780000000  0.4947160000000 1.0
C      1  0.5217920000000  0.5596350000000  0.4609500000000 1.0
C      1  0.4841530000000  0.4176850000000  0.4945510000000 1.0
C      1  0.5175420000000  0.4853880000000  0.4271200000000 1.0
C      1  0.4780730000000  0.4317450000000  0.5193960000000 1.0
C      1  0.5619410000000  0.5275610000000  0.5075730000000 1.0
C      1  0.4946230000000  0.4713260000000  0.4347180000000 1.0
C      1  0.5090010000000  0.5352330000000  0.5660190000000 1.0
C      1  0.4335080000000  0.5273580000000  0.4951730000000 1.0
C      1  0.5029160000000  0.4723500000000  0.5685340000000 1.0
C      1  0.5302920000000  0.4888640000000  0.4758540000000 1.0
C      1  0.5087300000000  0.4052780000000  0.4912910000000 1.0
C      1  0.5455580000000  0.4642950000000  0.5463690000000 1.0
C      1  0.5447310000000  0.5786540000000  0.5251220000000 1.0
C      1  0.5011190000000  0.4423460000000  0.5654410000000 1.0
C      1  0.5288050000000  0.4389190000000  0.4377990000000 1.0
C      1  0.4695620000000  0.5843920000000  0.5211550000000 1.0
C      1  0.4378860000000  0.5514540000000  0.5119150000000 1.0
C      1  0.4250240000000  0.5025700000000  0.4538050000000 1.0
C      1  0.5204070000000  0.5158240000000  0.5241040000000 1.0
C      1  0.5112750000000  0.5142420000000  0.4753610000000 1.0
C      1  0.5641750000000  0.5667410000000  0.5414030000000 1.0
C      1  0.5633350000000  0.5343430000000  0.4587840000000 1.0
C      1  0.5604550000000  0.5392920000000  0.5377910000000 1.0
C      1  0.5314100000000  0.4794380000000  0.5678430000000 1.0
C      1  0.4552640000000  0.5724610000000  0.4999550000000 1.0
C      1  0.4834620000000  0.5514360000000  0.5525480000000 1.0
C      1  0.4182920000000  0.4533900000000  0.4855550000000 1.0
C      1  0.4147400000000  0.4872740000000  0.5178640000000 1.0
C      1  0.5095220000000  0.5920500000000  0.4960710000000 1.0
C      1  0.4663560000000  0.4172080000000  0.4737620000000 1.0
C      1  0.4681310000000  0.4838540000000  0.4918040000000 1.0
C      1  0.4670410000000  0.5526680000000  0.4496880000000 1.0
C      1  0.4618940000000  0.4735260000000  0.5435520000000 1.0
C      1  0.5119490000000  0.5136450000000  0.5881460000000 1.0
C      1  0.4523270000000  0.4605670000000  0.5185970000000 1.0
C      1  0.5742090000000  0.5169620000000  0.4812770000000 1.0
C      1  0.4996240000000  0.4275170000000  0.5404480000000 1.0
C      1  0.4478860000000  0.4926700000000  0.5600820000000 1.0
C      1  0.4812860000000  0.5082390000000  0.4795380000000 1.0
C      1  0.5343850000000  0.4417530000000  0.4925820000000 1.0
C      1  0.4690570000000  0.5138010000000  0.4287400000000 1.0
C      1  0.4222360000000  0.5263080000000  0.4690800000000 1.0
C      1  0.4913110000000  0.5754240000000  0.5365460000000 1.0
C      1  0.5158060000000  0.5324990000000  0.4506250000000 1.0
C      1  0.4941640000000  0.5111510000000  0.5394770000000 1.0
C      1  0.4342350000000  0.5111130000000  0.5413990000000 1.0
C      1  0.5150950000000  0.4606900000000  0.4782390000000 1.0
END
