TITL C-950521-2237-159 -9.72264310546644e-07 125000 -71.0659790391833 0 0 14 (C1) n - 1
REM
REM in /home/bkarasulu/work/CARBON/AIRSS/Generating-Clusters/EDIP-Nigel-Params/with-SteepDescent/Only-C1/SD-CG/HFTN-CG
REM
REM
REM
REM
REM
REM ./C.cell (11c1c37f851c82e70ff6c80c92926a4b)
REM
REM compiler GCC version 9.2.1 20190827 (Red Hat 9.2.1-1)
REM options -cpp -mtune=generic -march=x86-64 -g -O0 -fpre-include=/usr/include/finclude/math-vector-fortran.h
REM seed -516481257 1470538359 -1150512646 1621334439 218198539 -1309293359 2002855243 1829786471 1310399050 -716093242 1178344193 1354498894 280342582 883224179 -1723631241 -1889694045 1142615864 1035568842 915092980 -1108959413 -1724774700 2040605119 -996054909 1979728614 1379996423 -688784228 -960567506 1105541593 -1497287077 -1450888567 952062581 -173916649 901233376
REM
CELL 1.54180   50.00000   50.00000   50.00000   90.00000   90.00000   90.00000
LATT -1
SFAC C  
C      1  0.4760780000000  0.5282160000000  0.4856860000000 1.0
C      1  0.5315100000000  0.4664200000000  0.4818070000000 1.0
C      1  0.5105210000000  0.5626610000000  0.4985140000000 1.0
C      1  0.4999210000000  0.5351920000000  0.4996280000000 1.0
C      1  0.4893650000000  0.4925790000000  0.4919910000000 1.0
C      1  0.4688460000000  0.4316000000000  0.5213180000000 1.0
C      1  0.4647550000000  0.5030310000000  0.4850590000000 1.0
C      1  0.5282350000000  0.4383380000000  0.4831410000000 1.0
C      1  0.5039190000000  0.4746990000000  0.4752860000000 1.0
C      1  0.4847360000000  0.4388500000000  0.5025550000000 1.0
C      1  0.5102850000000  0.5684060000000  0.5273280000000 1.0
C      1  0.4998050000000  0.5409820000000  0.5285330000000 1.0
C      1  0.4995400000000  0.4439570000000  0.4790910000000 1.0
C      1  0.5324850000000  0.5750670000000  0.5400640000000 1.0
END
