TITL C-950527-2551-309 -7.47618815377304e-07 125000 -608.11760407453 0 0 98 (C1) n - 1
REM
REM in /home/bkarasulu/work/CARBON/AIRSS/Generating-Clusters/EDIP-Nigel-Params/with-SteepDescent/Only-C1/SD-CG/HFTN-CG
REM
REM
REM
REM
REM
REM ./C.cell (11c1c37f851c82e70ff6c80c92926a4b)
REM
REM compiler GCC version 9.2.1 20190827 (Red Hat 9.2.1-1)
REM options -cpp -mtune=generic -march=x86-64 -g -O0 -fpre-include=/usr/include/finclude/math-vector-fortran.h
REM seed 2091405737 1377837571 -1226410455 -89261490 1423363825 -1790022980 1293516539 1426370513 1334438908 682573782 1041363865 1120696372 374086029 1366408271 1597474620 -968026301 435844693 695111440 -1090605439 -824542226 -989305699 813511515 -565478608 33997559 41952315 -104391954 353340866 2058629527 918318933 167259617 501469169 -949635432 1942706383
REM
CELL 1.54180   50.00000   50.00000   50.00000   90.00000   90.00000   90.00000
LATT -1
SFAC C  
C      1  0.5237020000000  0.4224700000000  0.4782490000000 1.0
C      1  0.4539680000000  0.4310470000000  0.5325400000000 1.0
C      1  0.5055870000000  0.5931590000000  0.5379150000000 1.0
C      1  0.5137450000000  0.4170980000000  0.5508120000000 1.0
C      1  0.5437090000000  0.4634000000000  0.4537150000000 1.0
C      1  0.5322490000000  0.5155320000000  0.5073740000000 1.0
C      1  0.5360190000000  0.5601920000000  0.4391000000000 1.0
C      1  0.4293480000000  0.4957160000000  0.4476730000000 1.0
C      1  0.4784680000000  0.4792230000000  0.4298520000000 1.0
C      1  0.4814940000000  0.5223010000000  0.5072000000000 1.0
C      1  0.4991800000000  0.4445890000000  0.4474580000000 1.0
C      1  0.4882380000000  0.4075570000000  0.5072620000000 1.0
C      1  0.4873880000000  0.4805640000000  0.5703380000000 1.0
C      1  0.4250860000000  0.5228330000000  0.4608520000000 1.0
C      1  0.5216530000000  0.5135230000000  0.5852790000000 1.0
C      1  0.5242380000000  0.5270710000000  0.5562430000000 1.0
C      1  0.4756320000000  0.5648020000000  0.5260950000000 1.0
C      1  0.4618060000000  0.4198520000000  0.5080620000000 1.0
C      1  0.4955380000000  0.5728640000000  0.4533090000000 1.0
C      1  0.4981510000000  0.4593210000000  0.4214320000000 1.0
C      1  0.5739380000000  0.5054150000000  0.4715840000000 1.0
C      1  0.5338690000000  0.4726900000000  0.4822220000000 1.0
C      1  0.5279370000000  0.4380320000000  0.4527170000000 1.0
C      1  0.4556030000000  0.5229740000000  0.4175790000000 1.0
C      1  0.4933080000000  0.5077980000000  0.5811540000000 1.0
C      1  0.5526410000000  0.4383000000000  0.5475520000000 1.0
C      1  0.4394650000000  0.4525500000000  0.4778120000000 1.0
C      1  0.5246910000000  0.4709740000000  0.5388640000000 1.0
C      1  0.5691210000000  0.4669590000000  0.5064760000000 1.0
C      1  0.5344890000000  0.5899520000000  0.4983470000000 1.0
C      1  0.4788110000000  0.4768810000000  0.5209730000000 1.0
C      1  0.4722040000000  0.4945680000000  0.4964140000000 1.0
C      1  0.4297180000000  0.4698710000000  0.4990300000000 1.0
C      1  0.4089350000000  0.5186370000000  0.4849020000000 1.0
C      1  0.5353360000000  0.4817390000000  0.4316240000000 1.0
C      1  0.5344560000000  0.4251470000000  0.5064270000000 1.0
C      1  0.5132230000000  0.5140460000000  0.4615640000000 1.0
C      1  0.5350290000000  0.4653420000000  0.5857030000000 1.0
C      1  0.5128500000000  0.5560820000000  0.5284910000000 1.0
C      1  0.4223750000000  0.4980670000000  0.5358010000000 1.0
C      1  0.4619080000000  0.4353460000000  0.4836250000000 1.0
C      1  0.4452100000000  0.4542360000000  0.5457640000000 1.0
C      1  0.4470530000000  0.4561350000000  0.4304380000000 1.0
C      1  0.5595230000000  0.4848390000000  0.5508180000000 1.0
C      1  0.5093990000000  0.4571550000000  0.4881180000000 1.0
C      1  0.5124940000000  0.5445710000000  0.4732820000000 1.0
C      1  0.4847710000000  0.5028040000000  0.4546080000000 1.0
C      1  0.5086450000000  0.4243910000000  0.5224840000000 1.0
C      1  0.4241090000000  0.5165260000000  0.5102360000000 1.0
C      1  0.4431900000000  0.4697480000000  0.4548610000000 1.0
C      1  0.5226930000000  0.5844750000000  0.4491030000000 1.0
C      1  0.5360840000000  0.4915540000000  0.5948220000000 1.0
C      1  0.5185060000000  0.5402020000000  0.4251140000000 1.0
C      1  0.4566410000000  0.5602700000000  0.4793710000000 1.0
C      1  0.5691890000000  0.5144900000000  0.5194290000000 1.0
C      1  0.5355660000000  0.5953290000000  0.4712000000000 1.0
C      1  0.4824320000000  0.5313880000000  0.5679080000000 1.0
C      1  0.5573560000000  0.4601100000000  0.5664240000000 1.0
C      1  0.4404300000000  0.4960390000000  0.4907640000000 1.0
C      1  0.4357710000000  0.5648030000000  0.4976230000000 1.0
C      1  0.4973410000000  0.4079770000000  0.4785640000000 1.0
C      1  0.5605320000000  0.5198380000000  0.4489180000000 1.0
C      1  0.4839520000000  0.4715330000000  0.4715970000000 1.0
C      1  0.4954110000000  0.5586100000000  0.5689280000000 1.0
C      1  0.5721710000000  0.4753630000000  0.4767880000000 1.0
C      1  0.5292640000000  0.5037910000000  0.5354810000000 1.0
C      1  0.5238630000000  0.4990210000000  0.4845500000000 1.0
C      1  0.4630400000000  0.5388110000000  0.5252040000000 1.0
C      1  0.4519440000000  0.4772910000000  0.4112140000000 1.0
C      1  0.5751940000000  0.4874950000000  0.5264450000000 1.0
C      1  0.5088440000000  0.5360780000000  0.5042820000000 1.0
C      1  0.5031050000000  0.4586240000000  0.5186360000000 1.0
C      1  0.4378190000000  0.5014740000000  0.4194800000000 1.0
C      1  0.5542220000000  0.5615900000000  0.5342590000000 1.0
C      1  0.4510490000000  0.5380310000000  0.4617170000000 1.0
C      1  0.5408540000000  0.4142140000000  0.5567770000000 1.0
C      1  0.4587260000000  0.5280640000000  0.5523200000000 1.0
C      1  0.5334380000000  0.5112220000000  0.4379900000000 1.0
C      1  0.5445300000000  0.5505480000000  0.5582730000000 1.0
C      1  0.5732630000000  0.5245190000000  0.4937170000000 1.0
C      1  0.4465500000000  0.5013230000000  0.5524360000000 1.0
C      1  0.4919350000000  0.5491070000000  0.4349790000000 1.0
C      1  0.5213080000000  0.4701520000000  0.4108420000000 1.0
C      1  0.4705240000000  0.5287520000000  0.4415530000000 1.0
C      1  0.5530110000000  0.4444790000000  0.5186880000000 1.0
C      1  0.5619290000000  0.5500900000000  0.4863600000000 1.0
C      1  0.4832890000000  0.5787630000000  0.5507500000000 1.0
C      1  0.5070850000000  0.5898390000000  0.5084810000000 1.0
C      1  0.5015850000000  0.4357180000000  0.5669730000000 1.0
C      1  0.5538520000000  0.5467310000000  0.4583640000000 1.0
C      1  0.5498130000000  0.5667920000000  0.5068980000000 1.0
C      1  0.4367960000000  0.5427650000000  0.5148900000000 1.0
C      1  0.4235300000000  0.4683680000000  0.5291840000000 1.0
C      1  0.5235800000000  0.5652180000000  0.5714740000000 1.0
C      1  0.4652850000000  0.4779830000000  0.5483890000000 1.0
C      1  0.5115180000000  0.4627410000000  0.5665230000000 1.0
C      1  0.4862660000000  0.5684380000000  0.4838050000000 1.0
C      1  0.4794140000000  0.4251000000000  0.4622780000000 1.0
END
