TITL C-951345-2650-238 -1.00048245948727e-06 125000 -961.895317446979 0 0 154 (C1) n - 1
REM
REM in /home/bkarasulu/work/CARBON/AIRSS/Generating-Clusters/EDIP-Nigel-Params/with-SteepDescent/Only-C1/SD-CG/HFTN-CG
REM
REM
REM
REM
REM
REM ./C.cell (11c1c37f851c82e70ff6c80c92926a4b)
REM
REM compiler GCC version 9.2.1 20190827 (Red Hat 9.2.1-1)
REM options -cpp -mtune=generic -march=x86-64 -g -O0 -fpre-include=/usr/include/finclude/math-vector-fortran.h
REM seed -1586714735 -61486763 1785297081 1893122839 -1945016393 150462497 -518967295 -1853894037 530852168 -1682237766 549265147 1009475350 377873178 -1009319225 -203041287 1994320254 2031086446 1506589606 -1358179180 -154030061 879742175 -1559503985 676101245 -1653602958 1357505224 1458745726 1583241421 -447985314 1730123433 -689277393 1429323956 1843652341 515705661
REM
CELL 1.54180   50.00000   50.00000   50.00000   90.00000   90.00000   90.00000
LATT -1
SFAC C  
C      1  0.5218990000000  0.4431390000000  0.4137030000000 1.0
C      1  0.4882260000000  0.5422410000000  0.5445410000000 1.0
C      1  0.5102120000000  0.3810930000000  0.5164120000000 1.0
C      1  0.3984050000000  0.4927140000000  0.5279150000000 1.0
C      1  0.4918360000000  0.5026540000000  0.5143740000000 1.0
C      1  0.5707720000000  0.4712810000000  0.4306030000000 1.0
C      1  0.5125790000000  0.5308510000000  0.3931860000000 1.0
C      1  0.4355690000000  0.5700130000000  0.4856490000000 1.0
C      1  0.5331560000000  0.5160280000000  0.4641840000000 1.0
C      1  0.4826040000000  0.4428810000000  0.5143970000000 1.0
C      1  0.4297100000000  0.4343420000000  0.4784330000000 1.0
C      1  0.5877940000000  0.5805090000000  0.4790380000000 1.0
C      1  0.4130290000000  0.5202490000000  0.4668260000000 1.0
C      1  0.3917160000000  0.5118300000000  0.5053200000000 1.0
C      1  0.4434290000000  0.5412700000000  0.5708260000000 1.0
C      1  0.5792490000000  0.5301180000000  0.4253150000000 1.0
C      1  0.5070030000000  0.4586940000000  0.5468490000000 1.0
C      1  0.4964090000000  0.5088370000000  0.5447940000000 1.0
C      1  0.4950800000000  0.4348560000000  0.4235870000000 1.0
C      1  0.5304790000000  0.6028640000000  0.4814050000000 1.0
C      1  0.4628520000000  0.5257230000000  0.4632150000000 1.0
C      1  0.4498010000000  0.4455780000000  0.4370290000000 1.0
C      1  0.4537990000000  0.4960790000000  0.4094620000000 1.0
C      1  0.4589820000000  0.5639130000000  0.5661450000000 1.0
C      1  0.5287870000000  0.5441330000000  0.4555260000000 1.0
C      1  0.5277280000000  0.4980930000000  0.4397910000000 1.0
C      1  0.5649380000000  0.5346710000000  0.5628700000000 1.0
C      1  0.4997550000000  0.5862270000000  0.5561070000000 1.0
C      1  0.4796150000000  0.4687310000000  0.4785280000000 1.0
C      1  0.5085780000000  0.5619550000000  0.5706690000000 1.0
C      1  0.5272550000000  0.5585800000000  0.4803330000000 1.0
C      1  0.5621690000000  0.5237170000000  0.5895620000000 1.0
C      1  0.4991610000000  0.5598600000000  0.4922870000000 1.0
C      1  0.5962110000000  0.5219950000000  0.5288540000000 1.0
C      1  0.5368030000000  0.4810020000000  0.5496730000000 1.0
C      1  0.4961300000000  0.4071050000000  0.5532950000000 1.0
C      1  0.4811330000000  0.5132650000000  0.6006340000000 1.0
C      1  0.4746960000000  0.4757280000000  0.5097690000000 1.0
C      1  0.4119290000000  0.5507720000000  0.4780590000000 1.0
C      1  0.5357610000000  0.5862990000000  0.4325580000000 1.0
C      1  0.5488540000000  0.4756830000000  0.5210250000000 1.0
C      1  0.5892180000000  0.5697490000000  0.5056070000000 1.0
C      1  0.5455840000000  0.5802380000000  0.5313740000000 1.0
C      1  0.5198160000000  0.4434080000000  0.4898090000000 1.0
C      1  0.4984310000000  0.4902790000000  0.5883790000000 1.0
C      1  0.5613450000000  0.4431570000000  0.4705690000000 1.0
C      1  0.5346010000000  0.5537980000000  0.5284860000000 1.0
C      1  0.4878150000000  0.4764000000000  0.4517220000000 1.0
C      1  0.5829380000000  0.4578920000000  0.4837420000000 1.0
C      1  0.4550130000000  0.5185160000000  0.5857110000000 1.0
C      1  0.4866690000000  0.4807490000000  0.5619460000000 1.0
C      1  0.4214310000000  0.4862740000000  0.5721600000000 1.0
C      1  0.5640650000000  0.4343480000000  0.5199310000000 1.0
C      1  0.4359220000000  0.4406970000000  0.5516040000000 1.0
C      1  0.5578690000000  0.5175460000000  0.4085270000000 1.0
C      1  0.5486150000000  0.4890160000000  0.4178950000000 1.0
C      1  0.3911140000000  0.5012910000000  0.4777480000000 1.0
C      1  0.4386440000000  0.4832880000000  0.4849900000000 1.0
C      1  0.4372660000000  0.5714270000000  0.5149040000000 1.0
C      1  0.4630440000000  0.5669840000000  0.4344060000000 1.0
C      1  0.4207520000000  0.4634370000000  0.4705270000000 1.0
C      1  0.5872250000000  0.5398290000000  0.5063250000000 1.0
C      1  0.4366710000000  0.4268760000000  0.5058310000000 1.0
C      1  0.5707010000000  0.5560050000000  0.4363560000000 1.0
C      1  0.4748770000000  0.4754720000000  0.4048530000000 1.0
C      1  0.5071550000000  0.6018170000000  0.5031460000000 1.0
C      1  0.4738500000000  0.4394540000000  0.5973520000000 1.0
C      1  0.4019060000000  0.5403700000000  0.5053350000000 1.0
C      1  0.5030790000000  0.5098520000000  0.4242230000000 1.0
C      1  0.5012740000000  0.4888670000000  0.4007400000000 1.0
C      1  0.5031300000000  0.4403410000000  0.5934040000000 1.0
C      1  0.4561330000000  0.5263810000000  0.4056410000000 1.0
C      1  0.4444890000000  0.5490020000000  0.4479840000000 1.0
C      1  0.4613450000000  0.4176880000000  0.5851390000000 1.0
C      1  0.5434340000000  0.5002550000000  0.5039440000000 1.0
C      1  0.4746990000000  0.5282290000000  0.5113230000000 1.0
C      1  0.4181960000000  0.5147560000000  0.4371220000000 1.0
C      1  0.5945210000000  0.5147540000000  0.4439970000000 1.0
C      1  0.5257090000000  0.4119800000000  0.4527310000000 1.0
C      1  0.5581620000000  0.4384730000000  0.5495320000000 1.0
C      1  0.5177500000000  0.5942920000000  0.5314180000000 1.0
C      1  0.4451050000000  0.5228190000000  0.5108430000000 1.0
C      1  0.5417560000000  0.5575400000000  0.4314830000000 1.0
C      1  0.4793840000000  0.5054170000000  0.4445810000000 1.0
C      1  0.4788870000000  0.4179530000000  0.4698230000000 1.0
C      1  0.5016800000000  0.5788710000000  0.4586630000000 1.0
C      1  0.4516150000000  0.4810060000000  0.6097050000000 1.0
C      1  0.4286810000000  0.4652910000000  0.4416170000000 1.0
C      1  0.5770940000000  0.5128380000000  0.5492740000000 1.0
C      1  0.4630800000000  0.5825150000000  0.5223530000000 1.0
C      1  0.5926390000000  0.4859170000000  0.4444230000000 1.0
C      1  0.4863970000000  0.5412950000000  0.3977860000000 1.0
C      1  0.4040640000000  0.4650280000000  0.5219110000000 1.0
C      1  0.5754300000000  0.5605810000000  0.4642010000000 1.0
C      1  0.4589130000000  0.5888020000000  0.4780420000000 1.0
C      1  0.4676280000000  0.4161310000000  0.5114880000000 1.0
C      1  0.4506490000000  0.4260650000000  0.4593330000000 1.0
C      1  0.5661950000000  0.4425720000000  0.4405570000000 1.0
C      1  0.4819910000000  0.5367640000000  0.4846720000000 1.0
C      1  0.5718070000000  0.5847260000000  0.5221190000000 1.0
C      1  0.4767530000000  0.5964570000000  0.5008730000000 1.0
C      1  0.4323930000000  0.5366540000000  0.4240520000000 1.0
C      1  0.4822170000000  0.5476910000000  0.4248890000000 1.0
C      1  0.5866820000000  0.4754790000000  0.5273370000000 1.0
C      1  0.5568510000000  0.4700670000000  0.5698050000000 1.0
C      1  0.4394090000000  0.5126230000000  0.4809350000000 1.0
C      1  0.5347320000000  0.4604200000000  0.4719370000000 1.0
C      1  0.5406600000000  0.5382960000000  0.6001000000000 1.0
C      1  0.5057660000000  0.5585470000000  0.5229290000000 1.0
C      1  0.4622740000000  0.4649770000000  0.5874740000000 1.0
C      1  0.4190170000000  0.5037840000000  0.5471480000000 1.0
C      1  0.4503470000000  0.4167950000000  0.5593750000000 1.0
C      1  0.4908960000000  0.4428600000000  0.4849190000000 1.0
C      1  0.4691810000000  0.4055770000000  0.5403380000000 1.0
C      1  0.4431040000000  0.5009780000000  0.5300380000000 1.0
C      1  0.4995630000000  0.3997920000000  0.4976940000000 1.0
C      1  0.4345180000000  0.4914450000000  0.4308080000000 1.0
C      1  0.5589230000000  0.5092710000000  0.4804350000000 1.0
C      1  0.3934630000000  0.4730080000000  0.4746210000000 1.0
C      1  0.5500110000000  0.5792670000000  0.4872950000000 1.0
C      1  0.4948870000000  0.5365620000000  0.6075000000000 1.0
C      1  0.5764220000000  0.4932310000000  0.5721300000000 1.0
C      1  0.4454330000000  0.4776890000000  0.5132920000000 1.0
C      1  0.5265990000000  0.4716070000000  0.4020530000000 1.0
C      1  0.4713820000000  0.5827810000000  0.5498620000000 1.0
C      1  0.4738540000000  0.5867340000000  0.4529000000000 1.0
C      1  0.6012900000000  0.4763270000000  0.4709530000000 1.0
C      1  0.5564160000000  0.4182120000000  0.4938990000000 1.0
C      1  0.5271860000000  0.4144200000000  0.4840540000000 1.0
C      1  0.4355990000000  0.4993180000000  0.5945260000000 1.0
C      1  0.5845530000000  0.4525480000000  0.5115700000000 1.0
C      1  0.5209430000000  0.6000440000000  0.4526030000000 1.0
C      1  0.4367620000000  0.4609890000000  0.5720120000000 1.0
C      1  0.5414480000000  0.4281660000000  0.4312360000000 1.0
C      1  0.6072340000000  0.5002200000000  0.4879900000000 1.0
C      1  0.5375080000000  0.4212580000000  0.5591640000000 1.0
C      1  0.6045150000000  0.4962830000000  0.5177260000000 1.0
C      1  0.5419150000000  0.4670910000000  0.5940140000000 1.0
C      1  0.4972740000000  0.4147830000000  0.4454750000000 1.0
C      1  0.5157410000000  0.5509380000000  0.5966660000000 1.0
C      1  0.5253860000000  0.5089370000000  0.5498690000000 1.0
C      1  0.5183270000000  0.3970860000000  0.5376590000000 1.0
C      1  0.5098920000000  0.4330740000000  0.5643900000000 1.0
C      1  0.5382220000000  0.5357520000000  0.5511360000000 1.0
C      1  0.5145800000000  0.4673200000000  0.6009540000000 1.0
C      1  0.4219100000000  0.4427080000000  0.5264110000000 1.0
C      1  0.4213060000000  0.5347140000000  0.5518740000000 1.0
C      1  0.5868140000000  0.5222880000000  0.4804780000000 1.0
C      1  0.5371730000000  0.5389650000000  0.4063590000000 1.0
C      1  0.5178980000000  0.4738460000000  0.4516160000000 1.0
C      1  0.4259130000000  0.5444020000000  0.5227870000000 1.0
C      1  0.4763010000000  0.4572830000000  0.4289830000000 1.0
C      1  0.5161710000000  0.5054580000000  0.4949770000000 1.0
C      1  0.5248390000000  0.4540870000000  0.5178220000000 1.0
END
