TITL C-951336-9012-143 -8.39581744447131e-07 125000 -733.31142759266 0 0 117 (C1) n - 1
REM
REM in /home/bkarasulu/work/CARBON/AIRSS/Generating-Clusters/EDIP-Nigel-Params/with-SteepDescent/Only-C1/SD-CG/HFTN-CG
REM
REM
REM
REM
REM
REM ./C.cell (11c1c37f851c82e70ff6c80c92926a4b)
REM
REM compiler GCC version 9.2.1 20190827 (Red Hat 9.2.1-1)
REM options -cpp -mtune=generic -march=x86-64 -g -O0 -fpre-include=/usr/include/finclude/math-vector-fortran.h
REM seed -974923827 851448226 -1151648208 1750137297 -669189367 195883855 944039992 -134414870 -466552025 -1931119207 -1432312142 -546812512 10794756 -898758982 -18573375 -133606616 -716300608 -1390553543 -795953697 1220630350 783929440 86791986 -872669746 -710849404 -474830542 -742675605 2025737180 264805967 659261019 2124116862 344504913 1753663261 -1062776426
REM
CELL 1.54180   50.00000   50.00000   50.00000   90.00000   90.00000   90.00000
LATT -1
SFAC C  
C      1  0.4345650000000  0.4545340000000  0.5225670000000 1.0
C      1  0.4544740000000  0.5145670000000  0.5636410000000 1.0
C      1  0.5185340000000  0.5414160000000  0.4398220000000 1.0
C      1  0.4809740000000  0.4724010000000  0.5327800000000 1.0
C      1  0.5581650000000  0.5252700000000  0.5420820000000 1.0
C      1  0.5833400000000  0.4739790000000  0.5243720000000 1.0
C      1  0.5477310000000  0.5528230000000  0.5459070000000 1.0
C      1  0.5169190000000  0.5534300000000  0.5069720000000 1.0
C      1  0.4688760000000  0.4916100000000  0.4756020000000 1.0
C      1  0.5600920000000  0.5921160000000  0.4824510000000 1.0
C      1  0.4709410000000  0.4609150000000  0.4803960000000 1.0
C      1  0.4078350000000  0.4603480000000  0.4751770000000 1.0
C      1  0.5041510000000  0.4211040000000  0.5400870000000 1.0
C      1  0.5334490000000  0.4488360000000  0.5791580000000 1.0
C      1  0.4328890000000  0.4774460000000  0.4423310000000 1.0
C      1  0.5385350000000  0.5688880000000  0.5209190000000 1.0
C      1  0.4874030000000  0.5255530000000  0.5370360000000 1.0
C      1  0.4646390000000  0.4562990000000  0.5108700000000 1.0
C      1  0.4788980000000  0.5690090000000  0.4582700000000 1.0
C      1  0.4518670000000  0.4322730000000  0.4620680000000 1.0
C      1  0.5893910000000  0.4687880000000  0.4969650000000 1.0
C      1  0.5177700000000  0.4760320000000  0.5748150000000 1.0
C      1  0.4637480000000  0.4723030000000  0.5578050000000 1.0
C      1  0.5615590000000  0.5706920000000  0.5006550000000 1.0
C      1  0.4857110000000  0.5912460000000  0.4783380000000 1.0
C      1  0.5517940000000  0.4396540000000  0.4952330000000 1.0
C      1  0.5934990000000  0.5276350000000  0.4788880000000 1.0
C      1  0.5333980000000  0.4703890000000  0.4178580000000 1.0
C      1  0.4694360000000  0.4260850000000  0.5713970000000 1.0
C      1  0.5200470000000  0.4715910000000  0.4696810000000 1.0
C      1  0.4308740000000  0.4261450000000  0.5285680000000 1.0
C      1  0.4566220000000  0.4155310000000  0.5237160000000 1.0
C      1  0.3999560000000  0.4850620000000  0.4606590000000 1.0
C      1  0.4597410000000  0.5086430000000  0.5003850000000 1.0
C      1  0.5344080000000  0.5179370000000  0.4318230000000 1.0
C      1  0.6104670000000  0.5222820000000  0.5005250000000 1.0
C      1  0.5137780000000  0.4130830000000  0.5146280000000 1.0
C      1  0.4442300000000  0.5696560000000  0.4925180000000 1.0
C      1  0.4665230000000  0.5893250000000  0.5000330000000 1.0
C      1  0.5604440000000  0.4742170000000  0.5444060000000 1.0
C      1  0.4524670000000  0.5646840000000  0.5407050000000 1.0
C      1  0.4263850000000  0.5090530000000  0.5203670000000 1.0
C      1  0.4613150000000  0.5437150000000  0.5599400000000 1.0
C      1  0.4989590000000  0.5881910000000  0.5420270000000 1.0
C      1  0.5600450000000  0.5447860000000  0.4852370000000 1.0
C      1  0.4692010000000  0.4525940000000  0.5801330000000 1.0
C      1  0.5349430000000  0.4704420000000  0.5292530000000 1.0
C      1  0.5516060000000  0.4259220000000  0.5535170000000 1.0
C      1  0.5657820000000  0.4607850000000  0.4537740000000 1.0
C      1  0.5576470000000  0.5010070000000  0.5597570000000 1.0
C      1  0.4175150000000  0.5360740000000  0.5126030000000 1.0
C      1  0.4510020000000  0.4999790000000  0.4533470000000 1.0
C      1  0.5084360000000  0.5280490000000  0.4663980000000 1.0
C      1  0.5354270000000  0.5872950000000  0.4691570000000 1.0
C      1  0.5417190000000  0.4767510000000  0.4466080000000 1.0
C      1  0.5213900000000  0.4980570000000  0.4135910000000 1.0
C      1  0.5008870000000  0.4975330000000  0.4736230000000 1.0
C      1  0.5404760000000  0.4174990000000  0.5084800000000 1.0
C      1  0.5219260000000  0.5940760000000  0.5238340000000 1.0
C      1  0.5307350000000  0.5113950000000  0.5100420000000 1.0
C      1  0.5153160000000  0.5149680000000  0.5448140000000 1.0
C      1  0.4786550000000  0.4764610000000  0.4278890000000 1.0
C      1  0.4958470000000  0.5487390000000  0.4199520000000 1.0
C      1  0.5295740000000  0.5343380000000  0.4903740000000 1.0
C      1  0.4118680000000  0.4652800000000  0.5041230000000 1.0
C      1  0.4010040000000  0.5062350000000  0.4806140000000 1.0
C      1  0.4962160000000  0.4156150000000  0.4923800000000 1.0
C      1  0.5157280000000  0.4456320000000  0.4174470000000 1.0
C      1  0.4287590000000  0.5573160000000  0.4689590000000 1.0
C      1  0.5594590000000  0.4970060000000  0.5043670000000 1.0
C      1  0.4941140000000  0.5272980000000  0.5888270000000 1.0
C      1  0.4784790000000  0.5251190000000  0.4184470000000 1.0
C      1  0.5304260000000  0.5534440000000  0.5690890000000 1.0
C      1  0.4059850000000  0.4933650000000  0.5066030000000 1.0
C      1  0.4782230000000  0.5702410000000  0.4290720000000 1.0
C      1  0.4918300000000  0.4503170000000  0.4356340000000 1.0
C      1  0.5773730000000  0.5078390000000  0.4657920000000 1.0
C      1  0.4319960000000  0.5007980000000  0.5486740000000 1.0
C      1  0.5234560000000  0.4230050000000  0.5617250000000 1.0
C      1  0.5818310000000  0.4787910000000  0.4711110000000 1.0
C      1  0.4884830000000  0.4770260000000  0.5877400000000 1.0
C      1  0.4634800000000  0.4354710000000  0.4342100000000 1.0
C      1  0.4677440000000  0.5385570000000  0.4947990000000 1.0
C      1  0.5302250000000  0.4225030000000  0.4245890000000 1.0
C      1  0.5132170000000  0.4825000000000  0.5451320000000 1.0
C      1  0.4516250000000  0.4636520000000  0.4228600000000 1.0
C      1  0.4763010000000  0.4179440000000  0.5457310000000 1.0
C      1  0.5622860000000  0.5486810000000  0.4549890000000 1.0
C      1  0.4751680000000  0.5050070000000  0.5839490000000 1.0
C      1  0.5369750000000  0.4658410000000  0.4985380000000 1.0
C      1  0.4673190000000  0.4200470000000  0.4955020000000 1.0
C      1  0.4352270000000  0.5580620000000  0.5176640000000 1.0
C      1  0.4915330000000  0.4987010000000  0.4138710000000 1.0
C      1  0.5376440000000  0.5640050000000  0.4488460000000 1.0
C      1  0.5132250000000  0.5931480000000  0.4882750000000 1.0
C      1  0.5058950000000  0.4973130000000  0.5027000000000 1.0
C      1  0.4982730000000  0.4503800000000  0.4656030000000 1.0
C      1  0.4351230000000  0.4709350000000  0.5489100000000 1.0
C      1  0.5618990000000  0.5209290000000  0.4435750000000 1.0
C      1  0.4612570000000  0.5272000000000  0.4434110000000 1.0
C      1  0.5365060000000  0.5001410000000  0.5809240000000 1.0
C      1  0.5613810000000  0.4515220000000  0.5641320000000 1.0
C      1  0.4801100000000  0.5399750000000  0.4674520000000 1.0
C      1  0.5051760000000  0.5695270000000  0.5660430000000 1.0
C      1  0.6022090000000  0.5143080000000  0.5254270000000 1.0
C      1  0.4766290000000  0.5753690000000  0.5258030000000 1.0
C      1  0.4456230000000  0.5550660000000  0.4436090000000 1.0
C      1  0.4814160000000  0.5009120000000  0.5193760000000 1.0
C      1  0.5746250000000  0.5206420000000  0.5179770000000 1.0
C      1  0.4319700000000  0.4542810000000  0.4615440000000 1.0
C      1  0.4884600000000  0.5483960000000  0.5161250000000 1.0
C      1  0.5204920000000  0.5250100000000  0.5741850000000 1.0
C      1  0.5308620000000  0.4234650000000  0.4526960000000 1.0
C      1  0.5549730000000  0.4352080000000  0.4663040000000 1.0
C      1  0.5080610000000  0.4127660000000  0.4667650000000 1.0
C      1  0.4139840000000  0.5339130000000  0.4828360000000 1.0
C      1  0.4829490000000  0.5527970000000  0.5782180000000 1.0
END
