TITL C-951344-124-613 0.00022989993062259 125000 -266.836560337508 0 0 45 (C1) n - 1
REM
REM in /home/bkarasulu/work/CARBON/AIRSS/Generating-Clusters/EDIP-Nigel-Params/with-SteepDescent/Only-C1/SD-CG/HFTN-CG
REM
REM
REM
REM
REM
REM ./C.cell (11c1c37f851c82e70ff6c80c92926a4b)
REM
REM compiler GCC version 9.2.1 20190827 (Red Hat 9.2.1-1)
REM options -cpp -mtune=generic -march=x86-64 -g -O0 -fpre-include=/usr/include/finclude/math-vector-fortran.h
REM seed -1937307108 -2048907470 93066015 840297093 788084936 -1152069020 664375820 374678815 314773318 62247237 -1038037372 2096339939 809305178 -633001769 1959051711 305129799 -1372687008 1060891303 -1243903868 -617287378 462198090 -450873117 903666962 -823581617 -152525975 982728488 1961623499 -1049010127 2114013022 -1305863902 1338131742 689442902 -1382222268
REM
CELL 1.54180   50.00000   50.00000   50.00000   90.00000   90.00000   90.00000
LATT -1
SFAC C  
C      1  0.5436660000000  0.4595860000000  0.4464750000000 1.0
C      1  0.4527880000000  0.4616590000000  0.4430080000000 1.0
C      1  0.5328100000000  0.4468620000000  0.4693980000000 1.0
C      1  0.5730410000000  0.5154820000000  0.4957950000000 1.0
C      1  0.4910720000000  0.5226910000000  0.4463000000000 1.0
C      1  0.4665370000000  0.5576710000000  0.4724450000000 1.0
C      1  0.5263270000000  0.5268620000000  0.5642720000000 1.0
C      1  0.5084980000000  0.5045530000000  0.5599610000000 1.0
C      1  0.4800470000000  0.4976350000000  0.4870620000000 1.0
C      1  0.5451900000000  0.4497900000000  0.4959030000000 1.0
C      1  0.5033380000000  0.4361740000000  0.4898390000000 1.0
C      1  0.5258970000000  0.5111200000000  0.5043180000000 1.0
C      1  0.4580260000000  0.4888260000000  0.4439700000000 1.0
C      1  0.4524500000000  0.4941180000000  0.5014260000000 1.0
C      1  0.4344090000000  0.4705140000000  0.4893670000000 1.0
C      1  0.5683190000000  0.4938910000000  0.5151720000000 1.0
C      1  0.4851890000000  0.4611680000000  0.5374510000000 1.0
C      1  0.5642630000000  0.4685940000000  0.5043250000000 1.0
C      1  0.4581240000000  0.5123160000000  0.5415000000000 1.0
C      1  0.4944490000000  0.5458130000000  0.5442220000000 1.0
C      1  0.4756710000000  0.4401370000000  0.4915450000000 1.0
C      1  0.4586370000000  0.4618930000000  0.5309010000000 1.0
C      1  0.4525950000000  0.4510820000000  0.5040710000000 1.0
C      1  0.4999570000000  0.5754220000000  0.5077450000000 1.0
C      1  0.4320590000000  0.4658070000000  0.4608370000000 1.0
C      1  0.4808980000000  0.4992590000000  0.4574700000000 1.0
C      1  0.4801580000000  0.5741000000000  0.4899070000000 1.0
C      1  0.5050090000000  0.4907300000000  0.5011300000000 1.0
C      1  0.4397830000000  0.5220930000000  0.5023820000000 1.0
C      1  0.4421450000000  0.5317100000000  0.5287060000000 1.0
C      1  0.5650640000000  0.4771070000000  0.4465610000000 1.0
C      1  0.5470490000000  0.4977500000000  0.4501630000000 1.0
C      1  0.4869020000000  0.5185240000000  0.5449460000000 1.0
C      1  0.5120180000000  0.5604930000000  0.5276170000000 1.0
C      1  0.5384450000000  0.5493820000000  0.5231020000000 1.0
C      1  0.5085800000000  0.4700540000000  0.5242890000000 1.0
C      1  0.4462030000000  0.4862970000000  0.5385930000000 1.0
C      1  0.5457190000000  0.5294560000000  0.5432860000000 1.0
C      1  0.5208380000000  0.4453920000000  0.5118750000000 1.0
C      1  0.4472180000000  0.5407460000000  0.4830760000000 1.0
C      1  0.4817210000000  0.5472160000000  0.4518480000000 1.0
C      1  0.5254430000000  0.4843550000000  0.5446420000000 1.0
C      1  0.5466890000000  0.5303260000000  0.4915180000000 1.0
C      1  0.5427420000000  0.5034880000000  0.5282640000000 1.0
C      1  0.5540160000000  0.5218510000000  0.4633160000000 1.0
END
