TITL C-951344-124-203 -2.86726499269221e-08 125000 -781.399054684575 0 0 125 (C1) n - 1
REM
REM in /home/bkarasulu/work/CARBON/AIRSS/Generating-Clusters/EDIP-Nigel-Params/with-SteepDescent/Only-C1/SD-CG/HFTN-CG
REM
REM
REM
REM
REM
REM ./C.cell (11c1c37f851c82e70ff6c80c92926a4b)
REM
REM compiler GCC version 9.2.1 20190827 (Red Hat 9.2.1-1)
REM options -cpp -mtune=generic -march=x86-64 -g -O0 -fpre-include=/usr/include/finclude/math-vector-fortran.h
REM seed 184388351 16335324 1379510588 339166159 -808278177 -1994266209 -1431844800 2026012897 -1351204425 -424514347 143236994 -743754487 -1270714555 -530200317 -216039177 352072428 532848964 591550918 -1311786048 1397862404 2121337948 -16710794 -1432314753 -1649818574 291542044 -1514616336 -1601256613 -2125428435 1302521746 -1669265361 -91650574 651802523 -423735950
REM
CELL 1.54180   50.00000   50.00000   50.00000   90.00000   90.00000   90.00000
LATT -1
SFAC C  
C      1  0.5542370000000  0.4737900000000  0.4889520000000 1.0
C      1  0.5345260000000  0.4039730000000  0.5082020000000 1.0
C      1  0.5259270000000  0.4177900000000  0.5519940000000 1.0
C      1  0.5121040000000  0.4294460000000  0.5726590000000 1.0
C      1  0.4963380000000  0.5185950000000  0.4405560000000 1.0
C      1  0.4931230000000  0.4687470000000  0.3798080000000 1.0
C      1  0.5683110000000  0.4997860000000  0.4477720000000 1.0
C      1  0.5460860000000  0.5260640000000  0.4146550000000 1.0
C      1  0.5941090000000  0.4999470000000  0.5000610000000 1.0
C      1  0.4825250000000  0.4047290000000  0.4852040000000 1.0
C      1  0.5729950000000  0.4603380000000  0.5081120000000 1.0
C      1  0.5236160000000  0.5126970000000  0.5532020000000 1.0
C      1  0.4495740000000  0.4361990000000  0.4341750000000 1.0
C      1  0.5022210000000  0.4184400000000  0.4402540000000 1.0
C      1  0.5368240000000  0.5379260000000  0.4668930000000 1.0
C      1  0.5017560000000  0.5507820000000  0.5074070000000 1.0
C      1  0.5110230000000  0.4929230000000  0.4474730000000 1.0
C      1  0.5433410000000  0.5462380000000  0.5217350000000 1.0
C      1  0.4613000000000  0.4263970000000  0.5225570000000 1.0
C      1  0.5190560000000  0.4487010000000  0.5162390000000 1.0
C      1  0.4494690000000  0.5269810000000  0.4257430000000 1.0
C      1  0.5051230000000  0.4048980000000  0.4672520000000 1.0
C      1  0.4625280000000  0.5122030000000  0.5225510000000 1.0
C      1  0.4993590000000  0.5962810000000  0.4724350000000 1.0
C      1  0.4401070000000  0.5552000000000  0.4921710000000 1.0
C      1  0.4502500000000  0.4836800000000  0.5707190000000 1.0
C      1  0.4550910000000  0.5133500000000  0.6070500000000 1.0
C      1  0.5364160000000  0.4999130000000  0.4060540000000 1.0
C      1  0.5800680000000  0.5223260000000  0.4893890000000 1.0
C      1  0.4849860000000  0.4111530000000  0.5133520000000 1.0
C      1  0.4668100000000  0.5083370000000  0.4400710000000 1.0
C      1  0.5140700000000  0.4188740000000  0.5239870000000 1.0
C      1  0.4333800000000  0.5057980000000  0.5649210000000 1.0
C      1  0.4278870000000  0.5519750000000  0.5199880000000 1.0
C      1  0.5406520000000  0.5678390000000  0.4743500000000 1.0
C      1  0.4903120000000  0.5757840000000  0.5496350000000 1.0
C      1  0.5359140000000  0.4856590000000  0.4317810000000 1.0
C      1  0.4537800000000  0.5050560000000  0.4704710000000 1.0
C      1  0.5008210000000  0.5990900000000  0.5105770000000 1.0
C      1  0.4707440000000  0.5919230000000  0.5128080000000 1.0
C      1  0.5241420000000  0.5413540000000  0.5449320000000 1.0
C      1  0.4843490000000  0.4857510000000  0.5020410000000 1.0
C      1  0.5694240000000  0.5328240000000  0.5309970000000 1.0
C      1  0.4801990000000  0.5268390000000  0.6128630000000 1.0
C      1  0.5575770000000  0.4257470000000  0.4719440000000 1.0
C      1  0.6010100000000  0.4746650000000  0.5415410000000 1.0
C      1  0.5179820000000  0.5737640000000  0.4981330000000 1.0
C      1  0.4564570000000  0.5806940000000  0.4895500000000 1.0
C      1  0.4725820000000  0.5848590000000  0.4658860000000 1.0
C      1  0.5269590000000  0.5465480000000  0.4097420000000 1.0
C      1  0.5277900000000  0.4682900000000  0.5386100000000 1.0
C      1  0.5104930000000  0.5954120000000  0.5395680000000 1.0
C      1  0.4639840000000  0.5245000000000  0.4931780000000 1.0
C      1  0.5537510000000  0.5247270000000  0.4434030000000 1.0
C      1  0.5357220000000  0.4975780000000  0.4972070000000 1.0
C      1  0.5065400000000  0.5332010000000  0.4646830000000 1.0
C      1  0.4874130000000  0.4426660000000  0.4826780000000 1.0
C      1  0.4404340000000  0.4404520000000  0.4636890000000 1.0
C      1  0.4930500000000  0.4976450000000  0.5913300000000 1.0
C      1  0.4346720000000  0.4658620000000  0.5024780000000 1.0
C      1  0.5186940000000  0.5412360000000  0.5891130000000 1.0
C      1  0.5846290000000  0.5463450000000  0.5065430000000 1.0
C      1  0.4584910000000  0.4793950000000  0.4864770000000 1.0
C      1  0.4144030000000  0.5260520000000  0.5242840000000 1.0
C      1  0.4652080000000  0.4566680000000  0.4699810000000 1.0
C      1  0.4998340000000  0.5382690000000  0.4160840000000 1.0
C      1  0.4902670000000  0.4569040000000  0.5108070000000 1.0
C      1  0.4682380000000  0.4826790000000  0.4230860000000 1.0
C      1  0.4704660000000  0.5637360000000  0.4467380000000 1.0
C      1  0.3984600000000  0.5162580000000  0.5040580000000 1.0
C      1  0.5388740000000  0.4559350000000  0.4277090000000 1.0
C      1  0.5157000000000  0.5773240000000  0.4299280000000 1.0
C      1  0.5376640000000  0.5095490000000  0.5792230000000 1.0
C      1  0.5530500000000  0.4279620000000  0.5475490000000 1.0
C      1  0.4286720000000  0.5424980000000  0.4659920000000 1.0
C      1  0.4311450000000  0.4765300000000  0.5297310000000 1.0
C      1  0.5388550000000  0.4801790000000  0.5843100000000 1.0
C      1  0.5239930000000  0.4394270000000  0.4483150000000 1.0
C      1  0.5051130000000  0.4937570000000  0.3854850000000 1.0
C      1  0.4697540000000  0.4472590000000  0.5423560000000 1.0
C      1  0.5113440000000  0.4729420000000  0.5939230000000 1.0
C      1  0.5122820000000  0.4559300000000  0.4704880000000 1.0
C      1  0.5315760000000  0.5573850000000  0.5686890000000 1.0
C      1  0.4467730000000  0.4631400000000  0.5506030000000 1.0
C      1  0.4634980000000  0.5823600000000  0.5396680000000 1.0
C      1  0.5231480000000  0.5866350000000  0.4563920000000 1.0
C      1  0.4921580000000  0.5318820000000  0.4891880000000 1.0
C      1  0.4642460000000  0.4868060000000  0.5961780000000 1.0
C      1  0.5641790000000  0.5026880000000  0.5323470000000 1.0
C      1  0.4774440000000  0.4865860000000  0.3955640000000 1.0
C      1  0.5514000000000  0.4634540000000  0.5593080000000 1.0
C      1  0.4242800000000  0.5109120000000  0.4629240000000 1.0
C      1  0.5726690000000  0.4318390000000  0.4993560000000 1.0
C      1  0.5663020000000  0.4746770000000  0.4618390000000 1.0
C      1  0.4043940000000  0.5002570000000  0.4823020000000 1.0
C      1  0.5373220000000  0.5843900000000  0.5427060000000 1.0
C      1  0.4241250000000  0.4799290000000  0.4417920000000 1.0
C      1  0.5973380000000  0.4750150000000  0.5132970000000 1.0
C      1  0.4095720000000  0.4712700000000  0.4864130000000 1.0
C      1  0.4168050000000  0.4593040000000  0.4605030000000 1.0
C      1  0.5088760000000  0.4921820000000  0.4807340000000 1.0
C      1  0.4421680000000  0.4362610000000  0.5021030000000 1.0
C      1  0.4443250000000  0.4657510000000  0.4255050000000 1.0
C      1  0.4986730000000  0.4534640000000  0.5754200000000 1.0
C      1  0.4343820000000  0.5063020000000  0.5344860000000 1.0
C      1  0.4992720000000  0.4712930000000  0.5511470000000 1.0
C      1  0.4654010000000  0.5413500000000  0.5683250000000 1.0
C      1  0.5752530000000  0.4826560000000  0.5508950000000 1.0
C      1  0.4892840000000  0.5416720000000  0.5904000000000 1.0
C      1  0.5325370000000  0.4086030000000  0.4792190000000 1.0
C      1  0.4790250000000  0.5245190000000  0.5456600000000 1.0
C      1  0.5596880000000  0.4153210000000  0.5206080000000 1.0
C      1  0.5693440000000  0.5708740000000  0.4970350000000 1.0
C      1  0.4431330000000  0.5268960000000  0.5825640000000 1.0
C      1  0.4461000000000  0.5485110000000  0.4431110000000 1.0
C      1  0.4971600000000  0.5484310000000  0.5363210000000 1.0
C      1  0.5485500000000  0.5249410000000  0.4924120000000 1.0
C      1  0.5621400000000  0.4486000000000  0.4475270000000 1.0
C      1  0.4455780000000  0.5597490000000  0.5424270000000 1.0
C      1  0.4762340000000  0.4264520000000  0.4322570000000 1.0
C      1  0.5337920000000  0.4513200000000  0.4896570000000 1.0
C      1  0.4894940000000  0.5648320000000  0.4246900000000 1.0
C      1  0.5546520000000  0.5833140000000  0.5194310000000 1.0
C      1  0.4961440000000  0.5018590000000  0.5597410000000 1.0
C      1  0.5351370000000  0.4962800000000  0.5294070000000 1.0
END
