TITL C-951346-9544-405 -2.31745747237899e-05 125000 -366.936017942036 0 0 60 (C1) n - 1
REM
REM in /home/bkarasulu/work/CARBON/AIRSS/Generating-Clusters/EDIP-Nigel-Params/with-SteepDescent/Only-C1/SD-CG/HFTN-CG
REM
REM
REM
REM
REM
REM ./C.cell (11c1c37f851c82e70ff6c80c92926a4b)
REM
REM compiler GCC version 9.2.1 20190827 (Red Hat 9.2.1-1)
REM options -cpp -mtune=generic -march=x86-64 -g -O0 -fpre-include=/usr/include/finclude/math-vector-fortran.h
REM seed 910573138 1041268476 2203781 1717882073 -975973519 840163145 326563666 964437437 765142383 -1050707638 192326553 530959316 -184507658 -388404335 1017186071 -1943926630 -237289818 -975728860 -1389460683 -1768766444 377365106 -746030060 -1157987966 -935997355 -1763951904 -1028534133 248710455 -1049433619 -1114528234 -1607820672 90512965 -633826853 -986394739
REM
CELL 1.54180   50.00000   50.00000   50.00000   90.00000   90.00000   90.00000
LATT -1
SFAC C  
C      1  0.5303890000000  0.4777850000000  0.5754810000000 1.0
C      1  0.5507460000000  0.5584770000000  0.5212660000000 1.0
C      1  0.4502660000000  0.5466070000000  0.5110530000000 1.0
C      1  0.4844590000000  0.5463600000000  0.4732460000000 1.0
C      1  0.4374800000000  0.5001950000000  0.4860840000000 1.0
C      1  0.5115710000000  0.4990090000000  0.4816820000000 1.0
C      1  0.5466980000000  0.5212150000000  0.4448410000000 1.0
C      1  0.5261730000000  0.5721100000000  0.5164470000000 1.0
C      1  0.5413930000000  0.5309290000000  0.5242620000000 1.0
C      1  0.4610170000000  0.4383430000000  0.5125390000000 1.0
C      1  0.5598210000000  0.4394240000000  0.4799060000000 1.0
C      1  0.4763800000000  0.4526100000000  0.4631530000000 1.0
C      1  0.5608270000000  0.5080670000000  0.5152940000000 1.0
C      1  0.5764090000000  0.5075830000000  0.4916790000000 1.0
C      1  0.5387000000000  0.4401410000000  0.4621780000000 1.0
C      1  0.4404610000000  0.4526920000000  0.4968960000000 1.0
C      1  0.4878950000000  0.5721930000000  0.4867620000000 1.0
C      1  0.5506140000000  0.4573520000000  0.5259720000000 1.0
C      1  0.4689040000000  0.5066330000000  0.5082270000000 1.0
C      1  0.4563010000000  0.5246370000000  0.5312120000000 1.0
C      1  0.5002020000000  0.4506700000000  0.5453500000000 1.0
C      1  0.4339370000000  0.4790830000000  0.5081350000000 1.0
C      1  0.5350120000000  0.5196430000000  0.4819610000000 1.0
C      1  0.4893140000000  0.4289900000000  0.4735520000000 1.0
C      1  0.4778490000000  0.4210380000000  0.4976880000000 1.0
C      1  0.4883750000000  0.4932330000000  0.5581900000000 1.0
C      1  0.5185700000000  0.5729150000000  0.4877100000000 1.0
C      1  0.4576400000000  0.5415110000000  0.4605820000000 1.0
C      1  0.5307900000000  0.5487460000000  0.4669190000000 1.0
C      1  0.4885580000000  0.5196750000000  0.5688680000000 1.0
C      1  0.5104580000000  0.5387970000000  0.5602180000000 1.0
C      1  0.5130070000000  0.4853950000000  0.4519360000000 1.0
C      1  0.5593020000000  0.5057750000000  0.4695210000000 1.0
C      1  0.4865280000000  0.4732190000000  0.4453120000000 1.0
C      1  0.5214480000000  0.5082040000000  0.4338630000000 1.0
C      1  0.4417480000000  0.5322510000000  0.4845130000000 1.0
C      1  0.4919650000000  0.5215740000000  0.4934520000000 1.0
C      1  0.4699370000000  0.4581590000000  0.5336870000000 1.0
C      1  0.5095450000000  0.4794220000000  0.5061850000000 1.0
C      1  0.4720880000000  0.5368570000000  0.5530770000000 1.0
C      1  0.4414540000000  0.4823060000000  0.5357430000000 1.0
C      1  0.4649870000000  0.4928220000000  0.4450700000000 1.0
C      1  0.5201010000000  0.4555840000000  0.5211380000000 1.0
C      1  0.5101430000000  0.5308940000000  0.5166330000000 1.0
C      1  0.4841880000000  0.4840950000000  0.5209380000000 1.0
C      1  0.5356030000000  0.5243610000000  0.5528020000000 1.0
C      1  0.5393340000000  0.4953070000000  0.5553380000000 1.0
C      1  0.4991770000000  0.5284530000000  0.4326280000000 1.0
C      1  0.5570640000000  0.4856600000000  0.5343870000000 1.0
C      1  0.5659580000000  0.4478670000000  0.5045110000000 1.0
C      1  0.4415780000000  0.4847450000000  0.4606460000000 1.0
C      1  0.4751790000000  0.5661530000000  0.5127330000000 1.0
C      1  0.4478420000000  0.4566840000000  0.4683280000000 1.0
C      1  0.5048450000000  0.5492250000000  0.4524530000000 1.0
C      1  0.4697570000000  0.5211980000000  0.4394880000000 1.0
C      1  0.5016180000000  0.5573010000000  0.5280910000000 1.0
C      1  0.5041160000000  0.4710970000000  0.5672020000000 1.0
C      1  0.5327890000000  0.4647630000000  0.4512890000000 1.0
C      1  0.4352150000000  0.5086470000000  0.5431880000000 1.0
C      1  0.5162780000000  0.4253190000000  0.4684960000000 1.0
END
