TITL C-950536-5891-19 -1.37712423221568e-06 125000 -686.668737231054 0 0 110 (C1) n - 1
REM
REM in /home/bkarasulu/work/CARBON/AIRSS/Generating-Clusters/EDIP-Nigel-Params/with-SteepDescent/Only-C1/SD-CG/HFTN-CG
REM
REM
REM
REM
REM
REM ./C.cell (11c1c37f851c82e70ff6c80c92926a4b)
REM
REM compiler GCC version 9.2.1 20190827 (Red Hat 9.2.1-1)
REM options -cpp -mtune=generic -march=x86-64 -g -O0 -fpre-include=/usr/include/finclude/math-vector-fortran.h
REM seed 1973113113 1204013865 -1230804228 1626437800 -304602167 -1948039523 -788535499 1026735781 1621310426 -527184704 -1749739025 -52853304 1997282222 -2041549374 -1006847677 3282180 -613195523 1418275617 -301709845 376018252 -1526141268 778198330 -1276092160 -1935337020 1765363880 -896925637 364423127 -1418766649 -642297540 -129711164 1633863986 31257663 -888901644
REM
CELL 1.54180   50.00000   50.00000   50.00000   90.00000   90.00000   90.00000
LATT -1
SFAC C  
C      1  0.4634760000000  0.4651330000000  0.4979280000000 1.0
C      1  0.5271440000000  0.4607040000000  0.4792600000000 1.0
C      1  0.4194670000000  0.4634690000000  0.5194260000000 1.0
C      1  0.4196580000000  0.5234820000000  0.5513620000000 1.0
C      1  0.4400410000000  0.4263220000000  0.4737700000000 1.0
C      1  0.5475630000000  0.4437170000000  0.5454610000000 1.0
C      1  0.4122510000000  0.4804260000000  0.4958360000000 1.0
C      1  0.4991390000000  0.5291240000000  0.4567620000000 1.0
C      1  0.4966680000000  0.5021840000000  0.4975490000000 1.0
C      1  0.4347540000000  0.5026050000000  0.4580210000000 1.0
C      1  0.4566380000000  0.5582530000000  0.4427810000000 1.0
C      1  0.5683920000000  0.4633370000000  0.4637150000000 1.0
C      1  0.5011820000000  0.5449370000000  0.5085680000000 1.0
C      1  0.4389060000000  0.5413520000000  0.4287600000000 1.0
C      1  0.5245730000000  0.5115520000000  0.4646270000000 1.0
C      1  0.5626450000000  0.5338340000000  0.5746880000000 1.0
C      1  0.4558400000000  0.4541720000000  0.4366270000000 1.0
C      1  0.5519380000000  0.5552750000000  0.4522810000000 1.0
C      1  0.4591550000000  0.5558690000000  0.4733070000000 1.0
C      1  0.5064400000000  0.4450200000000  0.4951620000000 1.0
C      1  0.4820550000000  0.5625650000000  0.4288160000000 1.0
C      1  0.4795730000000  0.5155910000000  0.4293680000000 1.0
C      1  0.5315110000000  0.4669810000000  0.5310600000000 1.0
C      1  0.4426080000000  0.5565350000000  0.5296910000000 1.0
C      1  0.5019850000000  0.5800340000000  0.4705270000000 1.0
C      1  0.5081200000000  0.4474630000000  0.4323610000000 1.0
C      1  0.4381130000000  0.5469980000000  0.5582220000000 1.0
C      1  0.4824010000000  0.5309080000000  0.4819650000000 1.0
C      1  0.5293850000000  0.4650380000000  0.4213870000000 1.0
C      1  0.4184000000000  0.5545200000000  0.5123720000000 1.0
C      1  0.5253690000000  0.5819400000000  0.4885150000000 1.0
C      1  0.4974910000000  0.4094090000000  0.5223960000000 1.0
C      1  0.5294250000000  0.5608240000000  0.4333570000000 1.0
C      1  0.5759960000000  0.4362110000000  0.4579780000000 1.0
C      1  0.5130480000000  0.5318270000000  0.5763870000000 1.0
C      1  0.5627050000000  0.4317600000000  0.5230370000000 1.0
C      1  0.4195770000000  0.5099020000000  0.5014810000000 1.0
C      1  0.5813020000000  0.5000390000000  0.4926310000000 1.0
C      1  0.4555510000000  0.5818020000000  0.5267880000000 1.0
C      1  0.5586790000000  0.5739400000000  0.5392770000000 1.0
C      1  0.4281630000000  0.5509080000000  0.4830540000000 1.0
C      1  0.5441700000000  0.4171760000000  0.4483280000000 1.0
C      1  0.4700920000000  0.4650200000000  0.5654680000000 1.0
C      1  0.4176310000000  0.4760380000000  0.5438670000000 1.0
C      1  0.5384600000000  0.5482920000000  0.5780600000000 1.0
C      1  0.4977590000000  0.4572810000000  0.5763270000000 1.0
C      1  0.5758230000000  0.5248900000000  0.4819360000000 1.0
C      1  0.5159540000000  0.4180390000000  0.5024760000000 1.0
C      1  0.5596200000000  0.5266210000000  0.4566490000000 1.0
C      1  0.5801100000000  0.4563750000000  0.5159760000000 1.0
C      1  0.4843700000000  0.5022180000000  0.5404290000000 1.0
C      1  0.4451920000000  0.4492060000000  0.5169840000000 1.0
C      1  0.5162300000000  0.4890360000000  0.4097020000000 1.0
C      1  0.4845870000000  0.5325710000000  0.5318510000000 1.0
C      1  0.5043490000000  0.4325790000000  0.5631530000000 1.0
C      1  0.5402620000000  0.4779560000000  0.5013330000000 1.0
C      1  0.5383630000000  0.4897880000000  0.5512870000000 1.0
C      1  0.5211950000000  0.4675940000000  0.5886140000000 1.0
C      1  0.4212180000000  0.4736410000000  0.4667320000000 1.0
C      1  0.5287220000000  0.5327780000000  0.5085130000000 1.0
C      1  0.4621280000000  0.4946610000000  0.5618510000000 1.0
C      1  0.4905460000000  0.5480950000000  0.5594050000000 1.0
C      1  0.5503230000000  0.5676530000000  0.4800000000000 1.0
C      1  0.4848110000000  0.4821800000000  0.5161260000000 1.0
C      1  0.4584820000000  0.4945650000000  0.4773680000000 1.0
C      1  0.4676840000000  0.4185280000000  0.4783070000000 1.0
C      1  0.4384840000000  0.4241930000000  0.5030990000000 1.0
C      1  0.4496020000000  0.5110790000000  0.5041400000000 1.0
C      1  0.5346700000000  0.5317340000000  0.5369600000000 1.0
C      1  0.5723070000000  0.5279270000000  0.5476020000000 1.0
C      1  0.5637000000000  0.5469220000000  0.4985350000000 1.0
C      1  0.5643600000000  0.4125860000000  0.4669350000000 1.0
C      1  0.4771780000000  0.5876970000000  0.5104120000000 1.0
C      1  0.5556870000000  0.5063010000000  0.4343500000000 1.0
C      1  0.4645520000000  0.5133900000000  0.5840300000000 1.0
C      1  0.5812010000000  0.4738590000000  0.5415840000000 1.0
C      1  0.5310270000000  0.4254250000000  0.5605770000000 1.0
C      1  0.4905340000000  0.4340020000000  0.5375910000000 1.0
C      1  0.5174660000000  0.5120590000000  0.5534330000000 1.0
C      1  0.5254200000000  0.5063310000000  0.4951430000000 1.0
C      1  0.4416220000000  0.4530450000000  0.4613140000000 1.0
C      1  0.5074300000000  0.5725490000000  0.5463500000000 1.0
C      1  0.5165350000000  0.4818540000000  0.4589740000000 1.0
C      1  0.4591460000000  0.5349110000000  0.5191730000000 1.0
C      1  0.5302590000000  0.5123040000000  0.4206560000000 1.0
C      1  0.4068520000000  0.5282710000000  0.5234650000000 1.0
C      1  0.4331370000000  0.4972020000000  0.5525800000000 1.0
C      1  0.4854860000000  0.4820740000000  0.4601050000000 1.0
C      1  0.4488750000000  0.5157760000000  0.4335990000000 1.0
C      1  0.5040320000000  0.5596420000000  0.4488640000000 1.0
C      1  0.5509590000000  0.4771740000000  0.4416830000000 1.0
C      1  0.5210470000000  0.4326190000000  0.4534200000000 1.0
C      1  0.4634670000000  0.5399150000000  0.5734710000000 1.0
C      1  0.4183570000000  0.5235670000000  0.4747260000000 1.0
C      1  0.5349110000000  0.5603310000000  0.5499440000000 1.0
C      1  0.5439280000000  0.4187740000000  0.5062650000000 1.0
C      1  0.5724660000000  0.5521580000000  0.5274630000000 1.0
C      1  0.4825800000000  0.4659100000000  0.4351710000000 1.0
C      1  0.4745720000000  0.5812510000000  0.4819950000000 1.0
C      1  0.5211310000000  0.5390600000000  0.4128720000000 1.0
C      1  0.5693030000000  0.4742150000000  0.4930170000000 1.0
C      1  0.5454960000000  0.4770260000000  0.5777390000000 1.0
C      1  0.5032530000000  0.4582170000000  0.5222680000000 1.0
C      1  0.5645410000000  0.4994640000000  0.5385410000000 1.0
C      1  0.4620520000000  0.4446670000000  0.5433030000000 1.0
C      1  0.4797120000000  0.4445900000000  0.4827540000000 1.0
C      1  0.5666960000000  0.4583110000000  0.5644690000000 1.0
C      1  0.4901220000000  0.5391800000000  0.4114940000000 1.0
C      1  0.4871280000000  0.4889230000000  0.4162510000000 1.0
C      1  0.5033110000000  0.5747720000000  0.5163810000000 1.0
END
