TITL C-951341-1326-3 -2.59514033696391e-06 125000 -938.030444627954 0 0 150 (C1) n - 1
REM
REM in /home/bkarasulu/work/CARBON/AIRSS/Generating-Clusters/EDIP-Nigel-Params/with-SteepDescent/Only-C1/SD-CG/HFTN-CG
REM
REM
REM
REM
REM
REM ./C.cell (11c1c37f851c82e70ff6c80c92926a4b)
REM
REM compiler GCC version 9.2.1 20190827 (Red Hat 9.2.1-1)
REM options -cpp -mtune=generic -march=x86-64 -g -O0 -fpre-include=/usr/include/finclude/math-vector-fortran.h
REM seed -1311490073 948733111 -1503641323 -1669974152 1149825743 -1181559313 -2045587891 -187071877 -367783714 -2142586930 2034237775 -1240971571 -793060777 890842172 236105296 -1500500503 -1567176567 1255598766 2147458739 -592077026 -2111493940 -681522371 1833649744 -1154068939 1936136974 936271237 -1476602302 894659951 -214284740 125978997 164586973 -177727887 1432071160
REM
CELL 1.54180   50.00000   50.00000   50.00000   90.00000   90.00000   90.00000
LATT -1
SFAC C  
C      1  0.4028140000000  0.4701090000000  0.4694410000000 1.0
C      1  0.5550990000000  0.6054040000000  0.5340770000000 1.0
C      1  0.3932760000000  0.4947430000000  0.4821970000000 1.0
C      1  0.4347260000000  0.4886880000000  0.5046960000000 1.0
C      1  0.5124890000000  0.5132410000000  0.4459520000000 1.0
C      1  0.5137240000000  0.4067020000000  0.5631010000000 1.0
C      1  0.5438650000000  0.5583860000000  0.5640790000000 1.0
C      1  0.4125210000000  0.4718630000000  0.5177500000000 1.0
C      1  0.5280800000000  0.4887360000000  0.5510700000000 1.0
C      1  0.4683770000000  0.4152080000000  0.4404340000000 1.0
C      1  0.5889850000000  0.4649130000000  0.5002370000000 1.0
C      1  0.4271180000000  0.5346050000000  0.5605420000000 1.0
C      1  0.4942920000000  0.5627170000000  0.4973640000000 1.0
C      1  0.4219980000000  0.4742780000000  0.4452800000000 1.0
C      1  0.4684600000000  0.4237100000000  0.4874010000000 1.0
C      1  0.4547450000000  0.4673190000000  0.4947660000000 1.0
C      1  0.6011450000000  0.5066490000000  0.4823780000000 1.0
C      1  0.4685510000000  0.5509060000000  0.5791000000000 1.0
C      1  0.4345580000000  0.5427920000000  0.4558400000000 1.0
C      1  0.4629000000000  0.5484350000000  0.4592950000000 1.0
C      1  0.4395660000000  0.4049970000000  0.5543180000000 1.0
C      1  0.5442930000000  0.4640230000000  0.4044450000000 1.0
C      1  0.3887730000000  0.4901500000000  0.5123910000000 1.0
C      1  0.5207520000000  0.6045630000000  0.5002030000000 1.0
C      1  0.4790580000000  0.4829170000000  0.5601770000000 1.0
C      1  0.5650190000000  0.4452060000000  0.4477100000000 1.0
C      1  0.4994720000000  0.5572240000000  0.4331480000000 1.0
C      1  0.5903970000000  0.5561200000000  0.4728780000000 1.0
C      1  0.4780020000000  0.4876870000000  0.4149270000000 1.0
C      1  0.4911020000000  0.6053710000000  0.5586740000000 1.0
C      1  0.4975000000000  0.5446540000000  0.5791950000000 1.0
C      1  0.5921410000000  0.4839520000000  0.5227110000000 1.0
C      1  0.5088660000000  0.4643520000000  0.4458160000000 1.0
C      1  0.5264570000000  0.4033060000000  0.4451820000000 1.0
C      1  0.5707550000000  0.4963100000000  0.4317370000000 1.0
C      1  0.4279480000000  0.5760650000000  0.4914850000000 1.0
C      1  0.5427990000000  0.5198310000000  0.5117980000000 1.0
C      1  0.4570510000000  0.4394050000000  0.4327860000000 1.0
C      1  0.4270870000000  0.4848430000000  0.5522280000000 1.0
C      1  0.5614070000000  0.4213320000000  0.4657830000000 1.0
C      1  0.5489260000000  0.5157550000000  0.4749730000000 1.0
C      1  0.4198780000000  0.5090600000000  0.4864290000000 1.0
C      1  0.4524290000000  0.5020800000000  0.4066210000000 1.0
C      1  0.4296090000000  0.5596460000000  0.5451040000000 1.0
C      1  0.4841700000000  0.5099530000000  0.4404520000000 1.0
C      1  0.5217130000000  0.4811450000000  0.4882190000000 1.0
C      1  0.5074600000000  0.4703240000000  0.6059450000000 1.0
C      1  0.5519800000000  0.5349580000000  0.5782370000000 1.0
C      1  0.5062740000000  0.5218360000000  0.5960880000000 1.0
C      1  0.5435890000000  0.4871030000000  0.4678500000000 1.0
C      1  0.5626070000000  0.4509940000000  0.4984060000000 1.0
C      1  0.5736070000000  0.5684740000000  0.4531560000000 1.0
C      1  0.5157320000000  0.5645100000000  0.5657180000000 1.0
C      1  0.4135030000000  0.5113570000000  0.5495310000000 1.0
C      1  0.5708890000000  0.4748850000000  0.4548950000000 1.0
C      1  0.5955980000000  0.5382440000000  0.5192120000000 1.0
C      1  0.5532850000000  0.3979610000000  0.4521790000000 1.0
C      1  0.5504310000000  0.5063000000000  0.5388960000000 1.0
C      1  0.4776180000000  0.5362890000000  0.4904000000000 1.0
C      1  0.4181130000000  0.5600450000000  0.4703210000000 1.0
C      1  0.5252240000000  0.4233830000000  0.4233810000000 1.0
C      1  0.4124810000000  0.4519970000000  0.4923040000000 1.0
C      1  0.4607600000000  0.5299550000000  0.5159300000000 1.0
C      1  0.5300620000000  0.4276270000000  0.5703340000000 1.0
C      1  0.5416660000000  0.5489310000000  0.5139340000000 1.0
C      1  0.3961020000000  0.5162220000000  0.5260170000000 1.0
C      1  0.5327310000000  0.5871910000000  0.4793700000000 1.0
C      1  0.4393150000000  0.4518140000000  0.4517010000000 1.0
C      1  0.5677900000000  0.5215240000000  0.5584540000000 1.0
C      1  0.4714810000000  0.4838250000000  0.5327270000000 1.0
C      1  0.4766350000000  0.5432240000000  0.5374410000000 1.0
C      1  0.5198210000000  0.4966120000000  0.6011790000000 1.0
C      1  0.4744560000000  0.4805180000000  0.4778190000000 1.0
C      1  0.4511330000000  0.5932350000000  0.4801300000000 1.0
C      1  0.5198250000000  0.5093690000000  0.3957340000000 1.0
C      1  0.5137150000000  0.5142740000000  0.5150900000000 1.0
C      1  0.5815880000000  0.5435730000000  0.5439960000000 1.0
C      1  0.5005600000000  0.5143990000000  0.4881720000000 1.0
C      1  0.4645960000000  0.5981460000000  0.5527380000000 1.0
C      1  0.5244590000000  0.5592600000000  0.4903770000000 1.0
C      1  0.5266910000000  0.4881880000000  0.4428550000000 1.0
C      1  0.4765440000000  0.5383450000000  0.4331820000000 1.0
C      1  0.4858430000000  0.5704940000000  0.5259860000000 1.0
C      1  0.5434300000000  0.5517650000000  0.4163750000000 1.0
C      1  0.5063740000000  0.5848240000000  0.5449810000000 1.0
C      1  0.5547150000000  0.4183240000000  0.5176980000000 1.0
C      1  0.5216300000000  0.5291830000000  0.4700990000000 1.0
C      1  0.4648370000000  0.4403630000000  0.5803360000000 1.0
C      1  0.5179880000000  0.5941200000000  0.4563450000000 1.0
C      1  0.5714180000000  0.5849410000000  0.5250110000000 1.0
C      1  0.4847540000000  0.3959370000000  0.5248440000000 1.0
C      1  0.5386010000000  0.4753940000000  0.5751270000000 1.0
C      1  0.5268510000000  0.4585420000000  0.5319430000000 1.0
C      1  0.4628530000000  0.4068140000000  0.5113470000000 1.0
C      1  0.4838260000000  0.4361410000000  0.5369740000000 1.0
C      1  0.5154280000000  0.4616470000000  0.3976490000000 1.0
C      1  0.5466780000000  0.4405850000000  0.5487370000000 1.0
C      1  0.5288810000000  0.5973520000000  0.5274370000000 1.0
C      1  0.5254170000000  0.4113230000000  0.5158420000000 1.0
C      1  0.4675950000000  0.5298040000000  0.4043400000000 1.0
C      1  0.4260620000000  0.5569100000000  0.5150110000000 1.0
C      1  0.5508980000000  0.4401200000000  0.4216550000000 1.0
C      1  0.5814160000000  0.4759020000000  0.5476510000000 1.0
C      1  0.5178020000000  0.3970840000000  0.4927660000000 1.0
C      1  0.4579180000000  0.5976060000000  0.5246540000000 1.0
C      1  0.4496300000000  0.5025270000000  0.5264390000000 1.0
C      1  0.4517630000000  0.4851230000000  0.5761730000000 1.0
C      1  0.5637060000000  0.4609210000000  0.5634850000000 1.0
C      1  0.4876160000000  0.4528240000000  0.5644260000000 1.0
C      1  0.4364400000000  0.5130740000000  0.4603150000000 1.0
C      1  0.4295120000000  0.4971910000000  0.4264020000000 1.0
C      1  0.5035450000000  0.4472700000000  0.4212940000000 1.0
C      1  0.5026960000000  0.5040900000000  0.5619930000000 1.0
C      1  0.4440140000000  0.4174040000000  0.5297980000000 1.0
C      1  0.4422670000000  0.4299100000000  0.5662020000000 1.0
C      1  0.4663030000000  0.6088710000000  0.5002610000000 1.0
C      1  0.4947730000000  0.4397510000000  0.4911770000000 1.0
C      1  0.4787260000000  0.4076990000000  0.4648160000000 1.0
C      1  0.4095230000000  0.5337800000000  0.5052130000000 1.0
C      1  0.5582200000000  0.5609800000000  0.5366710000000 1.0
C      1  0.5161050000000  0.5545790000000  0.4101530000000 1.0
C      1  0.5075540000000  0.4044220000000  0.4675970000000 1.0
C      1  0.4575560000000  0.4630230000000  0.5962380000000 1.0
C      1  0.4901180000000  0.3995580000000  0.5516710000000 1.0
C      1  0.5624060000000  0.5481740000000  0.4367200000000 1.0
C      1  0.5014580000000  0.4876350000000  0.3950230000000 1.0
C      1  0.5083710000000  0.4365180000000  0.5187550000000 1.0
C      1  0.4945940000000  0.5823150000000  0.4465360000000 1.0
C      1  0.4674700000000  0.4579180000000  0.5211420000000 1.0
C      1  0.4799640000000  0.4699700000000  0.6116100000000 1.0
C      1  0.4705480000000  0.5769310000000  0.4633530000000 1.0
C      1  0.5017400000000  0.5321650000000  0.3966470000000 1.0
C      1  0.4928920000000  0.6011910000000  0.4930770000000 1.0
C      1  0.5937990000000  0.4789450000000  0.4746180000000 1.0
C      1  0.5687220000000  0.5217820000000  0.4494040000000 1.0
C      1  0.5703360000000  0.4139500000000  0.4925650000000 1.0
C      1  0.4749660000000  0.4565490000000  0.4182220000000 1.0
C      1  0.5154200000000  0.4522930000000  0.5811460000000 1.0
C      1  0.4995170000000  0.4650910000000  0.4750740000000 1.0
C      1  0.5949310000000  0.5105910000000  0.5100900000000 1.0
C      1  0.4492630000000  0.5295780000000  0.5782740000000 1.0
C      1  0.5008130000000  0.5245900000000  0.5399000000000 1.0
C      1  0.4560480000000  0.5691590000000  0.5582870000000 1.0
C      1  0.5441900000000  0.4908240000000  0.4177190000000 1.0
C      1  0.5899810000000  0.5615070000000  0.5019550000000 1.0
C      1  0.5939750000000  0.5280090000000  0.4634020000000 1.0
C      1  0.4503770000000  0.5075190000000  0.5942220000000 1.0
C      1  0.5391740000000  0.4668480000000  0.5073130000000 1.0
C      1  0.4663080000000  0.5036810000000  0.4631280000000 1.0
C      1  0.4402430000000  0.4438510000000  0.4805910000000 1.0
END
