TITL C-951343-2256-139 -1.45825705426119e-06 125000 -743.321148825705 0 0 120 (C1) n - 1
REM
REM in /home/bkarasulu/work/CARBON/AIRSS/Generating-Clusters/EDIP-Nigel-Params/with-SteepDescent/Only-C1/SD-CG/HFTN-CG
REM
REM
REM
REM
REM
REM ./C.cell (11c1c37f851c82e70ff6c80c92926a4b)
REM
REM compiler GCC version 9.2.1 20190827 (Red Hat 9.2.1-1)
REM options -cpp -mtune=generic -march=x86-64 -g -O0 -fpre-include=/usr/include/finclude/math-vector-fortran.h
REM seed -1694363378 1492474871 1726630490 -1896228631 1985194180 284818026 106813610 445091403 -1056476232 1311220403 1650249796 -425817045 1390733398 1076574133 -1271466129 -1426859059 404121511 1129029394 -845586783 2138341841 2062073594 -436329312 1831429966 -12270515 -1576849668 810478423 -7133869 1577733622 -1339259187 -323990966 1283196991 1928159057 -1514675705
REM
CELL 1.54180   50.00000   50.00000   50.00000   90.00000   90.00000   90.00000
LATT -1
SFAC C  
C      1  0.5714150000000  0.5171530000000  0.5487410000000 1.0
C      1  0.5502460000000  0.4599300000000  0.4348230000000 1.0
C      1  0.4913640000000  0.4523670000000  0.5588750000000 1.0
C      1  0.5723880000000  0.4378810000000  0.4717170000000 1.0
C      1  0.4538700000000  0.5664810000000  0.4432420000000 1.0
C      1  0.6018000000000  0.5237220000000  0.4667500000000 1.0
C      1  0.4936120000000  0.5817640000000  0.5186390000000 1.0
C      1  0.5412230000000  0.5933590000000  0.5008260000000 1.0
C      1  0.4559550000000  0.4331140000000  0.4421940000000 1.0
C      1  0.4839890000000  0.5232130000000  0.4283190000000 1.0
C      1  0.4496210000000  0.4201140000000  0.4842150000000 1.0
C      1  0.4653520000000  0.4798680000000  0.4787530000000 1.0
C      1  0.5367610000000  0.5830630000000  0.5285330000000 1.0
C      1  0.4921570000000  0.5720050000000  0.4418920000000 1.0
C      1  0.5197870000000  0.4106980000000  0.5099400000000 1.0
C      1  0.5771030000000  0.4670140000000  0.4733170000000 1.0
C      1  0.4522050000000  0.4613520000000  0.5823350000000 1.0
C      1  0.4273270000000  0.4538720000000  0.5124450000000 1.0
C      1  0.5325040000000  0.5553330000000  0.4548240000000 1.0
C      1  0.4998510000000  0.4107380000000  0.4855350000000 1.0
C      1  0.4679140000000  0.5691450000000  0.5659330000000 1.0
C      1  0.5180050000000  0.4864670000000  0.5811520000000 1.0
C      1  0.6058150000000  0.5224830000000  0.5146990000000 1.0
C      1  0.4680030000000  0.4514190000000  0.5396520000000 1.0
C      1  0.4989580000000  0.5026720000000  0.3986920000000 1.0
C      1  0.5249270000000  0.4351670000000  0.4678230000000 1.0
C      1  0.4541910000000  0.5246790000000  0.5765590000000 1.0
C      1  0.4495620000000  0.5776450000000  0.4693020000000 1.0
C      1  0.4202100000000  0.5119470000000  0.5400520000000 1.0
C      1  0.5120440000000  0.4924480000000  0.4647370000000 1.0
C      1  0.5255420000000  0.5365830000000  0.5730860000000 1.0
C      1  0.4085000000000  0.5083070000000  0.5148510000000 1.0
C      1  0.5293130000000  0.5430780000000  0.4276990000000 1.0
C      1  0.4956880000000  0.4568450000000  0.4267110000000 1.0
C      1  0.5076240000000  0.5023110000000  0.5410190000000 1.0
C      1  0.4432140000000  0.5305140000000  0.5488810000000 1.0
C      1  0.5604830000000  0.5020440000000  0.5717920000000 1.0
C      1  0.4947950000000  0.5129540000000  0.4832160000000 1.0
C      1  0.4504210000000  0.5730300000000  0.5189170000000 1.0
C      1  0.4284290000000  0.4267830000000  0.5021650000000 1.0
C      1  0.5918170000000  0.4776270000000  0.5241000000000 1.0
C      1  0.5952040000000  0.5056650000000  0.5346810000000 1.0
C      1  0.4852980000000  0.4347820000000  0.4426180000000 1.0
C      1  0.5214630000000  0.5840300000000  0.4529430000000 1.0
C      1  0.5603780000000  0.5530600000000  0.4674180000000 1.0
C      1  0.4486550000000  0.5596970000000  0.5445280000000 1.0
C      1  0.5696990000000  0.4793780000000  0.4473160000000 1.0
C      1  0.4263880000000  0.5402130000000  0.4863840000000 1.0
C      1  0.4181730000000  0.4970230000000  0.4664440000000 1.0
C      1  0.5558240000000  0.4781910000000  0.5099270000000 1.0
C      1  0.5441890000000  0.4296940000000  0.5121230000000 1.0
C      1  0.5211970000000  0.5439530000000  0.5006320000000 1.0
C      1  0.5506210000000  0.5313190000000  0.5317400000000 1.0
C      1  0.5659790000000  0.4226210000000  0.4945530000000 1.0
C      1  0.4316690000000  0.5479530000000  0.4376610000000 1.0
C      1  0.5072180000000  0.4275690000000  0.5575130000000 1.0
C      1  0.4765240000000  0.4292500000000  0.4937960000000 1.0
C      1  0.5353300000000  0.4359590000000  0.5623540000000 1.0
C      1  0.4537680000000  0.4965510000000  0.5002600000000 1.0
C      1  0.4786740000000  0.5058620000000  0.5413240000000 1.0
C      1  0.5161110000000  0.5909970000000  0.5484360000000 1.0
C      1  0.4751030000000  0.4270470000000  0.5228920000000 1.0
C      1  0.4745570000000  0.5309850000000  0.5249680000000 1.0
C      1  0.4384900000000  0.4987560000000  0.4439090000000 1.0
C      1  0.4686980000000  0.5479110000000  0.5861390000000 1.0
C      1  0.5694310000000  0.4614470000000  0.5425530000000 1.0
C      1  0.4853670000000  0.4593750000000  0.4881740000000 1.0
C      1  0.5629940000000  0.4729400000000  0.5696140000000 1.0
C      1  0.5000820000000  0.5479160000000  0.4249420000000 1.0
C      1  0.4974550000000  0.5720890000000  0.5618770000000 1.0
C      1  0.5225770000000  0.4952970000000  0.4133890000000 1.0
C      1  0.4677530000000  0.5943390000000  0.5230300000000 1.0
C      1  0.5206410000000  0.5974670000000  0.4800340000000 1.0
C      1  0.5348630000000  0.5113410000000  0.5851610000000 1.0
C      1  0.4897060000000  0.4851140000000  0.5929260000000 1.0
C      1  0.5506200000000  0.4356040000000  0.4517690000000 1.0
C      1  0.5224480000000  0.5302070000000  0.5444930000000 1.0
C      1  0.4999510000000  0.4141040000000  0.5321260000000 1.0
C      1  0.4354100000000  0.5216140000000  0.4240100000000 1.0
C      1  0.4956950000000  0.5862460000000  0.4892740000000 1.0
C      1  0.4698820000000  0.4949950000000  0.4515410000000 1.0
C      1  0.5562950000000  0.5613150000000  0.5335090000000 1.0
C      1  0.4435420000000  0.4138520000000  0.4577760000000 1.0
C      1  0.5402960000000  0.5156020000000  0.4251620000000 1.0
C      1  0.5383150000000  0.5045310000000  0.4725650000000 1.0
C      1  0.4810320000000  0.4577380000000  0.5868460000000 1.0
C      1  0.4162760000000  0.5444620000000  0.4607130000000 1.0
C      1  0.5551740000000  0.4347080000000  0.5399590000000 1.0
C      1  0.4709560000000  0.4926060000000  0.4005720000000 1.0
C      1  0.4283860000000  0.4871550000000  0.5510820000000 1.0
C      1  0.5226070000000  0.4702600000000  0.4277810000000 1.0
C      1  0.5064030000000  0.5550430000000  0.5835440000000 1.0
C      1  0.5047600000000  0.4161180000000  0.4550140000000 1.0
C      1  0.4641740000000  0.4977710000000  0.5821360000000 1.0
C      1  0.4855960000000  0.5638110000000  0.4721730000000 1.0
C      1  0.5126850000000  0.4701920000000  0.5457520000000 1.0
C      1  0.5572420000000  0.5071540000000  0.4494450000000 1.0
C      1  0.4601800000000  0.5212330000000  0.4083860000000 1.0
C      1  0.4089530000000  0.4577530000000  0.4900720000000 1.0
C      1  0.4444640000000  0.4464240000000  0.5580560000000 1.0
C      1  0.4180220000000  0.4679940000000  0.4646670000000 1.0
C      1  0.5358380000000  0.4569290000000  0.5028460000000 1.0
C      1  0.4696590000000  0.5200890000000  0.4980060000000 1.0
C      1  0.4600690000000  0.4840720000000  0.5298690000000 1.0
C      1  0.5994260000000  0.5098400000000  0.4906380000000 1.0
C      1  0.4262790000000  0.5103110000000  0.4925370000000 1.0
C      1  0.5083080000000  0.4621620000000  0.4688080000000 1.0
C      1  0.4463600000000  0.5608390000000  0.4923710000000 1.0
C      1  0.5099610000000  0.4680390000000  0.5126000000000 1.0
C      1  0.5947850000000  0.4809020000000  0.4928830000000 1.0
C      1  0.5489860000000  0.5559520000000  0.4960900000000 1.0
C      1  0.5382120000000  0.4610680000000  0.5799280000000 1.0
C      1  0.5426410000000  0.5054650000000  0.5041050000000 1.0
C      1  0.5756400000000  0.5291180000000  0.4583200000000 1.0
C      1  0.4244160000000  0.4602190000000  0.5410870000000 1.0
C      1  0.5132510000000  0.4990840000000  0.5099330000000 1.0
C      1  0.5074430000000  0.5409770000000  0.4754310000000 1.0
C      1  0.5016290000000  0.5489320000000  0.5244710000000 1.0
C      1  0.4710110000000  0.4748070000000  0.4258640000000 1.0
C      1  0.4426500000000  0.4597190000000  0.4365730000000 1.0
END
