TITL C-951342-2639-219 -2.93751583065357e-06 125000 -1191.85398566263 0 0 188 (C1) n - 1
REM
REM in /home/bkarasulu/work/CARBON/AIRSS/Generating-Clusters/EDIP-Nigel-Params/with-SteepDescent/Only-C1/SD-CG/HFTN-CG
REM
REM
REM
REM
REM
REM ./C.cell (11c1c37f851c82e70ff6c80c92926a4b)
REM
REM compiler GCC version 9.2.1 20190827 (Red Hat 9.2.1-1)
REM options -cpp -mtune=generic -march=x86-64 -g -O0 -fpre-include=/usr/include/finclude/math-vector-fortran.h
REM seed -1354101318 -1037250623 -1932029696 -1700803053 1114148865 1933535231 -1941786456 1354413612 1959463293 310347250 274589868 -1821480468 1212461775 1828033606 2040779794 -164425104 1331335997 -487995657 1711461761 -98079569 1171337210 -817996305 1085342509 -207541506 -1886842158 1400810301 -846717796 425748326 -246348486 -1405831111 -30221723 1656798243 1805106404
REM
CELL 1.54180   50.00000   50.00000   50.00000   90.00000   90.00000   90.00000
LATT -1
SFAC C  
C      1  0.4101800000000  0.5470540000000  0.5364820000000 1.0
C      1  0.5525540000000  0.4136790000000  0.4389040000000 1.0
C      1  0.4273950000000  0.4634360000000  0.4240160000000 1.0
C      1  0.4703320000000  0.4623510000000  0.3991180000000 1.0
C      1  0.4557140000000  0.4500960000000  0.4584300000000 1.0
C      1  0.5347980000000  0.5197020000000  0.6025210000000 1.0
C      1  0.4338520000000  0.5454980000000  0.4273810000000 1.0
C      1  0.4838640000000  0.4953160000000  0.4284610000000 1.0
C      1  0.4345530000000  0.5082680000000  0.5024440000000 1.0
C      1  0.4095230000000  0.5051060000000  0.4437640000000 1.0
C      1  0.4946810000000  0.5525630000000  0.4725760000000 1.0
C      1  0.3834380000000  0.4757460000000  0.5284770000000 1.0
C      1  0.5150300000000  0.4482970000000  0.4891670000000 1.0
C      1  0.5669650000000  0.5121890000000  0.4778220000000 1.0
C      1  0.6011590000000  0.4876760000000  0.5621180000000 1.0
C      1  0.5606800000000  0.6007140000000  0.5018140000000 1.0
C      1  0.5227760000000  0.4709960000000  0.5958400000000 1.0
C      1  0.4012050000000  0.5447480000000  0.4697320000000 1.0
C      1  0.5582160000000  0.4772510000000  0.4332870000000 1.0
C      1  0.4915040000000  0.6031150000000  0.4663220000000 1.0
C      1  0.5610370000000  0.5163030000000  0.4036870000000 1.0
C      1  0.4581300000000  0.5468680000000  0.3859280000000 1.0
C      1  0.4911630000000  0.5489930000000  0.5209810000000 1.0
C      1  0.5548280000000  0.5684920000000  0.5232420000000 1.0
C      1  0.4512400000000  0.5254010000000  0.4429170000000 1.0
C      1  0.4101710000000  0.5694250000000  0.4796730000000 1.0
C      1  0.5972190000000  0.4509990000000  0.5112900000000 1.0
C      1  0.4622490000000  0.5984760000000  0.4677630000000 1.0
C      1  0.4973460000000  0.5234900000000  0.4634570000000 1.0
C      1  0.5235030000000  0.4567390000000  0.5472250000000 1.0
C      1  0.4533410000000  0.5073800000000  0.4787360000000 1.0
C      1  0.5062820000000  0.5650450000000  0.4433700000000 1.0
C      1  0.5369410000000  0.5598790000000  0.4443250000000 1.0
C      1  0.5445160000000  0.5864810000000  0.4565490000000 1.0
C      1  0.5794900000000  0.4658610000000  0.5554810000000 1.0
C      1  0.4906170000000  0.4861690000000  0.4711960000000 1.0
C      1  0.5058220000000  0.4836070000000  0.5457120000000 1.0
C      1  0.4541450000000  0.5673680000000  0.5849530000000 1.0
C      1  0.4680730000000  0.4512830000000  0.5358870000000 1.0
C      1  0.4983390000000  0.4152490000000  0.5739210000000 1.0
C      1  0.5207900000000  0.5086190000000  0.4273510000000 1.0
C      1  0.5872400000000  0.4348750000000  0.4890460000000 1.0
C      1  0.4877870000000  0.5283960000000  0.5662550000000 1.0
C      1  0.4514820000000  0.5783290000000  0.4502230000000 1.0
C      1  0.6009600000000  0.5151850000000  0.5466000000000 1.0
C      1  0.5130940000000  0.5727690000000  0.5910580000000 1.0
C      1  0.5127280000000  0.4663260000000  0.4664200000000 1.0
C      1  0.4610680000000  0.5150220000000  0.5914910000000 1.0
C      1  0.4855540000000  0.5199140000000  0.5228170000000 1.0
C      1  0.5734030000000  0.4352430000000  0.4417180000000 1.0
C      1  0.4974270000000  0.5979410000000  0.5155690000000 1.0
C      1  0.5701460000000  0.4856810000000  0.5134380000000 1.0
C      1  0.5690760000000  0.4760050000000  0.5995710000000 1.0
C      1  0.5339990000000  0.4503290000000  0.5764870000000 1.0
C      1  0.3985600000000  0.5006900000000  0.5342040000000 1.0
C      1  0.5012230000000  0.5019110000000  0.3883220000000 1.0
C      1  0.5055040000000  0.4014820000000  0.4993850000000 1.0
C      1  0.5849990000000  0.5621720000000  0.5184630000000 1.0
C      1  0.5797270000000  0.5622020000000  0.4222080000000 1.0
C      1  0.5418800000000  0.4432540000000  0.4989600000000 1.0
C      1  0.4433910000000  0.5316940000000  0.5236800000000 1.0
C      1  0.4957250000000  0.4799450000000  0.5959630000000 1.0
C      1  0.4487440000000  0.4030070000000  0.4532580000000 1.0
C      1  0.5366980000000  0.5551830000000  0.5890270000000 1.0
C      1  0.5304830000000  0.6057510000000  0.4411340000000 1.0
C      1  0.5404130000000  0.4774270000000  0.4639640000000 1.0
C      1  0.4424540000000  0.4530460000000  0.4019990000000 1.0
C      1  0.4532600000000  0.5848760000000  0.5384610000000 1.0
C      1  0.4586640000000  0.3934240000000  0.5085180000000 1.0
C      1  0.5879940000000  0.4423290000000  0.5381800000000 1.0
C      1  0.5134730000000  0.5074280000000  0.5664640000000 1.0
C      1  0.5940340000000  0.5318430000000  0.5152590000000 1.0
C      1  0.5735700000000  0.5164070000000  0.5820350000000 1.0
C      1  0.5841650000000  0.4917940000000  0.4382270000000 1.0
C      1  0.4066420000000  0.5073480000000  0.5615940000000 1.0
C      1  0.5092400000000  0.5586670000000  0.4988810000000 1.0
C      1  0.5999540000000  0.5460100000000  0.4658500000000 1.0
C      1  0.5101710000000  0.6018490000000  0.4896440000000 1.0
C      1  0.5439480000000  0.5962570000000  0.5329580000000 1.0
C      1  0.4529920000000  0.5780830000000  0.4218980000000 1.0
C      1  0.5415810000000  0.5260530000000  0.5158480000000 1.0
C      1  0.5385570000000  0.5055750000000  0.4736530000000 1.0
C      1  0.4781510000000  0.4722780000000  0.5534690000000 1.0
C      1  0.4443150000000  0.5043290000000  0.4044210000000 1.0
C      1  0.5269330000000  0.4206370000000  0.5801840000000 1.0
C      1  0.4820730000000  0.4351490000000  0.5849960000000 1.0
C      1  0.4712580000000  0.5622690000000  0.4055370000000 1.0
C      1  0.4734950000000  0.4920320000000  0.4002370000000 1.0
C      1  0.5255010000000  0.5233460000000  0.4532810000000 1.0
C      1  0.5040540000000  0.5953840000000  0.4411460000000 1.0
C      1  0.5013440000000  0.4966910000000  0.5171300000000 1.0
C      1  0.4648930000000  0.4817040000000  0.4530300000000 1.0
C      1  0.5281380000000  0.4078360000000  0.4525520000000 1.0
C      1  0.4191700000000  0.4844620000000  0.5759400000000 1.0
C      1  0.3939640000000  0.4523010000000  0.5455560000000 1.0
C      1  0.4028910000000  0.4949900000000  0.4713560000000 1.0
C      1  0.5046420000000  0.4063340000000  0.4377440000000 1.0
C      1  0.5913160000000  0.5342080000000  0.5668330000000 1.0
C      1  0.4583180000000  0.4256580000000  0.4367050000000 1.0
C      1  0.5124380000000  0.3941950000000  0.5285400000000 1.0
C      1  0.5799310000000  0.5178580000000  0.4268600000000 1.0
C      1  0.5430780000000  0.4940050000000  0.4127920000000 1.0
C      1  0.5625930000000  0.4250360000000  0.5377780000000 1.0
C      1  0.4639600000000  0.4006480000000  0.5374080000000 1.0
C      1  0.4802870000000  0.5242610000000  0.4377150000000 1.0
C      1  0.5129780000000  0.5286420000000  0.4042520000000 1.0
C      1  0.5383560000000  0.5531770000000  0.5021180000000 1.0
C      1  0.5642950000000  0.4518220000000  0.4202530000000 1.0
C      1  0.5874940000000  0.5835890000000  0.4981650000000 1.0
C      1  0.4280990000000  0.4280240000000  0.5197590000000 1.0
C      1  0.5247210000000  0.5068300000000  0.5015200000000 1.0
C      1  0.5536450000000  0.4170820000000  0.4906340000000 1.0
C      1  0.4131530000000  0.4685570000000  0.4851450000000 1.0
C      1  0.4811280000000  0.3856280000000  0.4910560000000 1.0
C      1  0.5141130000000  0.5970460000000  0.5398260000000 1.0
C      1  0.4941350000000  0.4367890000000  0.5312730000000 1.0
C      1  0.4868940000000  0.5064360000000  0.6042900000000 1.0
C      1  0.5377350000000  0.5886830000000  0.4852110000000 1.0
C      1  0.4398970000000  0.4277950000000  0.4141940000000 1.0
C      1  0.4619530000000  0.5560350000000  0.5114660000000 1.0
C      1  0.3971730000000  0.5249470000000  0.5181700000000 1.0
C      1  0.5426840000000  0.4909090000000  0.6020590000000 1.0
C      1  0.4609010000000  0.4635960000000  0.5079400000000 1.0
C      1  0.4386890000000  0.5327970000000  0.4007050000000 1.0
C      1  0.4681770000000  0.5991590000000  0.5174970000000 1.0
C      1  0.5412340000000  0.4377190000000  0.4109600000000 1.0
C      1  0.5839120000000  0.4514620000000  0.4652720000000 1.0
C      1  0.4285010000000  0.4165000000000  0.4714800000000 1.0
C      1  0.5426350000000  0.4439910000000  0.5277550000000 1.0
C      1  0.5360620000000  0.5281040000000  0.5477150000000 1.0
C      1  0.4301840000000  0.4915070000000  0.4273500000000 1.0
C      1  0.5647890000000  0.4546560000000  0.5795040000000 1.0
C      1  0.5571580000000  0.4664470000000  0.4889350000000 1.0
C      1  0.4203880000000  0.5335440000000  0.5611260000000 1.0
C      1  0.4416530000000  0.4404850000000  0.5617940000000 1.0
C      1  0.4005720000000  0.5208510000000  0.4879530000000 1.0
C      1  0.4648260000000  0.4393910000000  0.4892720000000 1.0
C      1  0.5424020000000  0.5392740000000  0.3995100000000 1.0
C      1  0.4189780000000  0.4591740000000  0.5602270000000 1.0
C      1  0.4856130000000  0.4225920000000  0.4255120000000 1.0
C      1  0.4969630000000  0.5547730000000  0.6085510000000 1.0
C      1  0.4993630000000  0.5788360000000  0.5628850000000 1.0
C      1  0.4340020000000  0.4779860000000  0.5054490000000 1.0
C      1  0.5392800000000  0.3940240000000  0.5388450000000 1.0
C      1  0.5452950000000  0.4038490000000  0.5649430000000 1.0
C      1  0.4684740000000  0.5814690000000  0.5637350000000 1.0
C      1  0.5187130000000  0.4538600000000  0.4030400000000 1.0
C      1  0.4924350000000  0.4100240000000  0.5443790000000 1.0
C      1  0.5069220000000  0.5268250000000  0.6056110000000 1.0
C      1  0.5592150000000  0.4823430000000  0.5416570000000 1.0
C      1  0.5974730000000  0.5726840000000  0.4743290000000 1.0
C      1  0.3996300000000  0.4352850000000  0.5208150000000 1.0
C      1  0.4490390000000  0.5341680000000  0.4698260000000 1.0
C      1  0.5742560000000  0.5553490000000  0.5605980000000 1.0
C      1  0.4989830000000  0.5521670000000  0.5501850000000 1.0
C      1  0.6070410000000  0.4793070000000  0.5083930000000 1.0
C      1  0.5689690000000  0.5153190000000  0.5070460000000 1.0
C      1  0.4403150000000  0.4182620000000  0.5440940000000 1.0
C      1  0.5239700000000  0.4811860000000  0.3924590000000 1.0
C      1  0.4946890000000  0.4309730000000  0.5007280000000 1.0
C      1  0.5926670000000  0.5419620000000  0.4369410000000 1.0
C      1  0.5508300000000  0.5046660000000  0.5614000000000 1.0
C      1  0.4481260000000  0.4900240000000  0.5806880000000 1.0
C      1  0.4918720000000  0.4443790000000  0.4072980000000 1.0
C      1  0.4266480000000  0.5804160000000  0.4993530000000 1.0
C      1  0.4829270000000  0.4823250000000  0.4995150000000 1.0
C      1  0.4264540000000  0.5721900000000  0.5273890000000 1.0
C      1  0.4652390000000  0.5186290000000  0.5448830000000 1.0
C      1  0.5306900000000  0.4011700000000  0.4807860000000 1.0
C      1  0.5861240000000  0.4904510000000  0.4676470000000 1.0
C      1  0.5911740000000  0.4940490000000  0.5902290000000 1.0
C      1  0.4574880000000  0.4919670000000  0.5525910000000 1.0
C      1  0.6095770000000  0.5265670000000  0.4883210000000 1.0
C      1  0.5463840000000  0.5525000000000  0.5623970000000 1.0
C      1  0.4512930000000  0.5953790000000  0.4943950000000 1.0
C      1  0.6106590000000  0.4961560000000  0.4837280000000 1.0
C      1  0.3899540000000  0.4574580000000  0.5018610000000 1.0
C      1  0.4648470000000  0.5566510000000  0.4788670000000 1.0
C      1  0.5514430000000  0.5606120000000  0.4180810000000 1.0
C      1  0.4418160000000  0.5312140000000  0.6070920000000 1.0
C      1  0.4682850000000  0.5591650000000  0.6087050000000 1.0
C      1  0.4313930000000  0.5475850000000  0.5847580000000 1.0
C      1  0.4253530000000  0.4471910000000  0.4649020000000 1.0
C      1  0.4925970000000  0.5472840000000  0.4206720000000 1.0
C      1  0.4759510000000  0.4631500000000  0.5828630000000 1.0
C      1  0.4696270000000  0.3888540000000  0.4657100000000 1.0
C      1  0.4080790000000  0.5351120000000  0.4420730000000 1.0
C      1  0.4439380000000  0.4176990000000  0.4971290000000 1.0
END
