TITL C-950524-1808-360 -1.12715250625943e-06 125000 -1230.68127162362 0 0 198 (C1) n - 1
REM
REM in /home/bkarasulu/work/CARBON/AIRSS/Generating-Clusters/EDIP-Nigel-Params/with-SteepDescent/Only-C1/SD-CG/HFTN-CG
REM
REM
REM
REM
REM
REM ./C.cell (11c1c37f851c82e70ff6c80c92926a4b)
REM
REM compiler GCC version 9.2.1 20190827 (Red Hat 9.2.1-1)
REM options -cpp -mtune=generic -march=x86-64 -g -O0 -fpre-include=/usr/include/finclude/math-vector-fortran.h
REM seed 1398206517 600109806 -1055801735 -1137466048 977770610 -1598092801 -1214203052 257957948 29770419 -572864201 -892389852 58276960 -943574373 1978146695 -872493561 -579490609 -2045081397 -1564815357 -1447592708 1035606082 780094332 973730696 2052797901 437179884 59558516 -486465383 1603907057 490250390 -474521816 -717130452 -1424200886 1086860803 -1986667325
REM
CELL 1.54180   50.00000   50.00000   50.00000   90.00000   90.00000   90.00000
LATT -1
SFAC C  
C      1  0.5538110000000  0.4100540000000  0.4908890000000 1.0
C      1  0.4168690000000  0.4247180000000  0.4761370000000 1.0
C      1  0.4301000000000  0.5820310000000  0.5272400000000 1.0
C      1  0.5360250000000  0.3859710000000  0.5601620000000 1.0
C      1  0.5182980000000  0.4192970000000  0.4155030000000 1.0
C      1  0.5348210000000  0.4997030000000  0.4251020000000 1.0
C      1  0.6069280000000  0.5379370000000  0.4688220000000 1.0
C      1  0.4572030000000  0.5730970000000  0.5129900000000 1.0
C      1  0.5019940000000  0.4028250000000  0.4334290000000 1.0
C      1  0.6122320000000  0.4768090000000  0.5432940000000 1.0
C      1  0.4535830000000  0.4686080000000  0.5338230000000 1.0
C      1  0.5370960000000  0.5072930000000  0.5074470000000 1.0
C      1  0.4543400000000  0.6072760000000  0.4745540000000 1.0
C      1  0.5011600000000  0.4363730000000  0.4732590000000 1.0
C      1  0.5961510000000  0.4978030000000  0.5560240000000 1.0
C      1  0.5554520000000  0.4283390000000  0.4180760000000 1.0
C      1  0.5545100000000  0.4941660000000  0.5273280000000 1.0
C      1  0.4527010000000  0.4864970000000  0.6062820000000 1.0
C      1  0.5524140000000  0.5341710000000  0.4609680000000 1.0
C      1  0.5187220000000  0.3913140000000  0.4548590000000 1.0
C      1  0.5780600000000  0.5050900000000  0.4929360000000 1.0
C      1  0.5009600000000  0.4648460000000  0.6054530000000 1.0
C      1  0.5437820000000  0.5051000000000  0.5538350000000 1.0
C      1  0.4403880000000  0.4248020000000  0.5635960000000 1.0
C      1  0.5237460000000  0.5265220000000  0.5482860000000 1.0
C      1  0.6018490000000  0.4485730000000  0.5381730000000 1.0
C      1  0.4120950000000  0.5592720000000  0.5351170000000 1.0
C      1  0.5732400000000  0.4855270000000  0.4540470000000 1.0
C      1  0.5079410000000  0.4747730000000  0.5506330000000 1.0
C      1  0.4593130000000  0.6122190000000  0.5416710000000 1.0
C      1  0.4730820000000  0.5183330000000  0.5688460000000 1.0
C      1  0.5209660000000  0.4592220000000  0.4799440000000 1.0
C      1  0.6087080000000  0.5295130000000  0.5182190000000 1.0
C      1  0.4153040000000  0.4453530000000  0.4546250000000 1.0
C      1  0.5519180000000  0.5802050000000  0.4813980000000 1.0
C      1  0.5190100000000  0.5692210000000  0.5920480000000 1.0
C      1  0.4828950000000  0.5996430000000  0.5528840000000 1.0
C      1  0.5459810000000  0.4045980000000  0.4611990000000 1.0
C      1  0.4279850000000  0.5405050000000  0.4983110000000 1.0
C      1  0.4045760000000  0.4956930000000  0.4501200000000 1.0
C      1  0.5609150000000  0.5096080000000  0.4386030000000 1.0
C      1  0.4013970000000  0.4756630000000  0.5644540000000 1.0
C      1  0.4732210000000  0.5489110000000  0.3904150000000 1.0
C      1  0.5707030000000  0.5672140000000  0.5649990000000 1.0
C      1  0.5630050000000  0.5098450000000  0.5932930000000 1.0
C      1  0.4437140000000  0.4152560000000  0.4861360000000 1.0
C      1  0.4592130000000  0.5286710000000  0.5943040000000 1.0
C      1  0.4677160000000  0.4867700000000  0.5705360000000 1.0
C      1  0.4378250000000  0.5953660000000  0.5520930000000 1.0
C      1  0.4328990000000  0.5182990000000  0.5973520000000 1.0
C      1  0.5361010000000  0.4467790000000  0.5062900000000 1.0
C      1  0.4529960000000  0.4974290000000  0.4454220000000 1.0
C      1  0.5487970000000  0.4638300000000  0.5284260000000 1.0
C      1  0.5078980000000  0.6074290000000  0.4481680000000 1.0
C      1  0.5913760000000  0.4543530000000  0.4408120000000 1.0
C      1  0.6008440000000  0.4533510000000  0.5082420000000 1.0
C      1  0.4009990000000  0.5489500000000  0.5074780000000 1.0
C      1  0.4761820000000  0.5329550000000  0.4720270000000 1.0
C      1  0.4708990000000  0.4449720000000  0.5412700000000 1.0
C      1  0.5105110000000  0.4994080000000  0.5090580000000 1.0
C      1  0.4429540000000  0.5689250000000  0.4381900000000 1.0
C      1  0.4905030000000  0.5266260000000  0.4163350000000 1.0
C      1  0.4068080000000  0.5716670000000  0.4693030000000 1.0
C      1  0.5394320000000  0.5976480000000  0.5386300000000 1.0
C      1  0.4548430000000  0.4388640000000  0.5865220000000 1.0
C      1  0.5486150000000  0.4307980000000  0.4458340000000 1.0
C      1  0.5503350000000  0.5102060000000  0.4817640000000 1.0
C      1  0.4877540000000  0.3907060000000  0.4864900000000 1.0
C      1  0.4718700000000  0.4929090000000  0.5328380000000 1.0
C      1  0.5756920000000  0.4488020000000  0.4153070000000 1.0
C      1  0.5588150000000  0.3974370000000  0.5179630000000 1.0
C      1  0.5019480000000  0.5962280000000  0.5318030000000 1.0
C      1  0.4820640000000  0.5692650000000  0.4604140000000 1.0
C      1  0.3966150000000  0.5203210000000  0.4651580000000 1.0
C      1  0.4268830000000  0.4636800000000  0.4932240000000 1.0
C      1  0.5541760000000  0.5730290000000  0.5426430000000 1.0
C      1  0.4709560000000  0.5622810000000  0.4338090000000 1.0
C      1  0.4981090000000  0.5142660000000  0.4635710000000 1.0
C      1  0.4373890000000  0.5787780000000  0.4670770000000 1.0
C      1  0.5618820000000  0.5516670000000  0.4087720000000 1.0
C      1  0.4761080000000  0.4132690000000  0.4448860000000 1.0
C      1  0.4719680000000  0.5552840000000  0.5321770000000 1.0
C      1  0.4163410000000  0.5006430000000  0.5269780000000 1.0
C      1  0.4716840000000  0.4826080000000  0.4960520000000 1.0
C      1  0.6066100000000  0.4362390000000  0.4861590000000 1.0
C      1  0.4845110000000  0.5686260000000  0.4088080000000 1.0
C      1  0.4289920000000  0.5254730000000  0.4139650000000 1.0
C      1  0.5968260000000  0.5253040000000  0.5455270000000 1.0
C      1  0.5611910000000  0.5400570000000  0.5907290000000 1.0
C      1  0.5123900000000  0.5230180000000  0.4379690000000 1.0
C      1  0.5336300000000  0.5470930000000  0.6014520000000 1.0
C      1  0.4577860000000  0.4272590000000  0.4266450000000 1.0
C      1  0.5676750000000  0.5541360000000  0.4803280000000 1.0
C      1  0.4576720000000  0.4648810000000  0.3975960000000 1.0
C      1  0.3919630000000  0.5722500000000  0.4929310000000 1.0
C      1  0.5612270000000  0.6067330000000  0.4947210000000 1.0
C      1  0.4190220000000  0.5245230000000  0.5729090000000 1.0
C      1  0.5488780000000  0.4531390000000  0.5906430000000 1.0
C      1  0.4401260000000  0.4622400000000  0.5951350000000 1.0
C      1  0.5383930000000  0.6131170000000  0.5134230000000 1.0
C      1  0.4857280000000  0.4614950000000  0.5635860000000 1.0
C      1  0.4517590000000  0.5172080000000  0.4690680000000 1.0
C      1  0.4811840000000  0.4810180000000  0.4087030000000 1.0
C      1  0.5360370000000  0.4748390000000  0.5559150000000 1.0
C      1  0.5153740000000  0.6065200000000  0.4919580000000 1.0
C      1  0.5230510000000  0.5856670000000  0.4349910000000 1.0
C      1  0.4470740000000  0.5714030000000  0.5687720000000 1.0
C      1  0.3913100000000  0.4963760000000  0.5110490000000 1.0
C      1  0.4719380000000  0.5045380000000  0.4229920000000 1.0
C      1  0.4505100000000  0.5334310000000  0.3970970000000 1.0
C      1  0.5426960000000  0.5500390000000  0.5288010000000 1.0
C      1  0.4999100000000  0.4895740000000  0.4816210000000 1.0
C      1  0.4825720000000  0.4868820000000  0.6118030000000 1.0
C      1  0.5208760000000  0.4693690000000  0.3860860000000 1.0
C      1  0.4387120000000  0.5189900000000  0.5163150000000 1.0
C      1  0.5743100000000  0.4640300000000  0.5853950000000 1.0
C      1  0.4032000000000  0.4705010000000  0.4643740000000 1.0
C      1  0.5099800000000  0.5601070000000  0.4682790000000 1.0
C      1  0.5073860000000  0.5158650000000  0.3942320000000 1.0
C      1  0.4931220000000  0.5132030000000  0.6186410000000 1.0
C      1  0.6163100000000  0.5091880000000  0.4708820000000 1.0
C      1  0.4574200000000  0.4683930000000  0.4535600000000 1.0
C      1  0.4634560000000  0.4034620000000  0.5275960000000 1.0
C      1  0.5258900000000  0.4746350000000  0.4384470000000 1.0
C      1  0.4823740000000  0.5989030000000  0.4635720000000 1.0
C      1  0.5120130000000  0.4083310000000  0.4801370000000 1.0
C      1  0.6030280000000  0.4890790000000  0.4532030000000 1.0
C      1  0.5192310000000  0.5205310000000  0.6060280000000 1.0
C      1  0.4077330000000  0.4373530000000  0.5047520000000 1.0
C      1  0.5002710000000  0.5193410000000  0.5291790000000 1.0
C      1  0.5232620000000  0.5763060000000  0.4890740000000 1.0
C      1  0.5085050000000  0.3975960000000  0.5654830000000 1.0
C      1  0.5028790000000  0.4423040000000  0.4053340000000 1.0
C      1  0.4235430000000  0.5476240000000  0.4325130000000 1.0
C      1  0.5425660000000  0.4848580000000  0.3984350000000 1.0
C      1  0.5894130000000  0.4340660000000  0.4629090000000 1.0
C      1  0.4712730000000  0.4378690000000  0.4021190000000 1.0
C      1  0.4735620000000  0.5328460000000  0.6181700000000 1.0
C      1  0.4522760000000  0.5038450000000  0.4948170000000 1.0
C      1  0.5384110000000  0.4301960000000  0.5764770000000 1.0
C      1  0.5731380000000  0.5650450000000  0.4323470000000 1.0
C      1  0.4650150000000  0.4008930000000  0.4698080000000 1.0
C      1  0.5920200000000  0.5458340000000  0.4443490000000 1.0
C      1  0.5146860000000  0.5715620000000  0.4115210000000 1.0
C      1  0.5029320000000  0.5298910000000  0.5718920000000 1.0
C      1  0.4318400000000  0.5469670000000  0.5561460000000 1.0
C      1  0.4810540000000  0.5956410000000  0.5073260000000 1.0
C      1  0.4889580000000  0.4428280000000  0.5882150000000 1.0
C      1  0.4268410000000  0.4974410000000  0.4288350000000 1.0
C      1  0.4899930000000  0.4445620000000  0.5172300000000 1.0
C      1  0.4030740000000  0.5467910000000  0.4531440000000 1.0
C      1  0.5333180000000  0.5504700000000  0.4029000000000 1.0
C      1  0.6166400000000  0.4796380000000  0.5120430000000 1.0
C      1  0.4756120000000  0.4385160000000  0.4896530000000 1.0
C      1  0.5666190000000  0.4707080000000  0.4005460000000 1.0
C      1  0.4270590000000  0.4722870000000  0.5231300000000 1.0
C      1  0.4227000000000  0.4251200000000  0.5298830000000 1.0
C      1  0.5101190000000  0.3999110000000  0.5283310000000 1.0
C      1  0.4401640000000  0.4504400000000  0.4372820000000 1.0
C      1  0.5795110000000  0.5281790000000  0.4218600000000 1.0
C      1  0.4396170000000  0.4078260000000  0.5140410000000 1.0
C      1  0.5893120000000  0.5458710000000  0.5645910000000 1.0
C      1  0.3964090000000  0.4584630000000  0.5414400000000 1.0
C      1  0.4625690000000  0.4095560000000  0.5547050000000 1.0
C      1  0.4767760000000  0.5714470000000  0.5592380000000 1.0
C      1  0.5255070000000  0.5334690000000  0.3816470000000 1.0
C      1  0.5109270000000  0.4218890000000  0.5811570000000 1.0
C      1  0.4118590000000  0.5014480000000  0.5561720000000 1.0
C      1  0.5694940000000  0.4119240000000  0.5402040000000 1.0
C      1  0.4949850000000  0.5452600000000  0.5173520000000 1.0
C      1  0.5362500000000  0.3818920000000  0.5290580000000 1.0
C      1  0.5817290000000  0.4907520000000  0.5807290000000 1.0
C      1  0.5548310000000  0.4087620000000  0.5645170000000 1.0
C      1  0.4996490000000  0.4889920000000  0.3866050000000 1.0
C      1  0.6067440000000  0.5051560000000  0.4998740000000 1.0
C      1  0.5146640000000  0.4283590000000  0.5193930000000 1.0
C      1  0.4323360000000  0.4688760000000  0.4141170000000 1.0
C      1  0.4501550000000  0.5579900000000  0.4868330000000 1.0
C      1  0.5289230000000  0.4722590000000  0.5991930000000 1.0
C      1  0.5443660000000  0.4599980000000  0.4579050000000 1.0
C      1  0.5673300000000  0.5390450000000  0.5082790000000 1.0
C      1  0.5538120000000  0.6165100000000  0.4675890000000 1.0
C      1  0.5272560000000  0.5487590000000  0.4468440000000 1.0
C      1  0.5002630000000  0.4630640000000  0.4282110000000 1.0
C      1  0.5180460000000  0.5639740000000  0.5166230000000 1.0
C      1  0.4852770000000  0.3892730000000  0.5158960000000 1.0
C      1  0.5386920000000  0.4988070000000  0.6053000000000 1.0
C      1  0.5674740000000  0.4361100000000  0.4853670000000 1.0
C      1  0.6027390000000  0.5505400000000  0.4968100000000 1.0
C      1  0.3880150000000  0.5211930000000  0.4940660000000 1.0
C      1  0.5250360000000  0.6216560000000  0.4672810000000 1.0
C      1  0.4987280000000  0.5584200000000  0.5763140000000 1.0
C      1  0.4592660000000  0.6165310000000  0.5038160000000 1.0
C      1  0.4545850000000  0.5323570000000  0.5414170000000 1.0
C      1  0.4136370000000  0.4644940000000  0.5867520000000 1.0
C      1  0.5055500000000  0.4720500000000  0.5223780000000 1.0
C      1  0.4570270000000  0.4613690000000  0.4821990000000 1.0
C      1  0.3846760000000  0.4668030000000  0.5156930000000 1.0
END
