TITL C-951342-2639-187 -7.2173045399272e-06 125000 -874.464182651347 0 0 141 (C1) n - 1
REM
REM in /home/bkarasulu/work/CARBON/AIRSS/Generating-Clusters/EDIP-Nigel-Params/with-SteepDescent/Only-C1/SD-CG/HFTN-CG
REM
REM
REM
REM
REM
REM ./C.cell (11c1c37f851c82e70ff6c80c92926a4b)
REM
REM compiler GCC version 9.2.1 20190827 (Red Hat 9.2.1-1)
REM options -cpp -mtune=generic -march=x86-64 -g -O0 -fpre-include=/usr/include/finclude/math-vector-fortran.h
REM seed -961057074 -61116665 1812703295 1293729578 -735284632 -1479962078 -1521832087 -1216839117 -1333548283 -531354952 -6760613 -502459095 -2002655873 -1521857549 530300972 -160643582 772019458 194331499 954250118 374054043 907588665 788561741 -2140853574 -77015773 1863133169 1246163996 2147252357 400105212 -911856609 1617061359 966035622 -2003537501 1647388691
REM
CELL 1.54180   50.00000   50.00000   50.00000   90.00000   90.00000   90.00000
LATT -1
SFAC C  
C      1  0.5462570000000  0.4920660000000  0.4089110000000 1.0
C      1  0.5034680000000  0.5830770000000  0.5596030000000 1.0
C      1  0.4987360000000  0.4593940000000  0.5166750000000 1.0
C      1  0.4291860000000  0.4603280000000  0.5386170000000 1.0
C      1  0.5168470000000  0.4244960000000  0.4300180000000 1.0
C      1  0.5227990000000  0.6005250000000  0.5057410000000 1.0
C      1  0.5433170000000  0.5460120000000  0.5891760000000 1.0
C      1  0.4260490000000  0.5778240000000  0.4799380000000 1.0
C      1  0.4113050000000  0.5033230000000  0.4628610000000 1.0
C      1  0.4950040000000  0.4145570000000  0.4732330000000 1.0
C      1  0.5186670000000  0.3950640000000  0.4732900000000 1.0
C      1  0.5730680000000  0.4898380000000  0.4229650000000 1.0
C      1  0.5353730000000  0.4478700000000  0.4238440000000 1.0
C      1  0.4025360000000  0.5413670000000  0.4635000000000 1.0
C      1  0.4205760000000  0.5507850000000  0.5368440000000 1.0
C      1  0.4775520000000  0.6006120000000  0.5248600000000 1.0
C      1  0.5710730000000  0.4164210000000  0.5034320000000 1.0
C      1  0.5046130000000  0.4438570000000  0.4707370000000 1.0
C      1  0.4675870000000  0.5818800000000  0.4512230000000 1.0
C      1  0.4468170000000  0.4461300000000  0.4400250000000 1.0
C      1  0.5121160000000  0.5065510000000  0.5047970000000 1.0
C      1  0.5969950000000  0.4601250000000  0.4948040000000 1.0
C      1  0.4727780000000  0.4470310000000  0.4255880000000 1.0
C      1  0.5501490000000  0.4391600000000  0.5683580000000 1.0
C      1  0.4100270000000  0.5324570000000  0.5568960000000 1.0
C      1  0.5560820000000  0.5355160000000  0.4236930000000 1.0
C      1  0.4821090000000  0.5247440000000  0.4595310000000 1.0
C      1  0.4217010000000  0.4507640000000  0.5111250000000 1.0
C      1  0.4974630000000  0.4876900000000  0.4510100000000 1.0
C      1  0.5593550000000  0.5545230000000  0.4685210000000 1.0
C      1  0.6007660000000  0.5079710000000  0.4688530000000 1.0
C      1  0.5650990000000  0.5701840000000  0.5155280000000 1.0
C      1  0.4594210000000  0.4942040000000  0.4149370000000 1.0
C      1  0.5893260000000  0.5239320000000  0.5134870000000 1.0
C      1  0.5774020000000  0.5389790000000  0.5569090000000 1.0
C      1  0.4979380000000  0.5431720000000  0.6053110000000 1.0
C      1  0.5508060000000  0.4224080000000  0.4642590000000 1.0
C      1  0.5004980000000  0.4299090000000  0.5248920000000 1.0
C      1  0.5205100000000  0.5012780000000  0.5927000000000 1.0
C      1  0.4364720000000  0.5149640000000  0.4530470000000 1.0
C      1  0.5493110000000  0.5584200000000  0.4412060000000 1.0
C      1  0.4974270000000  0.4558140000000  0.4429630000000 1.0
C      1  0.4491980000000  0.4286260000000  0.4846470000000 1.0
C      1  0.4035620000000  0.4649480000000  0.4923000000000 1.0
C      1  0.4714260000000  0.5252500000000  0.5503110000000 1.0
C      1  0.4845840000000  0.4095660000000  0.4460670000000 1.0
C      1  0.5198300000000  0.4105870000000  0.5141860000000 1.0
C      1  0.4891460000000  0.4631430000000  0.4886300000000 1.0
C      1  0.4573150000000  0.4948290000000  0.4449970000000 1.0
C      1  0.4830310000000  0.5649910000000  0.4314690000000 1.0
C      1  0.5087270000000  0.5413970000000  0.4604630000000 1.0
C      1  0.5525230000000  0.5268630000000  0.4785010000000 1.0
C      1  0.5299630000000  0.5781890000000  0.5520650000000 1.0
C      1  0.4448710000000  0.4886150000000  0.5087840000000 1.0
C      1  0.5342410000000  0.5277350000000  0.5019480000000 1.0
C      1  0.5343810000000  0.4829860000000  0.5421460000000 1.0
C      1  0.3983360000000  0.5146960000000  0.5148350000000 1.0
C      1  0.4072500000000  0.5563760000000  0.4878780000000 1.0
C      1  0.4695120000000  0.4694390000000  0.5737180000000 1.0
C      1  0.5122570000000  0.5028780000000  0.5412140000000 1.0
C      1  0.4756930000000  0.4704600000000  0.4067370000000 1.0
C      1  0.5791150000000  0.5168420000000  0.4311090000000 1.0
C      1  0.5197970000000  0.5528850000000  0.5104960000000 1.0
C      1  0.5629410000000  0.4877840000000  0.4926340000000 1.0
C      1  0.5942910000000  0.4567170000000  0.5420470000000 1.0
C      1  0.5264550000000  0.4245100000000  0.5601150000000 1.0
C      1  0.5110280000000  0.5906790000000  0.4795440000000 1.0
C      1  0.5026590000000  0.4819740000000  0.4074990000000 1.0
C      1  0.4821310000000  0.5999590000000  0.4731230000000 1.0
C      1  0.4726480000000  0.4751500000000  0.5300410000000 1.0
C      1  0.4022290000000  0.5071050000000  0.5427470000000 1.0
C      1  0.4370640000000  0.5946100000000  0.4991140000000 1.0
C      1  0.4834830000000  0.4969070000000  0.5497930000000 1.0
C      1  0.5357360000000  0.5770800000000  0.5217710000000 1.0
C      1  0.6009690000000  0.4750510000000  0.5210330000000 1.0
C      1  0.5275930000000  0.4677910000000  0.5185640000000 1.0
C      1  0.5774950000000  0.5457090000000  0.5291470000000 1.0
C      1  0.5320240000000  0.5210950000000  0.4579470000000 1.0
C      1  0.5435140000000  0.4657730000000  0.4472130000000 1.0
C      1  0.5021210000000  0.6131610000000  0.5200310000000 1.0
C      1  0.4695780000000  0.5319690000000  0.4889950000000 1.0
C      1  0.5320330000000  0.4060820000000  0.4478540000000 1.0
C      1  0.5366570000000  0.4483430000000  0.4717410000000 1.0
C      1  0.4507610000000  0.4814060000000  0.5914130000000 1.0
C      1  0.5607570000000  0.4956580000000  0.5432420000000 1.0
C      1  0.4986200000000  0.4898020000000  0.4812200000000 1.0
C      1  0.4949350000000  0.4565800000000  0.5838610000000 1.0
C      1  0.5195840000000  0.4719910000000  0.5909790000000 1.0
C      1  0.5351370000000  0.5509560000000  0.5614790000000 1.0
C      1  0.4445530000000  0.5655720000000  0.4618160000000 1.0
C      1  0.4740530000000  0.4199370000000  0.5562120000000 1.0
C      1  0.4447320000000  0.5212200000000  0.5019130000000 1.0
C      1  0.5336150000000  0.5200260000000  0.4090570000000 1.0
C      1  0.5535310000000  0.4041590000000  0.4863190000000 1.0
C      1  0.4583750000000  0.4007810000000  0.4440550000000 1.0
C      1  0.4547270000000  0.5691130000000  0.5590720000000 1.0
C      1  0.5687330000000  0.5725010000000  0.4878010000000 1.0
C      1  0.5280410000000  0.4679680000000  0.4038640000000 1.0
C      1  0.4240420000000  0.4876590000000  0.5478980000000 1.0
C      1  0.5855720000000  0.4815580000000  0.4728120000000 1.0
C      1  0.5730380000000  0.4712770000000  0.4462810000000 1.0
C      1  0.4750570000000  0.5614630000000  0.4938430000000 1.0
C      1  0.4722760000000  0.4133280000000  0.4951960000000 1.0
C      1  0.4432550000000  0.4215220000000  0.4556400000000 1.0
C      1  0.5046340000000  0.5616950000000  0.4857840000000 1.0
C      1  0.4440800000000  0.4692240000000  0.4583110000000 1.0
C      1  0.4733770000000  0.4189020000000  0.5257120000000 1.0
C      1  0.5787180000000  0.4959750000000  0.5183630000000 1.0
C      1  0.4287270000000  0.5431600000000  0.4502290000000 1.0
C      1  0.5439200000000  0.4586980000000  0.5870910000000 1.0
C      1  0.4659050000000  0.5906740000000  0.4990120000000 1.0
C      1  0.5111720000000  0.5606400000000  0.4379900000000 1.0
C      1  0.4569170000000  0.5408160000000  0.5717210000000 1.0
C      1  0.4121250000000  0.4927550000000  0.5004020000000 1.0
C      1  0.5485570000000  0.4614620000000  0.4982620000000 1.0
C      1  0.5723140000000  0.4443420000000  0.5091530000000 1.0
C      1  0.4135320000000  0.4726910000000  0.4623760000000 1.0
C      1  0.5268210000000  0.4940540000000  0.4429020000000 1.0
C      1  0.4182860000000  0.5374960000000  0.5097690000000 1.0
C      1  0.4786710000000  0.5816980000000  0.5470690000000 1.0
C      1  0.4264920000000  0.4242650000000  0.5025000000000 1.0
C      1  0.4567080000000  0.4622980000000  0.4865080000000 1.0
C      1  0.5454990000000  0.5172370000000  0.5881750000000 1.0
C      1  0.4692410000000  0.5379730000000  0.4339280000000 1.0
C      1  0.5297330000000  0.4059350000000  0.5394120000000 1.0
C      1  0.4305950000000  0.5253940000000  0.5770830000000 1.0
C      1  0.4917290000000  0.5424270000000  0.5328980000000 1.0
C      1  0.4755390000000  0.5197410000000  0.4105250000000 1.0
C      1  0.5151150000000  0.5325150000000  0.5495920000000 1.0
C      1  0.4337120000000  0.4959340000000  0.5743550000000 1.0
C      1  0.4988600000000  0.4314570000000  0.5689050000000 1.0
C      1  0.5651060000000  0.5146310000000  0.5654320000000 1.0
C      1  0.4312220000000  0.5750670000000  0.5454020000000 1.0
C      1  0.4577340000000  0.4538110000000  0.5478690000000 1.0
C      1  0.5041010000000  0.5107710000000  0.4094480000000 1.0
C      1  0.6044440000000  0.5189890000000  0.4432650000000 1.0
C      1  0.4987570000000  0.5153960000000  0.6050590000000 1.0
C      1  0.5903470000000  0.5280880000000  0.4858200000000 1.0
C      1  0.4880090000000  0.5223420000000  0.5097400000000 1.0
C      1  0.4713990000000  0.5409160000000  0.5977860000000 1.0
C      1  0.5725200000000  0.4420820000000  0.5508220000000 1.0
END
