TITL C-950534-5965-726 4.58842410135046e-07 125000 -729.257138537297 0 0 119 (C1) n - 1
REM
REM in /home/bkarasulu/work/CARBON/AIRSS/Generating-Clusters/EDIP-Nigel-Params/with-SteepDescent/Only-C1/SD-CG/HFTN-CG
REM
REM
REM
REM
REM
REM ./C.cell (11c1c37f851c82e70ff6c80c92926a4b)
REM
REM compiler GCC version 9.2.1 20190827 (Red Hat 9.2.1-1)
REM options -cpp -mtune=generic -march=x86-64 -g -O0 -fpre-include=/usr/include/finclude/math-vector-fortran.h
REM seed -580768455 1149345099 -1298018172 -1782483276 -457418096 1195306606 705569437 -1658708445 -1166809832 -865436122 -1618750143 97913671 -191482026 -404765347 -904075800 2073744918 -828312973 -464012433 789426216 461856536 406432524 1933936838 846356813 1103479253 1646564511 1593693284 268764128 -1305716968 -2066399322 -785378303 927446540 322013031 2000540105
REM
CELL 1.54180   50.00000   50.00000   50.00000   90.00000   90.00000   90.00000
LATT -1
SFAC C  
C      1  0.5334530000000  0.5562880000000  0.4835150000000 1.0
C      1  0.4743820000000  0.4396780000000  0.4629850000000 1.0
C      1  0.5504540000000  0.5464010000000  0.4350570000000 1.0
C      1  0.5035060000000  0.4489490000000  0.4734850000000 1.0
C      1  0.4725090000000  0.4050260000000  0.5601130000000 1.0
C      1  0.5664800000000  0.5000140000000  0.5269030000000 1.0
C      1  0.5073680000000  0.4740780000000  0.4292440000000 1.0
C      1  0.5593550000000  0.5055860000000  0.5544320000000 1.0
C      1  0.5281640000000  0.5367770000000  0.5481070000000 1.0
C      1  0.4282470000000  0.4400370000000  0.5182690000000 1.0
C      1  0.5777230000000  0.5024890000000  0.4305160000000 1.0
C      1  0.5803390000000  0.5530990000000  0.5150770000000 1.0
C      1  0.4649210000000  0.4144300000000  0.4766180000000 1.0
C      1  0.5662030000000  0.4581820000000  0.5248440000000 1.0
C      1  0.5382090000000  0.4901270000000  0.4605800000000 1.0
C      1  0.4574110000000  0.5010620000000  0.5884390000000 1.0
C      1  0.4986860000000  0.5632440000000  0.5797160000000 1.0
C      1  0.4466790000000  0.4935870000000  0.4212800000000 1.0
C      1  0.5089950000000  0.5189010000000  0.5674930000000 1.0
C      1  0.5106440000000  0.4773450000000  0.4601320000000 1.0
C      1  0.5979980000000  0.5073760000000  0.4931700000000 1.0
C      1  0.4388640000000  0.4178470000000  0.4876250000000 1.0
C      1  0.5479850000000  0.4282630000000  0.4633550000000 1.0
C      1  0.5754840000000  0.5786040000000  0.5031880000000 1.0
C      1  0.4961890000000  0.5404500000000  0.4433130000000 1.0
C      1  0.5680970000000  0.5312050000000  0.5622630000000 1.0
C      1  0.5182560000000  0.5275200000000  0.5198120000000 1.0
C      1  0.5368130000000  0.4757240000000  0.4160130000000 1.0
C      1  0.4937360000000  0.5357280000000  0.5893880000000 1.0
C      1  0.4458350000000  0.5094120000000  0.5178280000000 1.0
C      1  0.4664850000000  0.5083900000000  0.4348660000000 1.0
C      1  0.5443580000000  0.4853950000000  0.5078300000000 1.0
C      1  0.5922720000000  0.4694190000000  0.5240130000000 1.0
C      1  0.5872190000000  0.4748880000000  0.4276500000000 1.0
C      1  0.4631620000000  0.4527070000000  0.5506250000000 1.0
C      1  0.4950010000000  0.4151310000000  0.5456500000000 1.0
C      1  0.4528470000000  0.5524910000000  0.5691450000000 1.0
C      1  0.4676040000000  0.5380890000000  0.4351720000000 1.0
C      1  0.5767570000000  0.5382680000000  0.4429130000000 1.0
C      1  0.4909230000000  0.4984410000000  0.4186660000000 1.0
C      1  0.4782370000000  0.5420400000000  0.4882890000000 1.0
C      1  0.5879770000000  0.4645870000000  0.4567170000000 1.0
C      1  0.4924340000000  0.4889240000000  0.5026540000000 1.0
C      1  0.5153270000000  0.4728110000000  0.5155300000000 1.0
C      1  0.5843440000000  0.5510230000000  0.4678880000000 1.0
C      1  0.4782540000000  0.4820670000000  0.5936510000000 1.0
C      1  0.4436940000000  0.4877140000000  0.4929680000000 1.0
C      1  0.4052300000000  0.5039490000000  0.4777970000000 1.0
C      1  0.5473190000000  0.4813100000000  0.5651950000000 1.0
C      1  0.5303880000000  0.4197830000000  0.5031080000000 1.0
C      1  0.4131650000000  0.5327610000000  0.4824530000000 1.0
C      1  0.5141490000000  0.5986620000000  0.4737540000000 1.0
C      1  0.5233730000000  0.4493060000000  0.5454710000000 1.0
C      1  0.5854650000000  0.5345810000000  0.4922870000000 1.0
C      1  0.4580980000000  0.5024430000000  0.5439810000000 1.0
C      1  0.4651620000000  0.5296460000000  0.5849560000000 1.0
C      1  0.4042160000000  0.4858170000000  0.5277070000000 1.0
C      1  0.4403860000000  0.4943210000000  0.5647630000000 1.0
C      1  0.4280520000000  0.4403660000000  0.4740950000000 1.0
C      1  0.4874280000000  0.5011150000000  0.5474320000000 1.0
C      1  0.5549710000000  0.4235660000000  0.4901320000000 1.0
C      1  0.5490080000000  0.5901970000000  0.4599680000000 1.0
C      1  0.4581200000000  0.5346400000000  0.5078870000000 1.0
C      1  0.5096230000000  0.4438530000000  0.5037200000000 1.0
C      1  0.5260080000000  0.4819460000000  0.5853120000000 1.0
C      1  0.4906300000000  0.5852050000000  0.4607060000000 1.0
C      1  0.4985380000000  0.4243910000000  0.4366370000000 1.0
C      1  0.4987220000000  0.5261270000000  0.4735220000000 1.0
C      1  0.4177150000000  0.5136770000000  0.5292740000000 1.0
C      1  0.4917700000000  0.4489720000000  0.4235120000000 1.0
C      1  0.5214320000000  0.5087450000000  0.5928300000000 1.0
C      1  0.4338660000000  0.4996910000000  0.4629380000000 1.0
C      1  0.4388070000000  0.4697480000000  0.4377130000000 1.0
C      1  0.4493350000000  0.5535350000000  0.4517720000000 1.0
C      1  0.5480750000000  0.4990400000000  0.4324850000000 1.0
C      1  0.4651350000000  0.5660380000000  0.4749920000000 1.0
C      1  0.4781910000000  0.5893680000000  0.5451780000000 1.0
C      1  0.4172170000000  0.4601730000000  0.5396030000000 1.0
C      1  0.5947620000000  0.4859530000000  0.4744080000000 1.0
C      1  0.4941790000000  0.5116740000000  0.5204490000000 1.0
C      1  0.4131420000000  0.4815530000000  0.4978820000000 1.0
C      1  0.5964260000000  0.4975360000000  0.5205810000000 1.0
C      1  0.4265610000000  0.5368240000000  0.4574210000000 1.0
C      1  0.5645070000000  0.5467440000000  0.5390040000000 1.0
C      1  0.5437640000000  0.5054540000000  0.4845880000000 1.0
C      1  0.4619660000000  0.4794800000000  0.4014230000000 1.0
C      1  0.4729370000000  0.5741350000000  0.5699840000000 1.0
C      1  0.4652390000000  0.4540880000000  0.4139620000000 1.0
C      1  0.4153630000000  0.5084390000000  0.5576890000000 1.0
C      1  0.5117740000000  0.4036660000000  0.4844220000000 1.0
C      1  0.4636210000000  0.4296910000000  0.5685730000000 1.0
C      1  0.5049450000000  0.5802460000000  0.5368150000000 1.0
C      1  0.4908090000000  0.4705190000000  0.5512470000000 1.0
C      1  0.5247670000000  0.5289510000000  0.4901760000000 1.0
C      1  0.4348200000000  0.5722430000000  0.5255820000000 1.0
C      1  0.5363160000000  0.5240140000000  0.4230770000000 1.0
C      1  0.5065980000000  0.5678730000000  0.4431080000000 1.0
C      1  0.4553930000000  0.5911830000000  0.5286380000000 1.0
C      1  0.4110860000000  0.4519010000000  0.4939520000000 1.0
C      1  0.5185410000000  0.5797380000000  0.4947410000000 1.0
C      1  0.5227440000000  0.5924320000000  0.5192620000000 1.0
C      1  0.5738550000000  0.5790770000000  0.4744330000000 1.0
C      1  0.5000710000000  0.4670050000000  0.5805990000000 1.0
C      1  0.4491510000000  0.4596150000000  0.4652850000000 1.0
C      1  0.4325110000000  0.5571970000000  0.5496990000000 1.0
C      1  0.4593780000000  0.4430380000000  0.5225520000000 1.0
C      1  0.5076650000000  0.5240100000000  0.4220240000000 1.0
C      1  0.5595580000000  0.4570410000000  0.4235570000000 1.0
C      1  0.4382250000000  0.5556810000000  0.5004880000000 1.0
C      1  0.4378920000000  0.4658790000000  0.5592830000000 1.0
C      1  0.4923850000000  0.4966850000000  0.4740940000000 1.0
C      1  0.4858060000000  0.4272390000000  0.5179290000000 1.0
C      1  0.5506040000000  0.4571570000000  0.5495590000000 1.0
C      1  0.5348810000000  0.5643630000000  0.4535540000000 1.0
C      1  0.5174690000000  0.5640120000000  0.5569200000000 1.0
C      1  0.5596980000000  0.4523060000000  0.4533180000000 1.0
C      1  0.4843090000000  0.4053150000000  0.4964410000000 1.0
C      1  0.5092970000000  0.4328800000000  0.5644050000000 1.0
C      1  0.5175100000000  0.4243740000000  0.4607090000000 1.0
END
