TITL C-950531-5884-516 -1.18252262262917e-06 125000 -817.320649318318 0 0 131 (C1) n - 1
REM
REM in /home/bkarasulu/work/CARBON/AIRSS/Generating-Clusters/EDIP-Nigel-Params/with-SteepDescent/Only-C1/SD-CG/HFTN-CG
REM
REM
REM
REM
REM
REM ./C.cell (11c1c37f851c82e70ff6c80c92926a4b)
REM
REM compiler GCC version 9.2.1 20190827 (Red Hat 9.2.1-1)
REM options -cpp -mtune=generic -march=x86-64 -g -O0 -fpre-include=/usr/include/finclude/math-vector-fortran.h
REM seed -1064449579 1217613511 -297429764 1361422452 -1477175091 2027173091 131711019 397310828 2009441062 653288057 -1392458827 1745190512 -1533517483 1351228263 -2069468063 -1669201275 -1137693049 2099842279 874068346 1078884594 330432288 1315948408 258069958 -382656784 -683581397 -1927115185 37033035 -1567565998 -1394983044 60314121 -1768755767 -1785531996 -325032043
REM
CELL 1.54180   50.00000   50.00000   50.00000   90.00000   90.00000   90.00000
LATT -1
SFAC C  
C      1  0.4557170000000  0.5640900000000  0.5587250000000 1.0
C      1  0.4431390000000  0.4681360000000  0.5649560000000 1.0
C      1  0.4477270000000  0.4780530000000  0.4542100000000 1.0
C      1  0.4811920000000  0.5503800000000  0.4829000000000 1.0
C      1  0.5949890000000  0.4638490000000  0.5414980000000 1.0
C      1  0.5228750000000  0.4876400000000  0.4261240000000 1.0
C      1  0.5073320000000  0.4704160000000  0.4842940000000 1.0
C      1  0.5002030000000  0.5630570000000  0.4220710000000 1.0
C      1  0.5812640000000  0.5214490000000  0.4277070000000 1.0
C      1  0.4027330000000  0.4496080000000  0.4852480000000 1.0
C      1  0.5967260000000  0.5082820000000  0.5225940000000 1.0
C      1  0.4708960000000  0.5497740000000  0.5823520000000 1.0
C      1  0.5780820000000  0.4294330000000  0.5345420000000 1.0
C      1  0.4771820000000  0.4996480000000  0.5850110000000 1.0
C      1  0.5811350000000  0.5339210000000  0.5248930000000 1.0
C      1  0.5431050000000  0.5314210000000  0.5910330000000 1.0
C      1  0.4745010000000  0.5097680000000  0.4092920000000 1.0
C      1  0.4480490000000  0.4412000000000  0.5522220000000 1.0
C      1  0.4341530000000  0.4964830000000  0.4329360000000 1.0
C      1  0.4502490000000  0.4923850000000  0.4066250000000 1.0
C      1  0.4883650000000  0.5020560000000  0.4713190000000 1.0
C      1  0.4711710000000  0.4123990000000  0.4985790000000 1.0
C      1  0.4584430000000  0.5195350000000  0.5117590000000 1.0
C      1  0.5431960000000  0.5435940000000  0.4095580000000 1.0
C      1  0.3980520000000  0.4741600000000  0.4708850000000 1.0
C      1  0.4063490000000  0.5175780000000  0.4640720000000 1.0
C      1  0.4490440000000  0.4189380000000  0.4808160000000 1.0
C      1  0.4571770000000  0.4430490000000  0.4146740000000 1.0
C      1  0.5511490000000  0.4815800000000  0.5814630000000 1.0
C      1  0.5049800000000  0.5034360000000  0.5938640000000 1.0
C      1  0.5463070000000  0.5201560000000  0.4918330000000 1.0
C      1  0.4837700000000  0.5938290000000  0.4642760000000 1.0
C      1  0.4813130000000  0.5687270000000  0.5111610000000 1.0
C      1  0.5685110000000  0.4463030000000  0.4897220000000 1.0
C      1  0.4596500000000  0.5222490000000  0.5829130000000 1.0
C      1  0.4538610000000  0.5891780000000  0.5417900000000 1.0
C      1  0.4509600000000  0.4739600000000  0.5055060000000 1.0
C      1  0.5679620000000  0.4543290000000  0.5451240000000 1.0
C      1  0.5152960000000  0.5375060000000  0.5274220000000 1.0
C      1  0.5449380000000  0.4979630000000  0.4113330000000 1.0
C      1  0.5563820000000  0.5461050000000  0.5713730000000 1.0
C      1  0.4968930000000  0.4219020000000  0.5520470000000 1.0
C      1  0.4414660000000  0.5243600000000  0.4378650000000 1.0
C      1  0.4564800000000  0.4662530000000  0.3993930000000 1.0
C      1  0.4985090000000  0.4951070000000  0.4120730000000 1.0
C      1  0.4642790000000  0.4736640000000  0.5845150000000 1.0
C      1  0.5595570000000  0.5212350000000  0.4102910000000 1.0
C      1  0.5619910000000  0.4985470000000  0.5514820000000 1.0
C      1  0.5891600000000  0.5192450000000  0.4765860000000 1.0
C      1  0.5540840000000  0.5687590000000  0.5271040000000 1.0
C      1  0.5648920000000  0.5853660000000  0.5077280000000 1.0
C      1  0.5269070000000  0.4264690000000  0.4852530000000 1.0
C      1  0.5192510000000  0.5286420000000  0.4999040000000 1.0
C      1  0.5007650000000  0.5514980000000  0.5799000000000 1.0
C      1  0.5081100000000  0.4650940000000  0.5678960000000 1.0
C      1  0.4830170000000  0.4291830000000  0.4185910000000 1.0
C      1  0.4721540000000  0.4298610000000  0.5673120000000 1.0
C      1  0.4372050000000  0.5664710000000  0.5012870000000 1.0
C      1  0.4664280000000  0.5213220000000  0.4831710000000 1.0
C      1  0.5273440000000  0.4578790000000  0.4295140000000 1.0
C      1  0.4074780000000  0.4599380000000  0.5219780000000 1.0
C      1  0.4694980000000  0.5685430000000  0.4608340000000 1.0
C      1  0.4769190000000  0.4814080000000  0.4533480000000 1.0
C      1  0.5168830000000  0.3916630000000  0.5031270000000 1.0
C      1  0.5598220000000  0.4540060000000  0.5734010000000 1.0
C      1  0.5350620000000  0.4777440000000  0.4754680000000 1.0
C      1  0.5681190000000  0.5671600000000  0.4854040000000 1.0
C      1  0.5083050000000  0.6046270000000  0.4733660000000 1.0
C      1  0.4367510000000  0.5441240000000  0.5481830000000 1.0
C      1  0.5522370000000  0.4910650000000  0.4994870000000 1.0
C      1  0.5327780000000  0.5948580000000  0.4636620000000 1.0
C      1  0.4939300000000  0.3974440000000  0.4864470000000 1.0
C      1  0.5176800000000  0.5178140000000  0.5494530000000 1.0
C      1  0.4777280000000  0.4084390000000  0.4402000000000 1.0
C      1  0.5663160000000  0.4242010000000  0.5092520000000 1.0
C      1  0.5446520000000  0.4826720000000  0.5296390000000 1.0
C      1  0.5612470000000  0.5863720000000  0.5474280000000 1.0
C      1  0.4836660000000  0.4528360000000  0.5815640000000 1.0
C      1  0.4353870000000  0.4507560000000  0.5163950000000 1.0
C      1  0.5729980000000  0.5096890000000  0.4528640000000 1.0
C      1  0.5875550000000  0.4951530000000  0.4956970000000 1.0
C      1  0.5720270000000  0.5379560000000  0.4955250000000 1.0
C      1  0.5735850000000  0.4784140000000  0.4534370000000 1.0
C      1  0.4372190000000  0.4919160000000  0.5474360000000 1.0
C      1  0.5234820000000  0.4991460000000  0.4555360000000 1.0
C      1  0.5155800000000  0.4886670000000  0.5421550000000 1.0
C      1  0.5239720000000  0.5507380000000  0.4281450000000 1.0
C      1  0.4095790000000  0.4864730000000  0.5331320000000 1.0
C      1  0.5133610000000  0.4484020000000  0.5009530000000 1.0
C      1  0.4719160000000  0.4299990000000  0.5235730000000 1.0
C      1  0.5453640000000  0.5743240000000  0.5696240000000 1.0
C      1  0.4359990000000  0.5402940000000  0.5187480000000 1.0
C      1  0.4095670000000  0.5304670000000  0.5158480000000 1.0
C      1  0.5399520000000  0.4091520000000  0.5074310000000 1.0
C      1  0.5516290000000  0.4568480000000  0.4474900000000 1.0
C      1  0.4605020000000  0.4923780000000  0.5254980000000 1.0
C      1  0.5047020000000  0.4415600000000  0.4419940000000 1.0
C      1  0.5506670000000  0.4370400000000  0.4695750000000 1.0
C      1  0.4961760000000  0.4497960000000  0.5249440000000 1.0
C      1  0.4677750000000  0.5296060000000  0.4300660000000 1.0
C      1  0.5484270000000  0.5714550000000  0.4638930000000 1.0
C      1  0.5848430000000  0.4689510000000  0.4792680000000 1.0
C      1  0.5413180000000  0.4328700000000  0.5769530000000 1.0
C      1  0.5317530000000  0.5479220000000  0.4564450000000 1.0
C      1  0.4294590000000  0.4380530000000  0.4905910000000 1.0
C      1  0.4426070000000  0.4434450000000  0.4395380000000 1.0
C      1  0.4816120000000  0.5621450000000  0.5417590000000 1.0
C      1  0.5910270000000  0.4919290000000  0.5458840000000 1.0
C      1  0.4117990000000  0.4964830000000  0.4846140000000 1.0
C      1  0.5133270000000  0.5732080000000  0.5618710000000 1.0
C      1  0.5225590000000  0.4792460000000  0.5898160000000 1.0
C      1  0.4306370000000  0.5350500000000  0.4617200000000 1.0
C      1  0.4520720000000  0.4188650000000  0.4520700000000 1.0
C      1  0.4568700000000  0.5856220000000  0.5128570000000 1.0
C      1  0.4913510000000  0.4587480000000  0.4621490000000 1.0
C      1  0.4017690000000  0.5046710000000  0.5116040000000 1.0
C      1  0.4381850000000  0.5188230000000  0.5630590000000 1.0
C      1  0.4422470000000  0.4911920000000  0.4826760000000 1.0
C      1  0.5007250000000  0.4069510000000  0.4592890000000 1.0
C      1  0.5445690000000  0.5200360000000  0.4611430000000 1.0
C      1  0.5603740000000  0.5293750000000  0.5465530000000 1.0
C      1  0.4043300000000  0.4965500000000  0.4409990000000 1.0
C      1  0.5099020000000  0.6088440000000  0.5009110000000 1.0
C      1  0.5202290000000  0.4396750000000  0.5596450000000 1.0
C      1  0.5170690000000  0.5262450000000  0.5789800000000 1.0
C      1  0.4760720000000  0.5567500000000  0.4337620000000 1.0
C      1  0.5070340000000  0.5834340000000  0.5123410000000 1.0
C      1  0.5098630000000  0.5456910000000  0.4783350000000 1.0
C      1  0.5241880000000  0.5661910000000  0.5306750000000 1.0
C      1  0.4892630000000  0.4792600000000  0.5303050000000 1.0
C      1  0.4398420000000  0.5621470000000  0.4713980000000 1.0
END
