TITL C-950526-5686-440 -3.42703785798633e-06 125000 -527.108615942606 0 0 87 (C1) n - 1
REM
REM in /home/bkarasulu/work/CARBON/AIRSS/Generating-Clusters/EDIP-Nigel-Params/with-SteepDescent/Only-C1/SD-CG/HFTN-CG
REM
REM
REM
REM
REM
REM ./C.cell (11c1c37f851c82e70ff6c80c92926a4b)
REM
REM compiler GCC version 9.2.1 20190827 (Red Hat 9.2.1-1)
REM options -cpp -mtune=generic -march=x86-64 -g -O0 -fpre-include=/usr/include/finclude/math-vector-fortran.h
REM seed 1178045709 -1465759862 1302485998 -868452790 -1771076965 -1873360409 -1570281287 -2032940845 -965839751 -1220560886 -799587814 -1594092778 508242334 -1709976875 -364095108 -1308299841 157269027 -333259933 462161656 -421341963 -686960421 554268246 2091907191 -2140789071 -1624417821 1505606324 -1562499299 853415304 -877408168 -1708649003 -681718446 1552165096 564771035
REM
CELL 1.54180   50.00000   50.00000   50.00000   90.00000   90.00000   90.00000
LATT -1
SFAC C  
C      1  0.5439130000000  0.5136610000000  0.4925670000000 1.0
C      1  0.4287260000000  0.4861410000000  0.5351450000000 1.0
C      1  0.4923340000000  0.5190000000000  0.4260730000000 1.0
C      1  0.5547850000000  0.4499720000000  0.5292750000000 1.0
C      1  0.5028670000000  0.5104300000000  0.5325050000000 1.0
C      1  0.4016430000000  0.4842600000000  0.5275950000000 1.0
C      1  0.5388010000000  0.5561250000000  0.5530190000000 1.0
C      1  0.5087440000000  0.4213150000000  0.4787560000000 1.0
C      1  0.5876480000000  0.5138910000000  0.4576890000000 1.0
C      1  0.5679920000000  0.4853990000000  0.5701310000000 1.0
C      1  0.5129210000000  0.4778310000000  0.4752730000000 1.0
C      1  0.5683700000000  0.5513100000000  0.4779690000000 1.0
C      1  0.4623220000000  0.4408150000000  0.4573340000000 1.0
C      1  0.4589100000000  0.4487010000000  0.5475880000000 1.0
C      1  0.4756540000000  0.4937870000000  0.5299810000000 1.0
C      1  0.4476550000000  0.4946960000000  0.4259120000000 1.0
C      1  0.5137260000000  0.4988130000000  0.4216380000000 1.0
C      1  0.5092680000000  0.4375880000000  0.5447760000000 1.0
C      1  0.5092120000000  0.4700170000000  0.4286530000000 1.0
C      1  0.4926350000000  0.5160990000000  0.5874710000000 1.0
C      1  0.4706510000000  0.4559170000000  0.5197520000000 1.0
C      1  0.4510890000000  0.5523240000000  0.5393450000000 1.0
C      1  0.5088400000000  0.4140610000000  0.5293690000000 1.0
C      1  0.4258800000000  0.5476830000000  0.5000420000000 1.0
C      1  0.5714210000000  0.5288890000000  0.4984380000000 1.0
C      1  0.4559090000000  0.4672070000000  0.4293560000000 1.0
C      1  0.5332780000000  0.4538020000000  0.5503850000000 1.0
C      1  0.4870110000000  0.5624790000000  0.4581570000000 1.0
C      1  0.4843560000000  0.4808690000000  0.4724190000000 1.0
C      1  0.5699510000000  0.4630480000000  0.4718410000000 1.0
C      1  0.5774560000000  0.4913680000000  0.5439770000000 1.0
C      1  0.5429790000000  0.5312040000000  0.4447120000000 1.0
C      1  0.5430290000000  0.5014430000000  0.5704820000000 1.0
C      1  0.3996990000000  0.4945040000000  0.5025390000000 1.0
C      1  0.5223590000000  0.4714480000000  0.5018850000000 1.0
C      1  0.4676390000000  0.5120040000000  0.4125460000000 1.0
C      1  0.5542140000000  0.4703770000000  0.4497610000000 1.0
C      1  0.4187280000000  0.5313940000000  0.4753510000000 1.0
C      1  0.4677820000000  0.5170000000000  0.5739590000000 1.0
C      1  0.5748800000000  0.4716330000000  0.5224140000000 1.0
C      1  0.4864920000000  0.4476700000000  0.5603610000000 1.0
C      1  0.4825310000000  0.4579250000000  0.4287780000000 1.0
C      1  0.4669590000000  0.4262520000000  0.5047710000000 1.0
C      1  0.5391410000000  0.5069440000000  0.4300080000000 1.0
C      1  0.5281940000000  0.5523010000000  0.4310740000000 1.0
C      1  0.5373790000000  0.5711950000000  0.5250700000000 1.0
C      1  0.4466970000000  0.5681450000000  0.4937880000000 1.0
C      1  0.5522680000000  0.5287040000000  0.5549010000000 1.0
C      1  0.4590350000000  0.5580620000000  0.4683530000000 1.0
C      1  0.5113150000000  0.5522360000000  0.5619600000000 1.0
C      1  0.4565550000000  0.5152030000000  0.4494850000000 1.0
C      1  0.5296820000000  0.5303220000000  0.4717480000000 1.0
C      1  0.4945950000000  0.4750450000000  0.5689120000000 1.0
C      1  0.5217350000000  0.4214500000000  0.5052760000000 1.0
C      1  0.4176120000000  0.5018850000000  0.4821000000000 1.0
C      1  0.5317970000000  0.5594190000000  0.4777010000000 1.0
C      1  0.4880630000000  0.5550710000000  0.5015860000000 1.0
C      1  0.5337680000000  0.5417750000000  0.5170990000000 1.0
C      1  0.4928350000000  0.5664170000000  0.5422420000000 1.0
C      1  0.5242020000000  0.4336720000000  0.4584080000000 1.0
C      1  0.5051560000000  0.5339710000000  0.5146540000000 1.0
C      1  0.4546650000000  0.4665860000000  0.4924860000000 1.0
C      1  0.4999610000000  0.5477100000000  0.4340860000000 1.0
C      1  0.5099240000000  0.5219130000000  0.5639410000000 1.0
C      1  0.4698400000000  0.4902570000000  0.5592260000000 1.0
C      1  0.5720800000000  0.5370150000000  0.4522480000000 1.0
C      1  0.4472210000000  0.5045230000000  0.5206040000000 1.0
C      1  0.4803140000000  0.4277190000000  0.4785650000000 1.0
C      1  0.4394500000000  0.4455980000000  0.4764280000000 1.0
C      1  0.4362570000000  0.5329820000000  0.5238970000000 1.0
C      1  0.4599050000000  0.5733810000000  0.5206320000000 1.0
C      1  0.4404330000000  0.5391690000000  0.4554040000000 1.0
C      1  0.4453340000000  0.4960270000000  0.4919490000000 1.0
C      1  0.5747160000000  0.4819660000000  0.4934150000000 1.0
C      1  0.4678210000000  0.5042020000000  0.4743970000000 1.0
C      1  0.5260860000000  0.4622850000000  0.4527760000000 1.0
C      1  0.4394430000000  0.4245700000000  0.4959910000000 1.0
C      1  0.5394530000000  0.4454270000000  0.5042800000000 1.0
C      1  0.5581350000000  0.4405470000000  0.4827660000000 1.0
C      1  0.5869190000000  0.5074350000000  0.4852490000000 1.0
C      1  0.5098520000000  0.5809790000000  0.5194480000000 1.0
C      1  0.4681820000000  0.5419240000000  0.5594250000000 1.0
C      1  0.5618130000000  0.5128890000000  0.5321740000000 1.0
C      1  0.5291490000000  0.4965720000000  0.5187710000000 1.0
C      1  0.4436800000000  0.4729970000000  0.5573510000000 1.0
C      1  0.5228560000000  0.4805770000000  0.5585710000000 1.0
C      1  0.5052200000000  0.5725770000000  0.4815630000000 1.0
END
