TITL C-950525-1983-284 -1.45607145643399e-07 125000 -132.505749191383 0 0 24 (C1) n - 1
REM
REM in /home/bkarasulu/work/CARBON/AIRSS/Generating-Clusters/EDIP-Nigel-Params/with-SteepDescent/Only-C1/SD-CG/HFTN-CG
REM
REM
REM
REM
REM
REM ./C.cell (11c1c37f851c82e70ff6c80c92926a4b)
REM
REM compiler GCC version 9.2.1 20190827 (Red Hat 9.2.1-1)
REM options -cpp -mtune=generic -march=x86-64 -g -O0 -fpre-include=/usr/include/finclude/math-vector-fortran.h
REM seed 1271997216 2145785693 697152254 -854509777 1230969273 -312969544 -2030496226 -1409324990 2030463072 869430254 -1466970829 -301260787 186042978 801294360 -468764676 1851509131 -1510913053 -896224717 -1093389483 -1765116862 27821315 212975102 -132958357 -529267144 1665354955 413565038 1570309473 1624585196 1165683305 1525662383 -1550569332 -1660536172 -959978848
REM
CELL 1.54180   50.00000   50.00000   50.00000   90.00000   90.00000   90.00000
LATT -1
SFAC C  
C      1  0.5029960000000  0.4732880000000  0.4810260000000 1.0
C      1  0.4788270000000  0.4589600000000  0.4797860000000 1.0
C      1  0.5288680000000  0.5273480000000  0.4381510000000 1.0
C      1  0.5469580000000  0.4984200000000  0.5322980000000 1.0
C      1  0.5144530000000  0.5292260000000  0.5313450000000 1.0
C      1  0.5479010000000  0.5339610000000  0.4993850000000 1.0
C      1  0.4708540000000  0.5107870000000  0.5388050000000 1.0
C      1  0.4557070000000  0.4741520000000  0.4845340000000 1.0
C      1  0.5223190000000  0.5288410000000  0.4852220000000 1.0
C      1  0.4079330000000  0.4526070000000  0.4767950000000 1.0
C      1  0.4580700000000  0.5003030000000  0.4938970000000 1.0
C      1  0.5083040000000  0.4820990000000  0.5521980000000 1.0
C      1  0.4726820000000  0.5185570000000  0.5096000000000 1.0
C      1  0.5271050000000  0.4783400000000  0.5294180000000 1.0
C      1  0.5024140000000  0.4813820000000  0.4343600000000 1.0
C      1  0.5609790000000  0.5567110000000  0.4948360000000 1.0
C      1  0.5001490000000  0.5140720000000  0.5532490000000 1.0
C      1  0.4799180000000  0.4826900000000  0.5431850000000 1.0
C      1  0.4309430000000  0.4630910000000  0.4808070000000 1.0
C      1  0.5438000000000  0.5261290000000  0.5279270000000 1.0
C      1  0.5052330000000  0.4918750000000  0.4585310000000 1.0
C      1  0.5065880000000  0.4863210000000  0.5079250000000 1.0
C      1  0.5232810000000  0.5140730000000  0.4604170000000 1.0
C      1  0.5037200000000  0.5167670000000  0.5063030000000 1.0
END
