TITL C-951344-124-703 -2.84491263688715e-07 125000 -885.571904921636 0 0 142 (C1) n - 1
REM
REM in /home/bkarasulu/work/CARBON/AIRSS/Generating-Clusters/EDIP-Nigel-Params/with-SteepDescent/Only-C1/SD-CG/HFTN-CG
REM
REM
REM
REM
REM
REM ./C.cell (11c1c37f851c82e70ff6c80c92926a4b)
REM
REM compiler GCC version 9.2.1 20190827 (Red Hat 9.2.1-1)
REM options -cpp -mtune=generic -march=x86-64 -g -O0 -fpre-include=/usr/include/finclude/math-vector-fortran.h
REM seed 697398285 -1339586220 -1977179719 125729681 -362625996 -528356363 630175947 -2112554656 915348937 1578760475 255908412 909756009 2139616171 -401017487 -1145916597 1752227743 -1123733200 -834847182 1160768395 -148215503 -1892545839 581997388 -2145714087 -90358921 1493963703 -1324488519 -470702393 1948243363 -1671779001 941644857 1952616483 2058096559 -2093201352
REM
CELL 1.54180   50.00000   50.00000   50.00000   90.00000   90.00000   90.00000
LATT -1
SFAC C  
C      1  0.5533010000000  0.4611480000000  0.5759540000000 1.0
C      1  0.4345010000000  0.5216860000000  0.4313620000000 1.0
C      1  0.5004250000000  0.5512180000000  0.5525510000000 1.0
C      1  0.5276290000000  0.4715540000000  0.5857500000000 1.0
C      1  0.5424980000000  0.5672530000000  0.4625140000000 1.0
C      1  0.5139020000000  0.4271640000000  0.4777480000000 1.0
C      1  0.5531760000000  0.4396790000000  0.5539340000000 1.0
C      1  0.5519280000000  0.5277120000000  0.4359320000000 1.0
C      1  0.5673710000000  0.5751350000000  0.5168590000000 1.0
C      1  0.4826500000000  0.4226340000000  0.4333830000000 1.0
C      1  0.5429430000000  0.5041540000000  0.4551730000000 1.0
C      1  0.4836390000000  0.5380200000000  0.4934100000000 1.0
C      1  0.4494380000000  0.5273110000000  0.5801880000000 1.0
C      1  0.4688510000000  0.5532970000000  0.4719040000000 1.0
C      1  0.4825680000000  0.5267560000000  0.5602610000000 1.0
C      1  0.5873670000000  0.5274110000000  0.5104160000000 1.0
C      1  0.4577300000000  0.4847510000000  0.5383450000000 1.0
C      1  0.4206910000000  0.5442180000000  0.4439740000000 1.0
C      1  0.4135400000000  0.5489720000000  0.5201230000000 1.0
C      1  0.5883760000000  0.4858130000000  0.4485050000000 1.0
C      1  0.4349130000000  0.5640440000000  0.5057700000000 1.0
C      1  0.4800590000000  0.4662100000000  0.4402420000000 1.0
C      1  0.4884930000000  0.5095400000000  0.4849820000000 1.0
C      1  0.4488420000000  0.4990970000000  0.5794370000000 1.0
C      1  0.5486030000000  0.4652760000000  0.4232570000000 1.0
C      1  0.4265740000000  0.4566950000000  0.5656910000000 1.0
C      1  0.4822730000000  0.5751470000000  0.5504190000000 1.0
C      1  0.5104260000000  0.5514500000000  0.4980990000000 1.0
C      1  0.5857450000000  0.5235500000000  0.5418480000000 1.0
C      1  0.5799350000000  0.4352250000000  0.5121990000000 1.0
C      1  0.5264360000000  0.5962220000000  0.5027970000000 1.0
C      1  0.4750830000000  0.3873790000000  0.5234290000000 1.0
C      1  0.4383230000000  0.4489520000000  0.4237080000000 1.0
C      1  0.5372460000000  0.4408690000000  0.4339050000000 1.0
C      1  0.5415340000000  0.5675320000000  0.5686400000000 1.0
C      1  0.5224600000000  0.5531720000000  0.5257610000000 1.0
C      1  0.4580690000000  0.5650520000000  0.4197100000000 1.0
C      1  0.5289990000000  0.4788440000000  0.4065830000000 1.0
C      1  0.4607640000000  0.5716350000000  0.5229400000000 1.0
C      1  0.5195150000000  0.4572460000000  0.4734270000000 1.0
C      1  0.4209150000000  0.4979590000000  0.5403860000000 1.0
C      1  0.4739200000000  0.4899200000000  0.5912400000000 1.0
C      1  0.4262450000000  0.4963310000000  0.4173400000000 1.0
C      1  0.4961790000000  0.5367290000000  0.6016670000000 1.0
C      1  0.4951730000000  0.5114640000000  0.5843320000000 1.0
C      1  0.4606900000000  0.4433900000000  0.4417720000000 1.0
C      1  0.4216020000000  0.4498050000000  0.4782270000000 1.0
C      1  0.5511650000000  0.4597400000000  0.4713160000000 1.0
C      1  0.5154140000000  0.4971400000000  0.4441830000000 1.0
C      1  0.4647510000000  0.5336300000000  0.5163630000000 1.0
C      1  0.5296860000000  0.5093420000000  0.4098190000000 1.0
C      1  0.4689350000000  0.4961190000000  0.3888480000000 1.0
C      1  0.5422980000000  0.4164970000000  0.4785640000000 1.0
C      1  0.5395550000000  0.5796050000000  0.5237140000000 1.0
C      1  0.5062320000000  0.4539090000000  0.5823980000000 1.0
C      1  0.5754340000000  0.5345670000000  0.4532410000000 1.0
C      1  0.5237030000000  0.5000510000000  0.5770790000000 1.0
C      1  0.4764010000000  0.4491300000000  0.5029350000000 1.0
C      1  0.4813860000000  0.4006110000000  0.4996760000000 1.0
C      1  0.5437420000000  0.5327340000000  0.5305500000000 1.0
C      1  0.4394220000000  0.5699750000000  0.5684480000000 1.0
C      1  0.4692670000000  0.4576610000000  0.5557070000000 1.0
C      1  0.4776770000000  0.5574960000000  0.5951140000000 1.0
C      1  0.4256780000000  0.4846590000000  0.5674270000000 1.0
C      1  0.4792990000000  0.5377200000000  0.4469330000000 1.0
C      1  0.5682010000000  0.5560890000000  0.4716780000000 1.0
C      1  0.6012180000000  0.5083060000000  0.4893170000000 1.0
C      1  0.5796580000000  0.4343770000000  0.5418910000000 1.0
C      1  0.4858340000000  0.4743900000000  0.3852240000000 1.0
C      1  0.3992960000000  0.5344120000000  0.5000670000000 1.0
C      1  0.5314430000000  0.4226140000000  0.5466340000000 1.0
C      1  0.6003420000000  0.4515090000000  0.5513690000000 1.0
C      1  0.4501830000000  0.4603360000000  0.5164790000000 1.0
C      1  0.5782340000000  0.4938880000000  0.5477350000000 1.0
C      1  0.4604780000000  0.5342400000000  0.4217690000000 1.0
C      1  0.5105020000000  0.4663560000000  0.4445060000000 1.0
C      1  0.4512170000000  0.4801190000000  0.4705090000000 1.0
C      1  0.5203050000000  0.5760740000000  0.4810630000000 1.0
C      1  0.4766820000000  0.5817930000000  0.4758520000000 1.0
C      1  0.4788830000000  0.5193490000000  0.4029540000000 1.0
C      1  0.4158590000000  0.4323820000000  0.5254600000000 1.0
C      1  0.4201460000000  0.5166350000000  0.4901390000000 1.0
C      1  0.4869340000000  0.5699550000000  0.4254810000000 1.0
C      1  0.5968960000000  0.4746130000000  0.5355680000000 1.0
C      1  0.5854960000000  0.4663420000000  0.5090980000000 1.0
C      1  0.4213440000000  0.4552860000000  0.5088050000000 1.0
C      1  0.4788230000000  0.4622290000000  0.5834520000000 1.0
C      1  0.5921820000000  0.5119440000000  0.4616370000000 1.0
C      1  0.4319640000000  0.4354660000000  0.5484620000000 1.0
C      1  0.4998880000000  0.4363850000000  0.4140090000000 1.0
C      1  0.4488550000000  0.4425040000000  0.4695770000000 1.0
C      1  0.5338590000000  0.5902740000000  0.5509030000000 1.0
C      1  0.4662890000000  0.5747700000000  0.5755640000000 1.0
C      1  0.5570300000000  0.4798010000000  0.5045160000000 1.0
C      1  0.5041640000000  0.4254270000000  0.5361630000000 1.0
C      1  0.4000900000000  0.4959500000000  0.4946460000000 1.0
C      1  0.4448830000000  0.5125000000000  0.5064880000000 1.0
C      1  0.4964510000000  0.4251520000000  0.5038520000000 1.0
C      1  0.5564160000000  0.5287340000000  0.5038210000000 1.0
C      1  0.4321380000000  0.5431240000000  0.5654330000000 1.0
C      1  0.5031920000000  0.5976950000000  0.5463250000000 1.0
C      1  0.5004640000000  0.5887100000000  0.4633940000000 1.0
C      1  0.4365570000000  0.5682670000000  0.4402450000000 1.0
C      1  0.5337460000000  0.5511610000000  0.4392700000000 1.0
C      1  0.4150950000000  0.4722800000000  0.4606340000000 1.0
C      1  0.5442900000000  0.5151760000000  0.5903130000000 1.0
C      1  0.4960500000000  0.4105680000000  0.4577700000000 1.0
C      1  0.5580230000000  0.4216260000000  0.5010060000000 1.0
C      1  0.5105210000000  0.5529670000000  0.4206990000000 1.0
C      1  0.4789140000000  0.5119020000000  0.5351180000000 1.0
C      1  0.5730400000000  0.4844070000000  0.5761760000000 1.0
C      1  0.4801340000000  0.3925200000000  0.4729200000000 1.0
C      1  0.5822350000000  0.5589870000000  0.4985220000000 1.0
C      1  0.4232810000000  0.5300510000000  0.5410310000000 1.0
C      1  0.5528830000000  0.4892330000000  0.5332090000000 1.0
C      1  0.4978560000000  0.4537640000000  0.5443890000000 1.0
C      1  0.5637790000000  0.5425410000000  0.5506080000000 1.0
C      1  0.4421750000000  0.4915470000000  0.3946670000000 1.0
C      1  0.4807220000000  0.4064770000000  0.5437190000000 1.0
C      1  0.5005440000000  0.6034820000000  0.5165370000000 1.0
C      1  0.5589100000000  0.4792760000000  0.4483280000000 1.0
C      1  0.5053810000000  0.4616950000000  0.4005730000000 1.0
C      1  0.4769910000000  0.5887750000000  0.5045520000000 1.0
C      1  0.4570930000000  0.4214430000000  0.5527470000000 1.0
C      1  0.6042090000000  0.4784210000000  0.4891310000000 1.0
C      1  0.5075580000000  0.5080630000000  0.5266930000000 1.0
C      1  0.5173230000000  0.5544240000000  0.5765580000000 1.0
C      1  0.5685440000000  0.5045000000000  0.5953480000000 1.0
C      1  0.5142930000000  0.5013390000000  0.4984490000000 1.0
C      1  0.5139080000000  0.4727370000000  0.4988000000000 1.0
C      1  0.5540440000000  0.4325780000000  0.4569790000000 1.0
C      1  0.4681380000000  0.4901430000000  0.4487370000000 1.0
C      1  0.4890910000000  0.5095580000000  0.4553430000000 1.0
C      1  0.4388110000000  0.5539010000000  0.4759050000000 1.0
C      1  0.5438850000000  0.5054540000000  0.4886120000000 1.0
C      1  0.4067170000000  0.4806720000000  0.5180810000000 1.0
C      1  0.5069020000000  0.5280870000000  0.4049110000000 1.0
C      1  0.5281720000000  0.5002850000000  0.5458880000000 1.0
C      1  0.6040450000000  0.4674860000000  0.4630420000000 1.0
C      1  0.4933940000000  0.4672130000000  0.5179010000000 1.0
C      1  0.4634150000000  0.4912140000000  0.4960780000000 1.0
C      1  0.4219100000000  0.4708460000000  0.4322630000000 1.0
END
