TITL C-951335-1172-337 -3.20988911310171e-07 125000 -873.522546074791 0 0 141 (C1) n - 1
REM
REM in /home/bkarasulu/work/CARBON/AIRSS/Generating-Clusters/EDIP-Nigel-Params/with-SteepDescent/Only-C1/SD-CG/HFTN-CG
REM
REM
REM
REM
REM
REM ./C.cell (11c1c37f851c82e70ff6c80c92926a4b)
REM
REM compiler GCC version 9.2.1 20190827 (Red Hat 9.2.1-1)
REM options -cpp -mtune=generic -march=x86-64 -g -O0 -fpre-include=/usr/include/finclude/math-vector-fortran.h
REM seed -968819340 -1511495308 -156861377 -1751128594 161284264 1779659080 -840804123 -1941291255 -2015827674 -1214817153 1823857186 -80320312 -1238909006 1106791099 -1388535861 -16158468 1327006700 -876586452 -838879067 -1003686073 1817037450 378331954 229745204 -169283750 -2105274317 -1934956796 -869319208 -1964881084 -272114446 -1594768304 683011444 1894266442 -858870397
REM
CELL 1.54180   50.00000   50.00000   50.00000   90.00000   90.00000   90.00000
LATT -1
SFAC C  
C      1  0.5237680000000  0.4763050000000  0.5821360000000 1.0
C      1  0.5126220000000  0.4144000000000  0.5225790000000 1.0
C      1  0.5204520000000  0.4470860000000  0.4885370000000 1.0
C      1  0.4934630000000  0.4273210000000  0.5714120000000 1.0
C      1  0.4208430000000  0.5262160000000  0.5749500000000 1.0
C      1  0.4659500000000  0.5202860000000  0.5973770000000 1.0
C      1  0.4834680000000  0.4770470000000  0.4717940000000 1.0
C      1  0.5747470000000  0.4856430000000  0.4388820000000 1.0
C      1  0.5179070000000  0.6062280000000  0.4446710000000 1.0
C      1  0.5728510000000  0.4502780000000  0.5383250000000 1.0
C      1  0.5679310000000  0.4571530000000  0.4410960000000 1.0
C      1  0.4929580000000  0.4829510000000  0.4422020000000 1.0
C      1  0.5190930000000  0.4947170000000  0.5329980000000 1.0
C      1  0.4007660000000  0.4940400000000  0.5105140000000 1.0
C      1  0.5633720000000  0.5438460000000  0.5542600000000 1.0
C      1  0.4805350000000  0.4683800000000  0.5151100000000 1.0
C      1  0.5099520000000  0.5531680000000  0.4121640000000 1.0
C      1  0.4941220000000  0.5726250000000  0.5627690000000 1.0
C      1  0.5046310000000  0.4639250000000  0.5338440000000 1.0
C      1  0.4697340000000  0.4925320000000  0.3867300000000 1.0
C      1  0.5843180000000  0.5525790000000  0.4847390000000 1.0
C      1  0.5225390000000  0.4258960000000  0.5710580000000 1.0
C      1  0.4061710000000  0.4983860000000  0.4595810000000 1.0
C      1  0.4872030000000  0.5377380000000  0.4644280000000 1.0
C      1  0.5700240000000  0.5152070000000  0.5471780000000 1.0
C      1  0.5888340000000  0.5442500000000  0.5129970000000 1.0
C      1  0.4793780000000  0.5834300000000  0.5223690000000 1.0
C      1  0.5557820000000  0.5440470000000  0.4235120000000 1.0
C      1  0.4807070000000  0.4697410000000  0.3969150000000 1.0
C      1  0.4103190000000  0.5378590000000  0.4888550000000 1.0
C      1  0.5018760000000  0.5210680000000  0.5306170000000 1.0
C      1  0.5790120000000  0.5442280000000  0.4369350000000 1.0
C      1  0.4300380000000  0.4840190000000  0.5552000000000 1.0
C      1  0.5999490000000  0.4968290000000  0.5102070000000 1.0
C      1  0.4254380000000  0.4493460000000  0.4568760000000 1.0
C      1  0.5447080000000  0.5730410000000  0.4649400000000 1.0
C      1  0.6000400000000  0.4572460000000  0.4802080000000 1.0
C      1  0.4508030000000  0.5687650000000  0.4762450000000 1.0
C      1  0.5264260000000  0.4395790000000  0.5179050000000 1.0
C      1  0.5563960000000  0.5861690000000  0.5208970000000 1.0
C      1  0.5146320000000  0.5478780000000  0.5221340000000 1.0
C      1  0.4244560000000  0.5102380000000  0.4397450000000 1.0
C      1  0.4755560000000  0.4697320000000  0.5764970000000 1.0
C      1  0.4893180000000  0.4508290000000  0.4899420000000 1.0
C      1  0.5730460000000  0.5618370000000  0.5318970000000 1.0
C      1  0.5271750000000  0.4943800000000  0.5031570000000 1.0
C      1  0.5815810000000  0.4430670000000  0.4625430000000 1.0
C      1  0.5342150000000  0.4726250000000  0.4847280000000 1.0
C      1  0.4931420000000  0.5966350000000  0.4826290000000 1.0
C      1  0.4441780000000  0.4860940000000  0.4405300000000 1.0
C      1  0.5969420000000  0.4865040000000  0.4836830000000 1.0
C      1  0.4700710000000  0.5548460000000  0.5697740000000 1.0
C      1  0.4942730000000  0.5134230000000  0.5893820000000 1.0
C      1  0.4836030000000  0.5174270000000  0.5076020000000 1.0
C      1  0.5418320000000  0.6006530000000  0.4584030000000 1.0
C      1  0.5399770000000  0.4475420000000  0.4381420000000 1.0
C      1  0.5325800000000  0.5903070000000  0.5383890000000 1.0
C      1  0.5217760000000  0.5248400000000  0.5810070000000 1.0
C      1  0.3947420000000  0.5483300000000  0.5092750000000 1.0
C      1  0.4465800000000  0.4977000000000  0.6062300000000 1.0
C      1  0.4618240000000  0.5389510000000  0.4094400000000 1.0
C      1  0.5765590000000  0.4224060000000  0.5013690000000 1.0
C      1  0.4868770000000  0.4161670000000  0.5066180000000 1.0
C      1  0.5784310000000  0.5163710000000  0.5174820000000 1.0
C      1  0.5353130000000  0.4527500000000  0.5686980000000 1.0
C      1  0.4968890000000  0.4843750000000  0.5895960000000 1.0
C      1  0.4465690000000  0.4141760000000  0.4885170000000 1.0
C      1  0.5644430000000  0.4558780000000  0.5649880000000 1.0
C      1  0.6007350000000  0.4529460000000  0.5305080000000 1.0
C      1  0.4038950000000  0.5357540000000  0.5326830000000 1.0
C      1  0.5772660000000  0.4794560000000  0.5744370000000 1.0
C      1  0.5166250000000  0.4054100000000  0.5496690000000 1.0
C      1  0.4925080000000  0.4599470000000  0.4214280000000 1.0
C      1  0.5712560000000  0.4186790000000  0.4733780000000 1.0
C      1  0.4146540000000  0.5083380000000  0.4869260000000 1.0
C      1  0.5199420000000  0.5651780000000  0.5484130000000 1.0
C      1  0.5452940000000  0.4982320000000  0.5498530000000 1.0
C      1  0.5908500000000  0.5340370000000  0.4602780000000 1.0
C      1  0.4612310000000  0.4185370000000  0.5224420000000 1.0
C      1  0.4514080000000  0.5689140000000  0.4479220000000 1.0
C      1  0.5891610000000  0.5027400000000  0.5654430000000 1.0
C      1  0.5553710000000  0.5627530000000  0.4901890000000 1.0
C      1  0.3909090000000  0.4674480000000  0.5112430000000 1.0
C      1  0.4532500000000  0.4813900000000  0.4700400000000 1.0
C      1  0.5103730000000  0.6047280000000  0.5262180000000 1.0
C      1  0.4856210000000  0.3924830000000  0.4867950000000 1.0
C      1  0.4656880000000  0.4049500000000  0.4693560000000 1.0
C      1  0.5088010000000  0.4110320000000  0.4540040000000 1.0
C      1  0.4453960000000  0.4479470000000  0.4352480000000 1.0
C      1  0.5274450000000  0.5089360000000  0.4062810000000 1.0
C      1  0.5225960000000  0.4577960000000  0.4174130000000 1.0
C      1  0.5413700000000  0.6034550000000  0.4892440000000 1.0
C      1  0.5302670000000  0.5348980000000  0.4176850000000 1.0
C      1  0.4835080000000  0.5567140000000  0.4072420000000 1.0
C      1  0.4898720000000  0.5637750000000  0.5897680000000 1.0
C      1  0.4029620000000  0.4969740000000  0.5586480000000 1.0
C      1  0.5831240000000  0.5033400000000  0.4626690000000 1.0
C      1  0.4617660000000  0.4970720000000  0.5143250000000 1.0
C      1  0.5375830000000  0.5418730000000  0.5022010000000 1.0
C      1  0.5089610000000  0.3885290000000  0.4711330000000 1.0
C      1  0.5179510000000  0.5009820000000  0.4431810000000 1.0
C      1  0.4265660000000  0.4328280000000  0.4810800000000 1.0
C      1  0.4828620000000  0.4499700000000  0.5559940000000 1.0
C      1  0.4634360000000  0.5222060000000  0.4563110000000 1.0
C      1  0.4571620000000  0.4410850000000  0.5407350000000 1.0
C      1  0.4946940000000  0.5651140000000  0.5048290000000 1.0
C      1  0.5312050000000  0.4279840000000  0.4575030000000 1.0
C      1  0.4397490000000  0.5342730000000  0.5949110000000 1.0
C      1  0.4062510000000  0.4331980000000  0.5007470000000 1.0
C      1  0.5322790000000  0.4816960000000  0.4069130000000 1.0
C      1  0.5498790000000  0.5150170000000  0.4995510000000 1.0
C      1  0.4073630000000  0.4483030000000  0.5256630000000 1.0
C      1  0.3927950000000  0.5089920000000  0.5342960000000 1.0
C      1  0.4467950000000  0.5403360000000  0.4364730000000 1.0
C      1  0.4465540000000  0.5053910000000  0.5405270000000 1.0
C      1  0.5559050000000  0.5092740000000  0.4712620000000 1.0
C      1  0.4829360000000  0.4239050000000  0.4554850000000 1.0
C      1  0.4927380000000  0.5991760000000  0.4543840000000 1.0
C      1  0.5386160000000  0.5007650000000  0.5783000000000 1.0
C      1  0.4705360000000  0.5007820000000  0.4339670000000 1.0
C      1  0.5413680000000  0.4866580000000  0.4583130000000 1.0
C      1  0.4331010000000  0.4789850000000  0.5857890000000 1.0
C      1  0.5364890000000  0.5482250000000  0.5664780000000 1.0
C      1  0.4338190000000  0.5514060000000  0.4877080000000 1.0
C      1  0.6111810000000  0.4790620000000  0.5287980000000 1.0
C      1  0.4541500000000  0.5738910000000  0.5293250000000 1.0
C      1  0.4063090000000  0.4701850000000  0.4568370000000 1.0
C      1  0.4542560000000  0.4617250000000  0.5930050000000 1.0
C      1  0.4723140000000  0.5118540000000  0.4070050000000 1.0
C      1  0.4310900000000  0.5317960000000  0.5475430000000 1.0
C      1  0.5138410000000  0.6088910000000  0.4980790000000 1.0
C      1  0.4459220000000  0.5036620000000  0.4870270000000 1.0
C      1  0.6017850000000  0.4388520000000  0.5043080000000 1.0
C      1  0.5010470000000  0.5023240000000  0.4877520000000 1.0
C      1  0.4323770000000  0.4579900000000  0.5387220000000 1.0
C      1  0.5570570000000  0.4337810000000  0.5210790000000 1.0
C      1  0.5102490000000  0.5202980000000  0.4658170000000 1.0
C      1  0.4731960000000  0.4393760000000  0.4334850000000 1.0
C      1  0.4730340000000  0.5852300000000  0.4398500000000 1.0
C      1  0.4491430000000  0.5557180000000  0.5495890000000 1.0
C      1  0.4766100000000  0.5450210000000  0.4918810000000 1.0
END
