TITL C-951346-9544-688 -3.52374846477863e-06 125000 -1014.90377956803 0 0 163 (C1) n - 1
REM
REM in /home/bkarasulu/work/CARBON/AIRSS/Generating-Clusters/EDIP-Nigel-Params/with-SteepDescent/Only-C1/SD-CG/HFTN-CG
REM
REM
REM
REM
REM
REM ./C.cell (11c1c37f851c82e70ff6c80c92926a4b)
REM
REM compiler GCC version 9.2.1 20190827 (Red Hat 9.2.1-1)
REM options -cpp -mtune=generic -march=x86-64 -g -O0 -fpre-include=/usr/include/finclude/math-vector-fortran.h
REM seed -1475054852 1284564882 1039870918 -1648448751 -302607081 -1912400749 1877316211 1847866177 -269635355 1379470238 -1043209737 -1944147872 -276902162 -217116563 -1692192265 -9076923 -163697012 1843825912 2049492519 -564417765 314966345 -1173306558 1573675594 1425771180 -1745221526 -1488047670 2138906266 -463454474 1196977855 -719379206 1336384403 1230954876 692158132
REM
CELL 1.54180   50.00000   50.00000   50.00000   90.00000   90.00000   90.00000
LATT -1
SFAC C  
C      1  0.5586540000000  0.4516460000000  0.5787130000000 1.0
C      1  0.4488130000000  0.4820120000000  0.4765140000000 1.0
C      1  0.5087990000000  0.4383680000000  0.4898910000000 1.0
C      1  0.5304690000000  0.4416720000000  0.4131670000000 1.0
C      1  0.6046220000000  0.4766420000000  0.5188750000000 1.0
C      1  0.4814270000000  0.5258960000000  0.4468410000000 1.0
C      1  0.5365290000000  0.5998400000000  0.5093660000000 1.0
C      1  0.4043930000000  0.4915000000000  0.5249080000000 1.0
C      1  0.4497720000000  0.4862870000000  0.4470490000000 1.0
C      1  0.4864140000000  0.5093670000000  0.5728160000000 1.0
C      1  0.5763660000000  0.5168260000000  0.5267700000000 1.0
C      1  0.5302180000000  0.5106110000000  0.5553960000000 1.0
C      1  0.4413660000000  0.4769970000000  0.5864100000000 1.0
C      1  0.4655760000000  0.4510450000000  0.5107860000000 1.0
C      1  0.3924350000000  0.4814160000000  0.4452490000000 1.0
C      1  0.5081770000000  0.5546040000000  0.5675100000000 1.0
C      1  0.4687350000000  0.5651160000000  0.4799540000000 1.0
C      1  0.4819420000000  0.4213000000000  0.5285580000000 1.0
C      1  0.5424250000000  0.4736470000000  0.4921290000000 1.0
C      1  0.5558260000000  0.4692610000000  0.5539300000000 1.0
C      1  0.5008690000000  0.4144220000000  0.5504220000000 1.0
C      1  0.5886550000000  0.5705990000000  0.5184400000000 1.0
C      1  0.4278920000000  0.4905840000000  0.5627740000000 1.0
C      1  0.4160280000000  0.4422540000000  0.5270580000000 1.0
C      1  0.4380420000000  0.5640000000000  0.4269600000000 1.0
C      1  0.5351680000000  0.5435350000000  0.4604130000000 1.0
C      1  0.5302900000000  0.5948790000000  0.4638270000000 1.0
C      1  0.5133340000000  0.4521030000000  0.5237990000000 1.0
C      1  0.5307420000000  0.6137460000000  0.4851710000000 1.0
C      1  0.5499590000000  0.4133370000000  0.5552700000000 1.0
C      1  0.4808330000000  0.5566220000000  0.5260550000000 1.0
C      1  0.4979580000000  0.5402140000000  0.4263330000000 1.0
C      1  0.6060860000000  0.5174160000000  0.5016120000000 1.0
C      1  0.4553420000000  0.4973100000000  0.6025180000000 1.0
C      1  0.4594550000000  0.5892430000000  0.4650370000000 1.0
C      1  0.4444730000000  0.4274580000000  0.4881720000000 1.0
C      1  0.4004650000000  0.4871650000000  0.4712200000000 1.0
C      1  0.4918980000000  0.5035680000000  0.3873900000000 1.0
C      1  0.6231660000000  0.4975780000000  0.5148380000000 1.0
C      1  0.5968690000000  0.5351310000000  0.5425260000000 1.0
C      1  0.4703140000000  0.4627810000000  0.4837830000000 1.0
C      1  0.4923560000000  0.4503910000000  0.4682990000000 1.0
C      1  0.5707660000000  0.5252190000000  0.4275770000000 1.0
C      1  0.5535850000000  0.4695120000000  0.6013230000000 1.0
C      1  0.6088330000000  0.5449760000000  0.5163990000000 1.0
C      1  0.5600800000000  0.5370060000000  0.4753470000000 1.0
C      1  0.5077910000000  0.4621120000000  0.5519440000000 1.0
C      1  0.4340220000000  0.4212260000000  0.5162690000000 1.0
C      1  0.4254630000000  0.5803430000000  0.5111200000000 1.0
C      1  0.4916120000000  0.5710560000000  0.4320300000000 1.0
C      1  0.4540100000000  0.4189980000000  0.5381290000000 1.0
C      1  0.5556140000000  0.5465150000000  0.4161450000000 1.0
C      1  0.4065080000000  0.5403780000000  0.5266360000000 1.0
C      1  0.4998330000000  0.4665820000000  0.6048650000000 1.0
C      1  0.4989160000000  0.5211460000000  0.6010500000000 1.0
C      1  0.4310010000000  0.5196430000000  0.4242290000000 1.0
C      1  0.5728340000000  0.5665610000000  0.4719540000000 1.0
C      1  0.4396940000000  0.5167820000000  0.5605130000000 1.0
C      1  0.6048720000000  0.4683430000000  0.4706700000000 1.0
C      1  0.4701940000000  0.4776780000000  0.5260750000000 1.0
C      1  0.4010310000000  0.4895560000000  0.5532160000000 1.0
C      1  0.5378600000000  0.4538460000000  0.4393260000000 1.0
C      1  0.4772950000000  0.4279530000000  0.4514180000000 1.0
C      1  0.4478920000000  0.4976110000000  0.5197750000000 1.0
C      1  0.6063060000000  0.5182310000000  0.4704410000000 1.0
C      1  0.5447670000000  0.5676200000000  0.4314190000000 1.0
C      1  0.4632020000000  0.4104430000000  0.4712790000000 1.0
C      1  0.4705160000000  0.5952460000000  0.5258040000000 1.0
C      1  0.4048890000000  0.5154210000000  0.4777120000000 1.0
C      1  0.5114410000000  0.4696590000000  0.4493760000000 1.0
C      1  0.5143120000000  0.5481620000000  0.5956080000000 1.0
C      1  0.4636740000000  0.5421520000000  0.3921730000000 1.0
C      1  0.5087480000000  0.5883320000000  0.4467100000000 1.0
C      1  0.4373450000000  0.5709360000000  0.5601680000000 1.0
C      1  0.5273050000000  0.5275980000000  0.4343360000000 1.0
C      1  0.4940080000000  0.4748300000000  0.4261750000000 1.0
C      1  0.4210920000000  0.4694010000000  0.4832820000000 1.0
C      1  0.4159910000000  0.4678860000000  0.5125290000000 1.0
C      1  0.5720370000000  0.4905600000000  0.5974800000000 1.0
C      1  0.4534330000000  0.5198540000000  0.5359050000000 1.0
C      1  0.4177990000000  0.4427070000000  0.5556260000000 1.0
C      1  0.5898620000000  0.4750590000000  0.4944850000000 1.0
C      1  0.4585070000000  0.5528350000000  0.5824140000000 1.0
C      1  0.5308130000000  0.5701440000000  0.5540390000000 1.0
C      1  0.4985360000000  0.5174880000000  0.4696700000000 1.0
C      1  0.4630420000000  0.5861080000000  0.5534700000000 1.0
C      1  0.5512600000000  0.5259160000000  0.5698250000000 1.0
C      1  0.4510740000000  0.5922220000000  0.5025780000000 1.0
C      1  0.5831360000000  0.5327430000000  0.4556520000000 1.0
C      1  0.5392100000000  0.4294130000000  0.5759060000000 1.0
C      1  0.4534850000000  0.5087670000000  0.4923590000000 1.0
C      1  0.4641560000000  0.4694000000000  0.4254890000000 1.0
C      1  0.4461990000000  0.5453800000000  0.4907530000000 1.0
C      1  0.5517150000000  0.5395070000000  0.5188110000000 1.0
C      1  0.5230500000000  0.5320670000000  0.5084800000000 1.0
C      1  0.4039120000000  0.5173650000000  0.5093960000000 1.0
C      1  0.5720720000000  0.4375820000000  0.4732870000000 1.0
C      1  0.4977110000000  0.5306220000000  0.5256670000000 1.0
C      1  0.4887730000000  0.5316240000000  0.3982390000000 1.0
C      1  0.5213590000000  0.5745470000000  0.5018190000000 1.0
C      1  0.5751710000000  0.5077350000000  0.5752520000000 1.0
C      1  0.5701830000000  0.4915180000000  0.4554330000000 1.0
C      1  0.4885430000000  0.4445660000000  0.5892750000000 1.0
C      1  0.5545040000000  0.5823490000000  0.4539720000000 1.0
C      1  0.5672720000000  0.4563870000000  0.4957700000000 1.0
C      1  0.4285320000000  0.5596880000000  0.5327590000000 1.0
C      1  0.4900450000000  0.5718900000000  0.5015820000000 1.0
C      1  0.4585730000000  0.5214440000000  0.5820240000000 1.0
C      1  0.4503490000000  0.4781560000000  0.3999360000000 1.0
C      1  0.5149640000000  0.3932800000000  0.5229560000000 1.0
C      1  0.5462470000000  0.4954500000000  0.4742640000000 1.0
C      1  0.4098250000000  0.5290000000000  0.4486830000000 1.0
C      1  0.5366740000000  0.4061790000000  0.5081800000000 1.0
C      1  0.5270940000000  0.4176430000000  0.4800680000000 1.0
C      1  0.5226880000000  0.4608510000000  0.3936300000000 1.0
C      1  0.5093080000000  0.4842690000000  0.4032660000000 1.0
C      1  0.4806260000000  0.5674650000000  0.5685120000000 1.0
C      1  0.4528050000000  0.5452660000000  0.5216870000000 1.0
C      1  0.4258210000000  0.4915900000000  0.4101030000000 1.0
C      1  0.4932230000000  0.4893510000000  0.5108210000000 1.0
C      1  0.4801150000000  0.4759110000000  0.5558110000000 1.0
C      1  0.4628660000000  0.4569800000000  0.5746130000000 1.0
C      1  0.5194830000000  0.4761220000000  0.5100180000000 1.0
C      1  0.5604760000000  0.4733670000000  0.4329180000000 1.0
C      1  0.5534440000000  0.5506870000000  0.5488770000000 1.0
C      1  0.4156560000000  0.5579220000000  0.4453550000000 1.0
C      1  0.5634430000000  0.5656520000000  0.5027790000000 1.0
C      1  0.5936540000000  0.4459250000000  0.4572690000000 1.0
C      1  0.4664010000000  0.4925990000000  0.3823380000000 1.0
C      1  0.4105430000000  0.5754260000000  0.4664030000000 1.0
C      1  0.5095960000000  0.3978450000000  0.4639140000000 1.0
C      1  0.4288440000000  0.4451370000000  0.4420900000000 1.0
C      1  0.4395410000000  0.5431290000000  0.4062240000000 1.0
C      1  0.4787010000000  0.4841900000000  0.6120720000000 1.0
C      1  0.4571860000000  0.4412110000000  0.4327580000000 1.0
C      1  0.5819840000000  0.5613040000000  0.5475660000000 1.0
C      1  0.5251400000000  0.5074690000000  0.6083120000000 1.0
C      1  0.5213490000000  0.4990490000000  0.4579430000000 1.0
C      1  0.4165020000000  0.4727020000000  0.4325510000000 1.0
C      1  0.5408100000000  0.5329430000000  0.5974350000000 1.0
C      1  0.5769720000000  0.4935360000000  0.5493940000000 1.0
C      1  0.4628110000000  0.5779490000000  0.4380950000000 1.0
C      1  0.6021490000000  0.4928840000000  0.4556670000000 1.0
C      1  0.5262370000000  0.4804050000000  0.5948670000000 1.0
C      1  0.5052010000000  0.5260480000000  0.5546010000000 1.0
C      1  0.5096800000000  0.4364860000000  0.5685580000000 1.0
C      1  0.5259130000000  0.5923340000000  0.5360640000000 1.0
C      1  0.4452830000000  0.4365660000000  0.5598930000000 1.0
C      1  0.5136720000000  0.5408680000000  0.4806750000000 1.0
C      1  0.5898880000000  0.4585540000000  0.5378810000000 1.0
C      1  0.5288860000000  0.4817720000000  0.5631790000000 1.0
C      1  0.4551200000000  0.5139950000000  0.4413910000000 1.0
C      1  0.4896560000000  0.3895800000000  0.5090790000000 1.0
C      1  0.4851290000000  0.3920750000000  0.4805960000000 1.0
C      1  0.4981620000000  0.4099610000000  0.4386720000000 1.0
C      1  0.5698270000000  0.4432360000000  0.5218720000000 1.0
C      1  0.5150640000000  0.4193110000000  0.4184620000000 1.0
C      1  0.4238110000000  0.4419690000000  0.4714250000000 1.0
C      1  0.4183880000000  0.5613940000000  0.4893790000000 1.0
C      1  0.5542510000000  0.4194830000000  0.5281390000000 1.0
C      1  0.4835840000000  0.5114040000000  0.4950070000000 1.0
C      1  0.5468800000000  0.4314150000000  0.4602050000000 1.0
C      1  0.5576530000000  0.4998700000000  0.4203530000000 1.0
END
