TITL C-950534-5965-308 -2.89854994871514e-06 125000 -505.667324326502 0 0 83 (C1) n - 1
REM
REM in /home/bkarasulu/work/CARBON/AIRSS/Generating-Clusters/EDIP-Nigel-Params/with-SteepDescent/Only-C1/SD-CG/HFTN-CG
REM
REM
REM
REM
REM
REM ./C.cell (11c1c37f851c82e70ff6c80c92926a4b)
REM
REM compiler GCC version 9.2.1 20190827 (Red Hat 9.2.1-1)
REM options -cpp -mtune=generic -march=x86-64 -g -O0 -fpre-include=/usr/include/finclude/math-vector-fortran.h
REM seed -1149115989 -1283567248 -1400942482 813089231 582953605 -1008187667 -1687447306 -83701894 2018223253 1883708778 -2074448572 358309128 1296581309 1862764061 -630352985 1789901923 1108469468 752465263 1965776599 908983493 779241802 1088034678 -943888460 1905951467 1466607136 -79709096 -1745182666 1990281976 1020894097 185040226 -1969975700 -1171688409 -1699773531
REM
CELL 1.54180   50.00000   50.00000   50.00000   90.00000   90.00000   90.00000
LATT -1
SFAC C  
C      1  0.4615620000000  0.4479250000000  0.4883220000000 1.0
C      1  0.5071510000000  0.4991430000000  0.5898000000000 1.0
C      1  0.4884690000000  0.5720490000000  0.5048800000000 1.0
C      1  0.5075290000000  0.4480670000000  0.5644350000000 1.0
C      1  0.5086760000000  0.5476370000000  0.5758860000000 1.0
C      1  0.5126180000000  0.4175070000000  0.5283020000000 1.0
C      1  0.4861240000000  0.4875010000000  0.4918310000000 1.0
C      1  0.4562620000000  0.5084250000000  0.4416240000000 1.0
C      1  0.4227740000000  0.5420580000000  0.5250940000000 1.0
C      1  0.4938860000000  0.4921150000000  0.4167590000000 1.0
C      1  0.5087210000000  0.4224330000000  0.4774180000000 1.0
C      1  0.5361030000000  0.5652420000000  0.5391340000000 1.0
C      1  0.4414220000000  0.4667510000000  0.5330350000000 1.0
C      1  0.5224200000000  0.4669630000000  0.5241200000000 1.0
C      1  0.5354300000000  0.5357280000000  0.5763960000000 1.0
C      1  0.5239540000000  0.4143210000000  0.5010440000000 1.0
C      1  0.4387950000000  0.5173760000000  0.5240000000000 1.0
C      1  0.5827560000000  0.5098800000000  0.5208220000000 1.0
C      1  0.4338730000000  0.4939250000000  0.5435270000000 1.0
C      1  0.5536120000000  0.5399780000000  0.5075290000000 1.0
C      1  0.5583260000000  0.4543890000000  0.4821850000000 1.0
C      1  0.5415540000000  0.4919850000000  0.5445690000000 1.0
C      1  0.4237350000000  0.4773480000000  0.4619790000000 1.0
C      1  0.4848100000000  0.5412620000000  0.4207690000000 1.0
C      1  0.4614770000000  0.4245390000000  0.4705110000000 1.0
C      1  0.4916290000000  0.5234660000000  0.5830000000000 1.0
C      1  0.5383510000000  0.4829070000000  0.5729480000000 1.0
C      1  0.5858060000000  0.4826820000000  0.5125460000000 1.0
C      1  0.5343310000000  0.5295430000000  0.4324050000000 1.0
C      1  0.4723190000000  0.4706020000000  0.4705810000000 1.0
C      1  0.4234630000000  0.4817800000000  0.4897970000000 1.0
C      1  0.4315810000000  0.5088130000000  0.4966310000000 1.0
C      1  0.5639680000000  0.4640340000000  0.5094680000000 1.0
C      1  0.4592220000000  0.5551420000000  0.4664990000000 1.0
C      1  0.5076290000000  0.5581930000000  0.5464440000000 1.0
C      1  0.5423230000000  0.5019340000000  0.4240200000000 1.0
C      1  0.4900020000000  0.4742830000000  0.5196570000000 1.0
C      1  0.4357790000000  0.5270430000000  0.4356250000000 1.0
C      1  0.5024800000000  0.5185010000000  0.4612780000000 1.0
C      1  0.5105970000000  0.4930560000000  0.4764910000000 1.0
C      1  0.5001890000000  0.5326480000000  0.5306880000000 1.0
C      1  0.4847990000000  0.5146380000000  0.4353300000000 1.0
C      1  0.5274710000000  0.4402670000000  0.5412280000000 1.0
C      1  0.4862880000000  0.5761880000000  0.5345090000000 1.0
C      1  0.5572590000000  0.4399000000000  0.5256260000000 1.0
C      1  0.5305920000000  0.5211510000000  0.5135600000000 1.0
C      1  0.5460440000000  0.4728340000000  0.4617460000000 1.0
C      1  0.5190720000000  0.4572120000000  0.4910150000000 1.0
C      1  0.5685750000000  0.5163630000000  0.4622360000000 1.0
C      1  0.4429780000000  0.5613650000000  0.5180630000000 1.0
C      1  0.4917920000000  0.4563170000000  0.4501090000000 1.0
C      1  0.5141670000000  0.5505040000000  0.4228440000000 1.0
C      1  0.4688450000000  0.5322240000000  0.5390780000000 1.0
C      1  0.5129230000000  0.5576570000000  0.4966590000000 1.0
C      1  0.5627330000000  0.5032250000000  0.4890590000000 1.0
C      1  0.5506270000000  0.5385580000000  0.4551790000000 1.0
C      1  0.5102540000000  0.4762700000000  0.5719600000000 1.0
C      1  0.4610240000000  0.5622020000000  0.5413390000000 1.0
C      1  0.4626080000000  0.5623620000000  0.4950770000000 1.0
C      1  0.5612070000000  0.4928190000000  0.4455890000000 1.0
C      1  0.4841350000000  0.4253430000000  0.5294350000000 1.0
C      1  0.4699750000000  0.4684320000000  0.5439530000000 1.0
C      1  0.5331540000000  0.4986320000000  0.4954370000000 1.0
C      1  0.5531290000000  0.5419840000000  0.5536160000000 1.0
C      1  0.4802110000000  0.4417460000000  0.5544480000000 1.0
C      1  0.4371190000000  0.4600810000000  0.5041580000000 1.0
C      1  0.4678160000000  0.5197620000000  0.5658030000000 1.0
C      1  0.5067290000000  0.5674640000000  0.4483010000000 1.0
C      1  0.5632390000000  0.5141080000000  0.5420540000000 1.0
C      1  0.4858740000000  0.4455730000000  0.5069850000000 1.0
C      1  0.4342310000000  0.5426700000000  0.4589950000000 1.0
C      1  0.4538230000000  0.4948720000000  0.5653640000000 1.0
C      1  0.4503170000000  0.4835340000000  0.4547260000000 1.0
C      1  0.5211410000000  0.4796180000000  0.4215080000000 1.0
C      1  0.5160350000000  0.5463740000000  0.4683720000000 1.0
C      1  0.5385810000000  0.5640940000000  0.5096460000000 1.0
C      1  0.4843030000000  0.4654070000000  0.4229000000000 1.0
C      1  0.4768620000000  0.5631330000000  0.4433450000000 1.0
C      1  0.5194320000000  0.5137960000000  0.5501320000000 1.0
C      1  0.4221290000000  0.5292370000000  0.4801360000000 1.0
C      1  0.5218520000000  0.4634610000000  0.4473020000000 1.0
C      1  0.4872930000000  0.4273180000000  0.4584660000000 1.0
C      1  0.5516570000000  0.4221360000000  0.5026590000000 1.0
END
