TITL C-950534-5965-105 3.23506934110931e-08 125000 -968.923455895841 0 0 156 (C1) n - 1
REM
REM in /home/bkarasulu/work/CARBON/AIRSS/Generating-Clusters/EDIP-Nigel-Params/with-SteepDescent/Only-C1/SD-CG/HFTN-CG
REM
REM
REM
REM
REM
REM ./C.cell (11c1c37f851c82e70ff6c80c92926a4b)
REM
REM compiler GCC version 9.2.1 20190827 (Red Hat 9.2.1-1)
REM options -cpp -mtune=generic -march=x86-64 -g -O0 -fpre-include=/usr/include/finclude/math-vector-fortran.h
REM seed -456891010 -1566105816 45777067 -1091433127 -1313601717 2098057501 1953331648 -825478919 -1979864333 -1893201021 984815079 1468017349 -398381188 432585732 -1177554021 -1589185529 -1842409020 89397397 -899112556 209285354 -1820968566 -1468326145 1180320568 1339823733 -1140014055 432263597 -1548852438 1727138065 191471237 -1451917074 -957572949 -1567153888 -1246527690
REM
CELL 1.54180   50.00000   50.00000   50.00000   90.00000   90.00000   90.00000
LATT -1
SFAC C  
C      1  0.5068500000000  0.5125680000000  0.4103830000000 1.0
C      1  0.4648430000000  0.3971820000000  0.4425720000000 1.0
C      1  0.5638070000000  0.5348180000000  0.4331200000000 1.0
C      1  0.5011720000000  0.3941170000000  0.5036650000000 1.0
C      1  0.4618340000000  0.4909100000000  0.5872180000000 1.0
C      1  0.4839070000000  0.5895020000000  0.5468160000000 1.0
C      1  0.4029270000000  0.5012600000000  0.5473470000000 1.0
C      1  0.5149930000000  0.4159280000000  0.4623680000000 1.0
C      1  0.4801370000000  0.5606690000000  0.4108970000000 1.0
C      1  0.5257650000000  0.4270120000000  0.5650610000000 1.0
C      1  0.4215510000000  0.5203500000000  0.5901080000000 1.0
C      1  0.5244630000000  0.5585840000000  0.4085700000000 1.0
C      1  0.5167450000000  0.5795020000000  0.4542430000000 1.0
C      1  0.5333690000000  0.4396070000000  0.5896320000000 1.0
C      1  0.5300380000000  0.5968590000000  0.4967860000000 1.0
C      1  0.4396760000000  0.5781400000000  0.5318750000000 1.0
C      1  0.4671750000000  0.4231330000000  0.4317430000000 1.0
C      1  0.5045220000000  0.5453710000000  0.4961790000000 1.0
C      1  0.5734500000000  0.4905270000000  0.4154580000000 1.0
C      1  0.4967030000000  0.4639040000000  0.4837190000000 1.0
C      1  0.4285670000000  0.5451900000000  0.4872530000000 1.0
C      1  0.5947940000000  0.5440250000000  0.5202280000000 1.0
C      1  0.4617310000000  0.5780660000000  0.4239710000000 1.0
C      1  0.4098890000000  0.4607760000000  0.5182000000000 1.0
C      1  0.4703920000000  0.5564900000000  0.4609440000000 1.0
C      1  0.4430910000000  0.5904170000000  0.4798890000000 1.0
C      1  0.4208030000000  0.5218960000000  0.4693820000000 1.0
C      1  0.5908250000000  0.5229390000000  0.5397540000000 1.0
C      1  0.4072230000000  0.4995490000000  0.4838840000000 1.0
C      1  0.5609890000000  0.5187620000000  0.4065530000000 1.0
C      1  0.4392220000000  0.4410530000000  0.4670800000000 1.0
C      1  0.4947580000000  0.5002730000000  0.6227760000000 1.0
C      1  0.5449550000000  0.4851720000000  0.6079240000000 1.0
C      1  0.4794820000000  0.5111910000000  0.4805230000000 1.0
C      1  0.4515840000000  0.4830890000000  0.4608780000000 1.0
C      1  0.4374800000000  0.5385630000000  0.4148610000000 1.0
C      1  0.5855100000000  0.5712790000000  0.5254470000000 1.0
C      1  0.4082670000000  0.4717890000000  0.5463780000000 1.0
C      1  0.4568770000000  0.5436400000000  0.5658760000000 1.0
C      1  0.5612110000000  0.4371100000000  0.5543890000000 1.0
C      1  0.5095930000000  0.5517450000000  0.5899040000000 1.0
C      1  0.3943440000000  0.4815800000000  0.4631290000000 1.0
C      1  0.5239810000000  0.4104070000000  0.5075590000000 1.0
C      1  0.5171120000000  0.4628600000000  0.5999240000000 1.0
C      1  0.4662970000000  0.4416860000000  0.4546870000000 1.0
C      1  0.4173490000000  0.5616290000000  0.5302720000000 1.0
C      1  0.4866500000000  0.4888340000000  0.4065920000000 1.0
C      1  0.4923680000000  0.5515620000000  0.5410450000000 1.0
C      1  0.4724580000000  0.4696130000000  0.4436790000000 1.0
C      1  0.5214830000000  0.5229790000000  0.5104470000000 1.0
C      1  0.5013150000000  0.4771760000000  0.4559270000000 1.0
C      1  0.4783980000000  0.5247440000000  0.5295500000000 1.0
C      1  0.4914960000000  0.4330710000000  0.4172560000000 1.0
C      1  0.5083920000000  0.5088130000000  0.5996220000000 1.0
C      1  0.5047530000000  0.5054490000000  0.4666460000000 1.0
C      1  0.4420200000000  0.4224330000000  0.4901660000000 1.0
C      1  0.5511210000000  0.4941980000000  0.4540790000000 1.0
C      1  0.5187360000000  0.4349470000000  0.5198660000000 1.0
C      1  0.5335830000000  0.5783310000000  0.5197030000000 1.0
C      1  0.5196280000000  0.4619370000000  0.5071230000000 1.0
C      1  0.4149960000000  0.4444210000000  0.4508130000000 1.0
C      1  0.5590540000000  0.4901920000000  0.5610620000000 1.0
C      1  0.4188140000000  0.4625580000000  0.4263840000000 1.0
C      1  0.5535250000000  0.5412380000000  0.4857080000000 1.0
C      1  0.5111110000000  0.4797930000000  0.5320180000000 1.0
C      1  0.5937050000000  0.4690470000000  0.4877770000000 1.0
C      1  0.5044590000000  0.4341840000000  0.5460090000000 1.0
C      1  0.4454470000000  0.4666890000000  0.5798020000000 1.0
C      1  0.5793660000000  0.4932950000000  0.4449260000000 1.0
C      1  0.5025970000000  0.5072330000000  0.5265600000000 1.0
C      1  0.5980070000000  0.4982590000000  0.4989710000000 1.0
C      1  0.4459390000000  0.4668890000000  0.4157990000000 1.0
C      1  0.4872460000000  0.4635880000000  0.5447660000000 1.0
C      1  0.5713030000000  0.5136020000000  0.4882240000000 1.0
C      1  0.4430170000000  0.5582620000000  0.4334580000000 1.0
C      1  0.4581980000000  0.5496640000000  0.4873990000000 1.0
C      1  0.5470950000000  0.4674740000000  0.4969180000000 1.0
C      1  0.4574570000000  0.5733170000000  0.5550270000000 1.0
C      1  0.4514740000000  0.5157130000000  0.5418240000000 1.0
C      1  0.5541480000000  0.5529510000000  0.5728630000000 1.0
C      1  0.5584550000000  0.4307280000000  0.4462980000000 1.0
C      1  0.4240170000000  0.5122610000000  0.5283480000000 1.0
C      1  0.5752490000000  0.4511130000000  0.5330310000000 1.0
C      1  0.6073380000000  0.5334180000000  0.4952330000000 1.0
C      1  0.4363720000000  0.4675110000000  0.5527980000000 1.0
C      1  0.4948960000000  0.3947530000000  0.4750610000000 1.0
C      1  0.5636110000000  0.5668880000000  0.4686890000000 1.0
C      1  0.4329960000000  0.5031670000000  0.4477750000000 1.0
C      1  0.5711540000000  0.4512800000000  0.5023720000000 1.0
C      1  0.4260280000000  0.4340160000000  0.5169280000000 1.0
C      1  0.4616490000000  0.4582050000000  0.5261890000000 1.0
C      1  0.5450480000000  0.4504250000000  0.4017260000000 1.0
C      1  0.4925780000000  0.4604070000000  0.4066550000000 1.0
C      1  0.5468120000000  0.4771920000000  0.4103240000000 1.0
C      1  0.5366590000000  0.5142650000000  0.6029760000000 1.0
C      1  0.4660420000000  0.5875240000000  0.4575650000000 1.0
C      1  0.4579100000000  0.4926550000000  0.4089330000000 1.0
C      1  0.4237450000000  0.4880530000000  0.5080420000000 1.0
C      1  0.4773140000000  0.5322710000000  0.4994410000000 1.0
C      1  0.4838940000000  0.4850120000000  0.5672780000000 1.0
C      1  0.4480580000000  0.5150590000000  0.4252520000000 1.0
C      1  0.5661360000000  0.5881460000000  0.5386880000000 1.0
C      1  0.4209520000000  0.5719620000000  0.4772200000000 1.0
C      1  0.5024850000000  0.5524100000000  0.4624210000000 1.0
C      1  0.5493820000000  0.5808690000000  0.5610970000000 1.0
C      1  0.4656460000000  0.3982020000000  0.4706840000000 1.0
C      1  0.5108330000000  0.4862090000000  0.5793340000000 1.0
C      1  0.5954070000000  0.4968220000000  0.5283620000000 1.0
C      1  0.5499280000000  0.4928790000000  0.4830720000000 1.0
C      1  0.5364380000000  0.5433340000000  0.5953090000000 1.0
C      1  0.5430470000000  0.5240690000000  0.4520460000000 1.0
C      1  0.4838220000000  0.4125550000000  0.5466870000000 1.0
C      1  0.4027650000000  0.5120630000000  0.5729930000000 1.0
C      1  0.5251080000000  0.5052650000000  0.4882060000000 1.0
C      1  0.3926330000000  0.4531550000000  0.4662370000000 1.0
C      1  0.4801970000000  0.5990300000000  0.5158150000000 1.0
C      1  0.5397860000000  0.4360580000000  0.4254090000000 1.0
C      1  0.5298360000000  0.4848600000000  0.5556680000000 1.0
C      1  0.4683360000000  0.4305170000000  0.5044230000000 1.0
C      1  0.5009520000000  0.6033600000000  0.4924370000000 1.0
C      1  0.5146660000000  0.4244160000000  0.4329250000000 1.0
C      1  0.4489500000000  0.5207670000000  0.5852890000000 1.0
C      1  0.5115310000000  0.5582450000000  0.5622620000000 1.0
C      1  0.4682860000000  0.4853760000000  0.4854170000000 1.0
C      1  0.5043610000000  0.5669060000000  0.5168820000000 1.0
C      1  0.5940770000000  0.5434040000000  0.4705850000000 1.0
C      1  0.4775640000000  0.4050180000000  0.5187050000000 1.0
C      1  0.5425090000000  0.5359710000000  0.5397500000000 1.0
C      1  0.5648840000000  0.4766030000000  0.5879530000000 1.0
C      1  0.4753720000000  0.4823260000000  0.6132390000000 1.0
C      1  0.5764490000000  0.4787480000000  0.5401440000000 1.0
C      1  0.4536740000000  0.5887580000000  0.5078550000000 1.0
C      1  0.5824370000000  0.4444190000000  0.4487760000000 1.0
C      1  0.4857880000000  0.4370310000000  0.4785630000000 1.0
C      1  0.5656880000000  0.5209290000000  0.5555130000000 1.0
C      1  0.5018050000000  0.5430310000000  0.4065150000000 1.0
C      1  0.5457720000000  0.4190780000000  0.4695900000000 1.0
C      1  0.4603720000000  0.4242890000000  0.5598980000000 1.0
C      1  0.4861670000000  0.4551150000000  0.6044000000000 1.0
C      1  0.5398600000000  0.5857530000000  0.4719210000000 1.0
C      1  0.5925560000000  0.4686340000000  0.4582840000000 1.0
C      1  0.5520790000000  0.5536120000000  0.5158820000000 1.0
C      1  0.5128350000000  0.5271980000000  0.4463320000000 1.0
C      1  0.5340330000000  0.5032770000000  0.4005960000000 1.0
C      1  0.5602090000000  0.5639960000000  0.4385170000000 1.0
C      1  0.4171610000000  0.5388890000000  0.5146350000000 1.0
C      1  0.5201520000000  0.5857840000000  0.5597510000000 1.0
C      1  0.4532050000000  0.4817920000000  0.5094090000000 1.0
C      1  0.5612800000000  0.4468990000000  0.5826530000000 1.0
C      1  0.5885440000000  0.5240830000000  0.4487010000000 1.0
C      1  0.4087750000000  0.4879400000000  0.4377660000000 1.0
C      1  0.4938840000000  0.5988820000000  0.4636270000000 1.0
C      1  0.5629700000000  0.4251850000000  0.4915610000000 1.0
C      1  0.5342570000000  0.5743120000000  0.4292110000000 1.0
C      1  0.4377000000000  0.4255720000000  0.5419920000000 1.0
C      1  0.4670200000000  0.4462180000000  0.5804510000000 1.0
END
