TITL C-950535-5962-176 3.62633922297237e-06 125000 -468.119587343181 0 0 77 (C1) n - 1
REM
REM in /home/bkarasulu/work/CARBON/AIRSS/Generating-Clusters/EDIP-Nigel-Params/with-SteepDescent/Only-C1/SD-CG/HFTN-CG
REM
REM
REM
REM
REM
REM ./C.cell (11c1c37f851c82e70ff6c80c92926a4b)
REM
REM compiler GCC version 9.2.1 20190827 (Red Hat 9.2.1-1)
REM options -cpp -mtune=generic -march=x86-64 -g -O0 -fpre-include=/usr/include/finclude/math-vector-fortran.h
REM seed 1915055143 -1111367891 1145686069 27979304 512203285 1676929015 -1055888264 -1143761757 -687439643 1186289163 1106350520 -117224731 884195395 -201687843 375154730 -1706815918 976657266 -116897162 -23276769 169555508 50888326 -1487209763 1921459539 -2023409720 -535279299 -1860976921 1177635644 -29363923 1384897996 -2069966108 632284291 1271361878 -780494700
REM
CELL 1.54180   50.00000   50.00000   50.00000   90.00000   90.00000   90.00000
LATT -1
SFAC C  
C      1  0.4684810000000  0.4470880000000  0.4578190000000 1.0
C      1  0.5209960000000  0.5210260000000  0.5195970000000 1.0
C      1  0.5418240000000  0.5359490000000  0.4499190000000 1.0
C      1  0.4246930000000  0.5004200000000  0.4382340000000 1.0
C      1  0.4734990000000  0.5050200000000  0.4875030000000 1.0
C      1  0.4805440000000  0.5025190000000  0.5168430000000 1.0
C      1  0.5559970000000  0.4553870000000  0.4781520000000 1.0
C      1  0.5130320000000  0.4322070000000  0.5353700000000 1.0
C      1  0.5565910000000  0.4943360000000  0.4442100000000 1.0
C      1  0.4788440000000  0.5619570000000  0.5549170000000 1.0
C      1  0.4725060000000  0.4825470000000  0.4304220000000 1.0
C      1  0.4821380000000  0.5692190000000  0.5109800000000 1.0
C      1  0.5852270000000  0.5203520000000  0.4946590000000 1.0
C      1  0.5340220000000  0.4426210000000  0.4615620000000 1.0
C      1  0.4519290000000  0.5495670000000  0.4743830000000 1.0
C      1  0.4600160000000  0.4771730000000  0.5646140000000 1.0
C      1  0.5040430000000  0.5118240000000  0.4731570000000 1.0
C      1  0.5337060000000  0.4792420000000  0.5645190000000 1.0
C      1  0.4871470000000  0.5004440000000  0.4150890000000 1.0
C      1  0.4712390000000  0.5516620000000  0.5798340000000 1.0
C      1  0.4743340000000  0.4202290000000  0.4676740000000 1.0
C      1  0.5166420000000  0.4725290000000  0.5018190000000 1.0
C      1  0.4123670000000  0.5136500000000  0.4579520000000 1.0
C      1  0.5696710000000  0.5404330000000  0.5393720000000 1.0
C      1  0.5417340000000  0.5643820000000  0.4506930000000 1.0
C      1  0.5840750000000  0.4934980000000  0.4881650000000 1.0
C      1  0.3999580000000  0.5070140000000  0.5022180000000 1.0
C      1  0.5629090000000  0.4831500000000  0.4710040000000 1.0
C      1  0.4706910000000  0.5229770000000  0.5355050000000 1.0
C      1  0.5471650000000  0.5391980000000  0.5537560000000 1.0
C      1  0.5138910000000  0.5258720000000  0.4466450000000 1.0
C      1  0.5629140000000  0.5212770000000  0.4392020000000 1.0
C      1  0.4970150000000  0.5502290000000  0.4442210000000 1.0
C      1  0.4416260000000  0.4590610000000  0.5530010000000 1.0
C      1  0.5906980000000  0.4766430000000  0.5092190000000 1.0
C      1  0.5198060000000  0.5366750000000  0.5459420000000 1.0
C      1  0.4885060000000  0.4611670000000  0.4412120000000 1.0
C      1  0.4725270000000  0.5471770000000  0.4565510000000 1.0
C      1  0.5320480000000  0.4266090000000  0.5091770000000 1.0
C      1  0.5347530000000  0.4544830000000  0.5764670000000 1.0
C      1  0.5141050000000  0.5715870000000  0.4536050000000 1.0
C      1  0.5132360000000  0.5071460000000  0.4230820000000 1.0
C      1  0.4866980000000  0.4497580000000  0.5376180000000 1.0
C      1  0.5190080000000  0.4864260000000  0.4758950000000 1.0
C      1  0.5390390000000  0.4429910000000  0.5502630000000 1.0
C      1  0.4928960000000  0.4269400000000  0.4881620000000 1.0
C      1  0.4403020000000  0.4575770000000  0.4573470000000 1.0
C      1  0.5038210000000  0.5176790000000  0.5647310000000 1.0
C      1  0.5314100000000  0.4843850000000  0.4312570000000 1.0
C      1  0.5557360000000  0.4601530000000  0.5311270000000 1.0
C      1  0.4551140000000  0.5068480000000  0.5667670000000 1.0
C      1  0.5814200000000  0.5360790000000  0.5158940000000 1.0
C      1  0.4923830000000  0.4562110000000  0.4944080000000 1.0
C      1  0.4417200000000  0.5416310000000  0.5224870000000 1.0
C      1  0.4780320000000  0.5242780000000  0.5783380000000 1.0
C      1  0.5083180000000  0.4894820000000  0.5545380000000 1.0
C      1  0.5082700000000  0.5729260000000  0.5231060000000 1.0
C      1  0.4281280000000  0.4562450000000  0.4832500000000 1.0
C      1  0.4556120000000  0.4495620000000  0.5301320000000 1.0
C      1  0.5054950000000  0.5718450000000  0.5513630000000 1.0
C      1  0.4456710000000  0.4633070000000  0.5047250000000 1.0
C      1  0.4809810000000  0.5425560000000  0.4986500000000 1.0
C      1  0.4392720000000  0.5320310000000  0.4933080000000 1.0
C      1  0.4449810000000  0.4818380000000  0.4412560000000 1.0
C      1  0.5171120000000  0.4673300000000  0.4519230000000 1.0
C      1  0.5272800000000  0.5576870000000  0.4858960000000 1.0
C      1  0.5304610000000  0.5773600000000  0.5064430000000 1.0
C      1  0.5083730000000  0.4946370000000  0.5234750000000 1.0
C      1  0.4872840000000  0.4687980000000  0.5598210000000 1.0
C      1  0.4682070000000  0.4723050000000  0.4876390000000 1.0
C      1  0.5207070000000  0.4207730000000  0.4817030000000 1.0
C      1  0.4143220000000  0.5205370000000  0.4846260000000 1.0
C      1  0.4614240000000  0.5653400000000  0.5311780000000 1.0
C      1  0.5833850000000  0.4626580000000  0.5309710000000 1.0
C      1  0.4375640000000  0.5184000000000  0.5433520000000 1.0
C      1  0.5420910000000  0.4544610000000  0.5054330000000 1.0
C      1  0.5103390000000  0.5334170000000  0.4946570000000 1.0
END
