TITL C-951339-9237-291 -5.29207450563016e-08 125000 -155.213079253086 0 0 27 (C1) n - 1
REM
REM in /home/bkarasulu/work/CARBON/AIRSS/Generating-Clusters/EDIP-Nigel-Params/with-SteepDescent/Only-C1/SD-CG/HFTN-CG
REM
REM
REM
REM
REM
REM ./C.cell (11c1c37f851c82e70ff6c80c92926a4b)
REM
REM compiler GCC version 9.2.1 20190827 (Red Hat 9.2.1-1)
REM options -cpp -mtune=generic -march=x86-64 -g -O0 -fpre-include=/usr/include/finclude/math-vector-fortran.h
REM seed -854934910 428678279 1258322411 -1657039921 713222203 586453468 64490989 898959032 -1188430144 -1301665698 -1272620193 1216025063 516405830 -1666179714 -1002152654 503848506 -1666051145 -609508256 -1850295302 -658718809 2037603666 1572986779 -1935517430 -2048874291 1210986788 -2108852367 -68654924 1704023666 -1393953535 165107623 1171015923 325164161 -1357043787
REM
CELL 1.54180   50.00000   50.00000   50.00000   90.00000   90.00000   90.00000
LATT -1
SFAC C  
C      1  0.4499660000000  0.5436100000000  0.5067970000000 1.0
C      1  0.5019630000000  0.4581370000000  0.5138200000000 1.0
C      1  0.5596300000000  0.4962820000000  0.4763970000000 1.0
C      1  0.4974080000000  0.4618110000000  0.5418630000000 1.0
C      1  0.5216920000000  0.5565660000000  0.4782500000000 1.0
C      1  0.4702710000000  0.4991490000000  0.5270900000000 1.0
C      1  0.5572610000000  0.5185550000000  0.4931050000000 1.0
C      1  0.5213780000000  0.4788320000000  0.5045070000000 1.0
C      1  0.5215640000000  0.5483280000000  0.5053630000000 1.0
C      1  0.4771990000000  0.4229950000000  0.4642000000000 1.0
C      1  0.5321300000000  0.4912750000000  0.5519180000000 1.0
C      1  0.4509380000000  0.5272270000000  0.4815090000000 1.0
C      1  0.4986840000000  0.5531840000000  0.5212320000000 1.0
C      1  0.5015070000000  0.5508260000000  0.4605030000000 1.0
C      1  0.4811800000000  0.5392180000000  0.4766780000000 1.0
C      1  0.5244340000000  0.5016540000000  0.5240560000000 1.0
C      1  0.5576250000000  0.4729410000000  0.4600020000000 1.0
C      1  0.5044840000000  0.4836530000000  0.5583590000000 1.0
C      1  0.4474770000000  0.4995500000000  0.4846520000000 1.0
C      1  0.5401200000000  0.4739080000000  0.4824930000000 1.0
C      1  0.4776840000000  0.4505270000000  0.4710100000000 1.0
C      1  0.4774560000000  0.5543600000000  0.5030370000000 1.0
C      1  0.4924220000000  0.5060730000000  0.5422700000000 1.0
C      1  0.4559520000000  0.4382120000000  0.4575660000000 1.0
C      1  0.4646620000000  0.4869920000000  0.5027580000000 1.0
C      1  0.4764500000000  0.4605410000000  0.4982920000000 1.0
C      1  0.5384630000000  0.5255950000000  0.5122730000000 1.0
END
