TITL C-951336-9012-91 4.10101600692846e-06 125000 -695.243992660349 0 0 112 (C1) n - 1
REM
REM in /home/bkarasulu/work/CARBON/AIRSS/Generating-Clusters/EDIP-Nigel-Params/with-SteepDescent/Only-C1/SD-CG/HFTN-CG
REM
REM
REM
REM
REM
REM ./C.cell (11c1c37f851c82e70ff6c80c92926a4b)
REM
REM compiler GCC version 9.2.1 20190827 (Red Hat 9.2.1-1)
REM options -cpp -mtune=generic -march=x86-64 -g -O0 -fpre-include=/usr/include/finclude/math-vector-fortran.h
REM seed -1997897841 -75455627 1006917672 -1652642325 2058357425 197519661 -1342123967 869074753 -686445831 1036245693 806703437 -239131653 -1189940545 -1806475954 19444299 273317199 -1677900578 -1997340121 1052225628 -938931226 335338375 111312515 379667059 2123246227 111881877 -607605092 301893599 -44392126 2071068801 -1079404985 1457040830 -523617134 -930073153
REM
CELL 1.54180   50.00000   50.00000   50.00000   90.00000   90.00000   90.00000
LATT -1
SFAC C  
C      1  0.5282690000000  0.4603210000000  0.5110400000000 1.0
C      1  0.5460890000000  0.5272940000000  0.5707920000000 1.0
C      1  0.4446270000000  0.5458870000000  0.5034650000000 1.0
C      1  0.5842470000000  0.4801700000000  0.4276230000000 1.0
C      1  0.4072790000000  0.5084050000000  0.4799940000000 1.0
C      1  0.4313170000000  0.4772700000000  0.4328910000000 1.0
C      1  0.4552190000000  0.4888170000000  0.4836230000000 1.0
C      1  0.5502870000000  0.5735000000000  0.5011060000000 1.0
C      1  0.4732620000000  0.5839180000000  0.4795160000000 1.0
C      1  0.4725270000000  0.4572730000000  0.4458450000000 1.0
C      1  0.4168950000000  0.5414240000000  0.5171670000000 1.0
C      1  0.5726700000000  0.5570320000000  0.4878510000000 1.0
C      1  0.5852480000000  0.5395390000000  0.5093440000000 1.0
C      1  0.5716510000000  0.4849090000000  0.5336700000000 1.0
C      1  0.5828970000000  0.5190340000000  0.4567530000000 1.0
C      1  0.4716780000000  0.5014820000000  0.4264020000000 1.0
C      1  0.5704870000000  0.5451300000000  0.5339470000000 1.0
C      1  0.4913960000000  0.4989460000000  0.5064130000000 1.0
C      1  0.5373070000000  0.5380450000000  0.4221980000000 1.0
C      1  0.4238500000000  0.4545790000000  0.4495830000000 1.0
C      1  0.4415440000000  0.4447160000000  0.5399670000000 1.0
C      1  0.4968430000000  0.5063720000000  0.4112580000000 1.0
C      1  0.4595320000000  0.5303600000000  0.5253040000000 1.0
C      1  0.5763920000000  0.4623790000000  0.4477850000000 1.0
C      1  0.5287650000000  0.4945920000000  0.4583720000000 1.0
C      1  0.5803030000000  0.5100440000000  0.5052670000000 1.0
C      1  0.4852620000000  0.5420610000000  0.5356900000000 1.0
C      1  0.4500520000000  0.4329970000000  0.5099290000000 1.0
C      1  0.5235910000000  0.5714730000000  0.4581550000000 1.0
C      1  0.4572600000000  0.5093960000000  0.4626680000000 1.0
C      1  0.4592100000000  0.5267220000000  0.5729900000000 1.0
C      1  0.4775460000000  0.4179020000000  0.5037810000000 1.0
C      1  0.4765480000000  0.5027910000000  0.5796150000000 1.0
C      1  0.4518010000000  0.5765930000000  0.5011330000000 1.0
C      1  0.5534180000000  0.4459510000000  0.4420780000000 1.0
C      1  0.4886050000000  0.5714270000000  0.5253800000000 1.0
C      1  0.5121020000000  0.5162510000000  0.4560040000000 1.0
C      1  0.5442510000000  0.5543640000000  0.5227160000000 1.0
C      1  0.5402250000000  0.4110650000000  0.5033410000000 1.0
C      1  0.5736710000000  0.4737290000000  0.4754950000000 1.0
C      1  0.4980280000000  0.4687350000000  0.4991000000000 1.0
C      1  0.4957120000000  0.5712740000000  0.4957310000000 1.0
C      1  0.5255090000000  0.5001620000000  0.5428250000000 1.0
C      1  0.5574220000000  0.5195650000000  0.4155800000000 1.0
C      1  0.4310260000000  0.5064820000000  0.4427200000000 1.0
C      1  0.5169340000000  0.5375290000000  0.4760250000000 1.0
C      1  0.5103280000000  0.4826500000000  0.4055440000000 1.0
C      1  0.4949030000000  0.5736160000000  0.4497490000000 1.0
C      1  0.5270550000000  0.5481670000000  0.5670320000000 1.0
C      1  0.5085270000000  0.5855170000000  0.5406590000000 1.0
C      1  0.4625970000000  0.5848260000000  0.5260860000000 1.0
C      1  0.5452350000000  0.4384270000000  0.4937350000000 1.0
C      1  0.5730040000000  0.4501750000000  0.4975710000000 1.0
C      1  0.5086000000000  0.4763340000000  0.5501220000000 1.0
C      1  0.4688230000000  0.4529800000000  0.5848770000000 1.0
C      1  0.4599330000000  0.4742410000000  0.4253610000000 1.0
C      1  0.5495110000000  0.5056550000000  0.5009520000000 1.0
C      1  0.4887910000000  0.5522280000000  0.4310480000000 1.0
C      1  0.5909710000000  0.4995620000000  0.4789540000000 1.0
C      1  0.5185890000000  0.4628280000000  0.5747110000000 1.0
C      1  0.5313730000000  0.5044860000000  0.5810380000000 1.0
C      1  0.4185070000000  0.4833670000000  0.5210090000000 1.0
C      1  0.4599930000000  0.5379880000000  0.4749440000000 1.0
C      1  0.5567720000000  0.4435530000000  0.5471360000000 1.0
C      1  0.4055680000000  0.4574360000000  0.4706050000000 1.0
C      1  0.5773490000000  0.5070620000000  0.4306730000000 1.0
C      1  0.4970840000000  0.4525030000000  0.5907970000000 1.0
C      1  0.3934740000000  0.4834370000000  0.4719580000000 1.0
C      1  0.5087920000000  0.5283000000000  0.4286050000000 1.0
C      1  0.5686320000000  0.5243870000000  0.5536540000000 1.0
C      1  0.4394890000000  0.4753990000000  0.5395750000000 1.0
C      1  0.4835960000000  0.4905260000000  0.5534050000000 1.0
C      1  0.4897140000000  0.5435530000000  0.4859590000000 1.0
C      1  0.4263790000000  0.4872320000000  0.4931970000000 1.0
C      1  0.5148790000000  0.4574600000000  0.4164610000000 1.0
C      1  0.3990510000000  0.5203620000000  0.5064190000000 1.0
C      1  0.3967330000000  0.5000760000000  0.5268920000000 1.0
C      1  0.4773430000000  0.4592730000000  0.5192410000000 1.0
C      1  0.4944600000000  0.4153460000000  0.5281640000000 1.0
C      1  0.4556860000000  0.4808870000000  0.5866170000000 1.0
C      1  0.4405100000000  0.4470750000000  0.4837540000000 1.0
C      1  0.5453140000000  0.5536010000000  0.4460410000000 1.0
C      1  0.5040560000000  0.5135820000000  0.5917720000000 1.0
C      1  0.4926590000000  0.4278880000000  0.4819980000000 1.0
C      1  0.4634400000000  0.4372680000000  0.5592830000000 1.0
C      1  0.5767480000000  0.4564020000000  0.5273880000000 1.0
C      1  0.5030120000000  0.5421820000000  0.5824490000000 1.0
C      1  0.4667910000000  0.4618210000000  0.4764120000000 1.0
C      1  0.5410930000000  0.4477000000000  0.4168800000000 1.0
C      1  0.4794150000000  0.5462280000000  0.5655520000000 1.0
C      1  0.5436070000000  0.4868330000000  0.5226380000000 1.0
C      1  0.5373330000000  0.4382060000000  0.4650800000000 1.0
C      1  0.5463340000000  0.4872760000000  0.4781480000000 1.0
C      1  0.4480340000000  0.5570640000000  0.4556570000000 1.0
C      1  0.5300000000000  0.5298930000000  0.5048340000000 1.0
C      1  0.5243860000000  0.4154320000000  0.5260550000000 1.0
C      1  0.4420360000000  0.5201220000000  0.5487520000000 1.0
C      1  0.5283390000000  0.5663580000000  0.5447880000000 1.0
C      1  0.4996190000000  0.4504330000000  0.4402040000000 1.0
C      1  0.4595610000000  0.5480730000000  0.4315110000000 1.0
C      1  0.4187830000000  0.5375880000000  0.5456490000000 1.0
C      1  0.4876880000000  0.4412350000000  0.5420310000000 1.0
C      1  0.5080520000000  0.5183060000000  0.5234460000000 1.0
C      1  0.5496450000000  0.4605820000000  0.5712040000000 1.0
C      1  0.5284650000000  0.4428420000000  0.5364800000000 1.0
C      1  0.4347930000000  0.4871200000000  0.5660660000000 1.0
C      1  0.4671790000000  0.4869920000000  0.5293790000000 1.0
C      1  0.4495180000000  0.5217870000000  0.4219970000000 1.0
C      1  0.5624290000000  0.4872290000000  0.5632730000000 1.0
C      1  0.5097830000000  0.4330240000000  0.4602840000000 1.0
C      1  0.5658410000000  0.5421760000000  0.4638170000000 1.0
C      1  0.5250390000000  0.5799350000000  0.4862940000000 1.0
END
