TITL C-950521-2237-8 -4.55447773323024e-06 125000 -981.774874414734 0 0 156 (C1) n - 1
REM
REM in /home/bkarasulu/work/CARBON/AIRSS/Generating-Clusters/EDIP-Nigel-Params/with-SteepDescent/Only-C1/SD-CG/HFTN-CG
REM
REM
REM
REM
REM
REM ./C.cell (11c1c37f851c82e70ff6c80c92926a4b)
REM
REM compiler GCC version 9.2.1 20190827 (Red Hat 9.2.1-1)
REM options -cpp -mtune=generic -march=x86-64 -g -O0 -fpre-include=/usr/include/finclude/math-vector-fortran.h
REM seed -630271190 219961114 -495606654 -2101374604 706836531 -58626662 118261594 -1739648274 2118055726 -1448133436 -1040151842 1988375120 -1232482253 -2100611284 -413169982 -2145214798 -1057015823 148716046 -2132345279 -792819882 1146671276 -895705055 -1955900349 1274657698 -565082740 -1548965206 1390259806 -680553103 186993503 -2044008920 1111410890 -1280757171 -1621041036
REM
CELL 1.54180   50.00000   50.00000   50.00000   90.00000   90.00000   90.00000
LATT -1
SFAC C  
C      1  0.5930470000000  0.5002550000000  0.5514420000000 1.0
C      1  0.5354350000000  0.4926510000000  0.4078630000000 1.0
C      1  0.5193260000000  0.4317880000000  0.5736330000000 1.0
C      1  0.5622600000000  0.5254050000000  0.5194020000000 1.0
C      1  0.5067820000000  0.4846240000000  0.5953640000000 1.0
C      1  0.5483200000000  0.4994470000000  0.5279000000000 1.0
C      1  0.4501170000000  0.4811780000000  0.4285420000000 1.0
C      1  0.4198680000000  0.5093480000000  0.5347290000000 1.0
C      1  0.4093330000000  0.4477060000000  0.5028220000000 1.0
C      1  0.4787100000000  0.5015120000000  0.5010230000000 1.0
C      1  0.5104580000000  0.5350930000000  0.5800330000000 1.0
C      1  0.4675790000000  0.4757000000000  0.5030370000000 1.0
C      1  0.4492330000000  0.4123380000000  0.5029480000000 1.0
C      1  0.4625670000000  0.5755040000000  0.5356580000000 1.0
C      1  0.4744810000000  0.4559250000000  0.5689860000000 1.0
C      1  0.4780600000000  0.4900590000000  0.4454920000000 1.0
C      1  0.5414340000000  0.5736510000000  0.4748220000000 1.0
C      1  0.4279070000000  0.4519450000000  0.4811980000000 1.0
C      1  0.5753200000000  0.4478490000000  0.5063200000000 1.0
C      1  0.4031740000000  0.5070840000000  0.4366010000000 1.0
C      1  0.5603180000000  0.5552640000000  0.5331650000000 1.0
C      1  0.5766750000000  0.4209340000000  0.5139550000000 1.0
C      1  0.5646390000000  0.4984000000000  0.4282460000000 1.0
C      1  0.6031480000000  0.5321660000000  0.5075520000000 1.0
C      1  0.4481090000000  0.5048370000000  0.5999770000000 1.0
C      1  0.4448040000000  0.4259330000000  0.4743470000000 1.0
C      1  0.5285990000000  0.4836440000000  0.4870580000000 1.0
C      1  0.5147710000000  0.3912060000000  0.5159090000000 1.0
C      1  0.5441870000000  0.5069000000000  0.4485050000000 1.0
C      1  0.4243170000000  0.4865680000000  0.4457250000000 1.0
C      1  0.3825930000000  0.5100270000000  0.4557550000000 1.0
C      1  0.4448590000000  0.4752730000000  0.4861200000000 1.0
C      1  0.4735530000000  0.4809530000000  0.3880270000000 1.0
C      1  0.5140030000000  0.3997850000000  0.4873800000000 1.0
C      1  0.5183460000000  0.4474210000000  0.4384560000000 1.0
C      1  0.5247520000000  0.5690070000000  0.4336700000000 1.0
C      1  0.5675110000000  0.4545270000000  0.4793900000000 1.0
C      1  0.4933500000000  0.5579520000000  0.5910170000000 1.0
C      1  0.5544670000000  0.4998090000000  0.4755600000000 1.0
C      1  0.4536740000000  0.5781630000000  0.4545150000000 1.0
C      1  0.5145840000000  0.5882220000000  0.5385900000000 1.0
C      1  0.5484770000000  0.4288640000000  0.5706270000000 1.0
C      1  0.5187000000000  0.4655810000000  0.4115000000000 1.0
C      1  0.4933370000000  0.4427530000000  0.4805890000000 1.0
C      1  0.4862930000000  0.3961110000000  0.4767470000000 1.0
C      1  0.4522160000000  0.5252180000000  0.4616500000000 1.0
C      1  0.4653520000000  0.5268280000000  0.5411990000000 1.0
C      1  0.4965560000000  0.6112930000000  0.4700710000000 1.0
C      1  0.4684950000000  0.3889230000000  0.4999940000000 1.0
C      1  0.4906680000000  0.5824050000000  0.5781780000000 1.0
C      1  0.4895520000000  0.6049080000000  0.4964970000000 1.0
C      1  0.5790650000000  0.5460980000000  0.5544500000000 1.0
C      1  0.4951010000000  0.5365680000000  0.4306520000000 1.0
C      1  0.4912830000000  0.4593930000000  0.5938510000000 1.0
C      1  0.5094790000000  0.5058660000000  0.5018080000000 1.0
C      1  0.4252370000000  0.4877320000000  0.5538550000000 1.0
C      1  0.4696530000000  0.5047760000000  0.5644810000000 1.0
C      1  0.4473630000000  0.5498340000000  0.5503280000000 1.0
C      1  0.5577910000000  0.4785110000000  0.5815300000000 1.0
C      1  0.3910330000000  0.5325690000000  0.4709470000000 1.0
C      1  0.4623450000000  0.5962570000000  0.4937100000000 1.0
C      1  0.6043760000000  0.5155620000000  0.4824200000000 1.0
C      1  0.4554510000000  0.5183130000000  0.5113720000000 1.0
C      1  0.4301750000000  0.4369500000000  0.4395740000000 1.0
C      1  0.4444460000000  0.5348840000000  0.4318130000000 1.0
C      1  0.5079210000000  0.4288980000000  0.5451270000000 1.0
C      1  0.4194920000000  0.5058940000000  0.5049840000000 1.0
C      1  0.5148900000000  0.5366330000000  0.5490370000000 1.0
C      1  0.5804040000000  0.5242230000000  0.4298780000000 1.0
C      1  0.4449890000000  0.5861440000000  0.5137520000000 1.0
C      1  0.5727240000000  0.5017050000000  0.5725510000000 1.0
C      1  0.4887590000000  0.5156220000000  0.4111300000000 1.0
C      1  0.4754380000000  0.4416310000000  0.4157100000000 1.0
C      1  0.5744710000000  0.5736520000000  0.5136720000000 1.0
C      1  0.4490950000000  0.4516730000000  0.4238740000000 1.0
C      1  0.5777360000000  0.4798230000000  0.4700390000000 1.0
C      1  0.5644590000000  0.4372370000000  0.4562190000000 1.0
C      1  0.4875130000000  0.5908350000000  0.5520550000000 1.0
C      1  0.4767120000000  0.4226510000000  0.4648970000000 1.0
C      1  0.5857780000000  0.5542200000000  0.4704900000000 1.0
C      1  0.4470310000000  0.4438730000000  0.5656400000000 1.0
C      1  0.5629580000000  0.5287390000000  0.4884640000000 1.0
C      1  0.4715240000000  0.5190970000000  0.6060890000000 1.0
C      1  0.4845420000000  0.5631140000000  0.5173910000000 1.0
C      1  0.5629860000000  0.5437760000000  0.4194790000000 1.0
C      1  0.4485020000000  0.4158350000000  0.5547810000000 1.0
C      1  0.4147880000000  0.5343630000000  0.4314120000000 1.0
C      1  0.5933320000000  0.5297270000000  0.4575290000000 1.0
C      1  0.4510970000000  0.5416720000000  0.4906130000000 1.0
C      1  0.5434570000000  0.5835000000000  0.4484210000000 1.0
C      1  0.4924580000000  0.5100350000000  0.5866270000000 1.0
C      1  0.5408540000000  0.5694060000000  0.5760430000000 1.0
C      1  0.5631290000000  0.4541700000000  0.5664350000000 1.0
C      1  0.4822110000000  0.5920770000000  0.4544160000000 1.0
C      1  0.5086510000000  0.4553410000000  0.5263550000000 1.0
C      1  0.5350440000000  0.5465620000000  0.4167210000000 1.0
C      1  0.4536610000000  0.5629440000000  0.4298510000000 1.0
C      1  0.5583980000000  0.5852140000000  0.4940830000000 1.0
C      1  0.4593950000000  0.5200030000000  0.4087170000000 1.0
C      1  0.5160980000000  0.4976800000000  0.4407040000000 1.0
C      1  0.4158720000000  0.4407510000000  0.5290660000000 1.0
C      1  0.5347240000000  0.4823420000000  0.5967210000000 1.0
C      1  0.4784930000000  0.4798750000000  0.5518740000000 1.0
C      1  0.5767210000000  0.4056380000000  0.5362350000000 1.0
C      1  0.5994250000000  0.4758510000000  0.5379690000000 1.0
C      1  0.4084780000000  0.5510090000000  0.5149550000000 1.0
C      1  0.4796150000000  0.4142610000000  0.5406530000000 1.0
C      1  0.4304890000000  0.4594580000000  0.5466570000000 1.0
C      1  0.4323650000000  0.4959770000000  0.5796800000000 1.0
C      1  0.5327320000000  0.4580600000000  0.5065570000000 1.0
C      1  0.5055110000000  0.5842530000000  0.5113320000000 1.0
C      1  0.5060940000000  0.4801780000000  0.5425170000000 1.0
C      1  0.5965890000000  0.5267140000000  0.5383890000000 1.0
C      1  0.5515480000000  0.4086700000000  0.5485040000000 1.0
C      1  0.5280060000000  0.4122630000000  0.5315760000000 1.0
C      1  0.5633520000000  0.5295460000000  0.5736160000000 1.0
C      1  0.4907530000000  0.4621900000000  0.4008790000000 1.0
C      1  0.4742620000000  0.5596710000000  0.4889760000000 1.0
C      1  0.5943160000000  0.5583570000000  0.4977870000000 1.0
C      1  0.4362570000000  0.4991740000000  0.4704420000000 1.0
C      1  0.5402030000000  0.5429080000000  0.5866190000000 1.0
C      1  0.5170490000000  0.4731500000000  0.4584250000000 1.0
C      1  0.4976870000000  0.5808280000000  0.4320020000000 1.0
C      1  0.4072200000000  0.5517540000000  0.4549060000000 1.0
C      1  0.4913940000000  0.4304910000000  0.4374170000000 1.0
C      1  0.5799010000000  0.4759360000000  0.4404880000000 1.0
C      1  0.5227970000000  0.4292640000000  0.4826360000000 1.0
C      1  0.5363340000000  0.4295330000000  0.4553130000000 1.0
C      1  0.4292560000000  0.4143250000000  0.5308730000000 1.0
C      1  0.5855650000000  0.4532670000000  0.5488000000000 1.0
C      1  0.4198860000000  0.5391360000000  0.5403040000000 1.0
C      1  0.4842750000000  0.4514320000000  0.5076010000000 1.0
C      1  0.4297410000000  0.5644650000000  0.4985000000000 1.0
C      1  0.4265480000000  0.5713570000000  0.4685150000000 1.0
C      1  0.4900020000000  0.4694260000000  0.4651060000000 1.0
C      1  0.5075490000000  0.4370410000000  0.5990570000000 1.0
C      1  0.4821680000000  0.5212330000000  0.4565390000000 1.0
C      1  0.5324450000000  0.5638210000000  0.5481170000000 1.0
C      1  0.6078890000000  0.4771860000000  0.5110720000000 1.0
C      1  0.4857820000000  0.3889810000000  0.5247960000000 1.0
C      1  0.5200310000000  0.5211980000000  0.4042840000000 1.0
C      1  0.4674630000000  0.5475980000000  0.5993750000000 1.0
C      1  0.4907100000000  0.5386930000000  0.5327460000000 1.0
C      1  0.3993690000000  0.5275350000000  0.4992850000000 1.0
C      1  0.4483730000000  0.5516140000000  0.5790530000000 1.0
C      1  0.5387810000000  0.5438700000000  0.4791180000000 1.0
C      1  0.4152650000000  0.4579660000000  0.4540880000000 1.0
C      1  0.5576470000000  0.4682480000000  0.5259730000000 1.0
C      1  0.5191570000000  0.5047590000000  0.5311530000000 1.0
C      1  0.5147920000000  0.5338040000000  0.4911890000000 1.0
C      1  0.4515120000000  0.4934980000000  0.4011030000000 1.0
C      1  0.4809550000000  0.5610900000000  0.4197560000000 1.0
C      1  0.5731040000000  0.4500330000000  0.4325740000000 1.0
C      1  0.4685380000000  0.4297090000000  0.5179710000000 1.0
C      1  0.4943100000000  0.5434140000000  0.4741340000000 1.0
C      1  0.6030900000000  0.4869810000000  0.4849660000000 1.0
END
