TITL C-950533-5798-714 -1.61452548325045e-06 125000 -1193.81232676672 0 0 191 (C1) n - 1
REM
REM in /home/bkarasulu/work/CARBON/AIRSS/Generating-Clusters/EDIP-Nigel-Params/with-SteepDescent/Only-C1/SD-CG/HFTN-CG
REM
REM
REM
REM
REM
REM ./C.cell (11c1c37f851c82e70ff6c80c92926a4b)
REM
REM compiler GCC version 9.2.1 20190827 (Red Hat 9.2.1-1)
REM options -cpp -mtune=generic -march=x86-64 -g -O0 -fpre-include=/usr/include/finclude/math-vector-fortran.h
REM seed 278746160 1999039973 525592818 721362056 295919357 241857060 37447902 -533626470 1323493460 1872788911 -972332509 471332689 892234062 1919935535 527826430 1799810061 -1250427669 1325557434 -1422688118 -749375636 1875380627 -1543125510 -871151158 -1459969237 1280396448 1093503831 -260550751 -943599043 -1938944642 -1046798470 -128663764 1217582949 -311899254
REM
CELL 1.54180   50.00000   50.00000   50.00000   90.00000   90.00000   90.00000
LATT -1
SFAC C  
C      1  0.5859830000000  0.4570920000000  0.4900060000000 1.0
C      1  0.5770360000000  0.5229380000000  0.5968030000000 1.0
C      1  0.5216360000000  0.6025640000000  0.5705960000000 1.0
C      1  0.4954690000000  0.5147920000000  0.3946000000000 1.0
C      1  0.5518670000000  0.5886510000000  0.5032740000000 1.0
C      1  0.5485270000000  0.5208810000000  0.6046370000000 1.0
C      1  0.5753860000000  0.5754070000000  0.4897690000000 1.0
C      1  0.4439650000000  0.5284410000000  0.5523770000000 1.0
C      1  0.5675050000000  0.5701090000000  0.4615280000000 1.0
C      1  0.4462570000000  0.5883320000000  0.5528230000000 1.0
C      1  0.5385920000000  0.4514670000000  0.4117670000000 1.0
C      1  0.4678920000000  0.4839950000000  0.4496850000000 1.0
C      1  0.4112510000000  0.5554450000000  0.5405180000000 1.0
C      1  0.4545500000000  0.4095610000000  0.4630010000000 1.0
C      1  0.4995770000000  0.6176810000000  0.4601070000000 1.0
C      1  0.5527930000000  0.4145680000000  0.5317980000000 1.0
C      1  0.4363520000000  0.5540970000000  0.4230190000000 1.0
C      1  0.4062100000000  0.4707520000000  0.5242000000000 1.0
C      1  0.4512950000000  0.5865260000000  0.4637820000000 1.0
C      1  0.5404200000000  0.4614460000000  0.4655390000000 1.0
C      1  0.5765250000000  0.5473260000000  0.5783200000000 1.0
C      1  0.4040930000000  0.4626950000000  0.5839900000000 1.0
C      1  0.4974010000000  0.5625700000000  0.4993360000000 1.0
C      1  0.5042770000000  0.4451460000000  0.5387460000000 1.0
C      1  0.4861260000000  0.5089460000000  0.5620570000000 1.0
C      1  0.4982410000000  0.4998730000000  0.5357770000000 1.0
C      1  0.4514130000000  0.4062180000000  0.5153090000000 1.0
C      1  0.4924100000000  0.4900220000000  0.4135940000000 1.0
C      1  0.4940600000000  0.4184050000000  0.4001500000000 1.0
C      1  0.5266350000000  0.4795890000000  0.3753460000000 1.0
C      1  0.5852520000000  0.5257780000000  0.5586520000000 1.0
C      1  0.5547180000000  0.4357560000000  0.5130030000000 1.0
C      1  0.5832050000000  0.5048790000000  0.4877560000000 1.0
C      1  0.5403500000000  0.4762470000000  0.5511010000000 1.0
C      1  0.4850360000000  0.4418640000000  0.4912560000000 1.0
C      1  0.4639340000000  0.4877350000000  0.6082950000000 1.0
C      1  0.4119080000000  0.5476560000000  0.4913730000000 1.0
C      1  0.6139590000000  0.4718870000000  0.5195510000000 1.0
C      1  0.5450360000000  0.5878860000000  0.4539010000000 1.0
C      1  0.5970670000000  0.4986610000000  0.4462070000000 1.0
C      1  0.5196010000000  0.3956110000000  0.5356860000000 1.0
C      1  0.4935890000000  0.4514830000000  0.5896540000000 1.0
C      1  0.5181470000000  0.5589300000000  0.5933110000000 1.0
C      1  0.5828290000000  0.4555400000000  0.5550590000000 1.0
C      1  0.6035310000000  0.4563380000000  0.4657770000000 1.0
C      1  0.5921740000000  0.4829010000000  0.5610850000000 1.0
C      1  0.5836160000000  0.4937130000000  0.5878560000000 1.0
C      1  0.4434210000000  0.4699930000000  0.4879180000000 1.0
C      1  0.4696780000000  0.5342430000000  0.5637870000000 1.0
C      1  0.4846570000000  0.4985170000000  0.5010900000000 1.0
C      1  0.6019570000000  0.5602470000000  0.5292210000000 1.0
C      1  0.4711450000000  0.4665780000000  0.5015520000000 1.0
C      1  0.4138360000000  0.4437200000000  0.5373090000000 1.0
C      1  0.4524610000000  0.4667880000000  0.3862230000000 1.0
C      1  0.4393440000000  0.4906530000000  0.3902090000000 1.0
C      1  0.3967310000000  0.4472030000000  0.4852250000000 1.0
C      1  0.5392850000000  0.4236480000000  0.5542300000000 1.0
C      1  0.5184930000000  0.5313530000000  0.4021650000000 1.0
C      1  0.4562390000000  0.4486380000000  0.4265160000000 1.0
C      1  0.4938040000000  0.5363450000000  0.6026770000000 1.0
C      1  0.5508390000000  0.5617770000000  0.5723820000000 1.0
C      1  0.5893720000000  0.5529390000000  0.5033140000000 1.0
C      1  0.5035730000000  0.5114670000000  0.5853720000000 1.0
C      1  0.4270110000000  0.5804270000000  0.5347290000000 1.0
C      1  0.5561930000000  0.5283790000000  0.4686700000000 1.0
C      1  0.4928370000000  0.3924800000000  0.5495110000000 1.0
C      1  0.5628000000000  0.5207600000000  0.5379480000000 1.0
C      1  0.5231240000000  0.4540010000000  0.3872310000000 1.0
C      1  0.5143770000000  0.5258670000000  0.5293500000000 1.0
C      1  0.5454830000000  0.4576730000000  0.5911720000000 1.0
C      1  0.4293040000000  0.4229430000000  0.4650990000000 1.0
C      1  0.4737520000000  0.5362240000000  0.3911470000000 1.0
C      1  0.4147970000000  0.4264140000000  0.4895210000000 1.0
C      1  0.4185560000000  0.5341250000000  0.5669460000000 1.0
C      1  0.4060080000000  0.4597560000000  0.4313180000000 1.0
C      1  0.4908260000000  0.4101570000000  0.4262390000000 1.0
C      1  0.4883310000000  0.5928250000000  0.5026020000000 1.0
C      1  0.4014900000000  0.4866770000000  0.4437680000000 1.0
C      1  0.5086360000000  0.5867500000000  0.5897700000000 1.0
C      1  0.5462390000000  0.4912570000000  0.5070530000000 1.0
C      1  0.4302710000000  0.5104330000000  0.4674520000000 1.0
C      1  0.5650300000000  0.5459030000000  0.4199910000000 1.0
C      1  0.4463120000000  0.4845230000000  0.5365840000000 1.0
C      1  0.5068860000000  0.4333340000000  0.5090540000000 1.0
C      1  0.4665930000000  0.4018020000000  0.4889380000000 1.0
C      1  0.4270490000000  0.4239930000000  0.5159510000000 1.0
C      1  0.5930420000000  0.4528910000000  0.5273390000000 1.0
C      1  0.5369730000000  0.5328800000000  0.5500990000000 1.0
C      1  0.4196600000000  0.4873580000000  0.5797990000000 1.0
C      1  0.4980510000000  0.5947190000000  0.4441140000000 1.0
C      1  0.4812130000000  0.5516330000000  0.4774520000000 1.0
C      1  0.5624960000000  0.4784550000000  0.6037290000000 1.0
C      1  0.4671160000000  0.4670270000000  0.5290300000000 1.0
C      1  0.4746390000000  0.5843060000000  0.5535050000000 1.0
C      1  0.4825720000000  0.5897300000000  0.5806680000000 1.0
C      1  0.5421010000000  0.5895200000000  0.5311750000000 1.0
C      1  0.5309540000000  0.4483460000000  0.4973090000000 1.0
C      1  0.5571220000000  0.4392190000000  0.4524600000000 1.0
C      1  0.5754160000000  0.4293350000000  0.4943310000000 1.0
C      1  0.6149760000000  0.4897140000000  0.5423260000000 1.0
C      1  0.4699200000000  0.5047420000000  0.4300300000000 1.0
C      1  0.4920560000000  0.4423730000000  0.4619140000000 1.0
C      1  0.4132790000000  0.5346820000000  0.5182650000000 1.0
C      1  0.5152130000000  0.4733740000000  0.5364170000000 1.0
C      1  0.4372260000000  0.5310680000000  0.5961340000000 1.0
C      1  0.4678680000000  0.5229650000000  0.5118130000000 1.0
C      1  0.5254910000000  0.5546170000000  0.4927160000000 1.0
C      1  0.4437070000000  0.4788040000000  0.5647000000000 1.0
C      1  0.4938960000000  0.4709180000000  0.4537400000000 1.0
C      1  0.3845080000000  0.5129920000000  0.4862100000000 1.0
C      1  0.5151260000000  0.4849530000000  0.6182740000000 1.0
C      1  0.5414520000000  0.3985390000000  0.4806400000000 1.0
C      1  0.6147950000000  0.4838580000000  0.4656820000000 1.0
C      1  0.5777870000000  0.4794060000000  0.4331530000000 1.0
C      1  0.5004480000000  0.4058440000000  0.5737350000000 1.0
C      1  0.4521560000000  0.4927160000000  0.4716540000000 1.0
C      1  0.5571760000000  0.5180140000000  0.4260270000000 1.0
C      1  0.4911550000000  0.5997660000000  0.5324950000000 1.0
C      1  0.4713410000000  0.4262000000000  0.4433430000000 1.0
C      1  0.4425910000000  0.5141860000000  0.5271550000000 1.0
C      1  0.4066640000000  0.5370100000000  0.4415060000000 1.0
C      1  0.5173410000000  0.3941380000000  0.4649990000000 1.0
C      1  0.4039280000000  0.5070640000000  0.5633790000000 1.0
C      1  0.4371280000000  0.5013300000000  0.6022930000000 1.0
C      1  0.4934100000000  0.4336860000000  0.5660890000000 1.0
C      1  0.5275060000000  0.5248840000000  0.5023370000000 1.0
C      1  0.4812740000000  0.5558880000000  0.5483900000000 1.0
C      1  0.4595530000000  0.5406890000000  0.4906290000000 1.0
C      1  0.5914430000000  0.5270310000000  0.4525700000000 1.0
C      1  0.4694330000000  0.5572770000000  0.4300050000000 1.0
C      1  0.4666880000000  0.4068040000000  0.5408470000000 1.0
C      1  0.5620780000000  0.4170050000000  0.4719290000000 1.0
C      1  0.5435150000000  0.4959770000000  0.6198560000000 1.0
C      1  0.5110960000000  0.5244290000000  0.4586190000000 1.0
C      1  0.4945790000000  0.3902420000000  0.4880720000000 1.0
C      1  0.5081760000000  0.6086260000000  0.4849850000000 1.0
C      1  0.4903000000000  0.5441480000000  0.5235060000000 1.0
C      1  0.5291780000000  0.5486510000000  0.4638070000000 1.0
C      1  0.5195430000000  0.4793000000000  0.4391570000000 1.0
C      1  0.3952340000000  0.4961820000000  0.5360720000000 1.0
C      1  0.4574880000000  0.5933480000000  0.4923050000000 1.0
C      1  0.5188470000000  0.6029800000000  0.5424020000000 1.0
C      1  0.4654000000000  0.5433950000000  0.5918910000000 1.0
C      1  0.5636880000000  0.4792490000000  0.4841610000000 1.0
C      1  0.3908600000000  0.5384740000000  0.4705770000000 1.0
C      1  0.5237660000000  0.4744960000000  0.5085930000000 1.0
C      1  0.4959600000000  0.4436360000000  0.3888240000000 1.0
C      1  0.4095140000000  0.4580070000000  0.4034690000000 1.0
C      1  0.6093750000000  0.5358990000000  0.5442620000000 1.0
C      1  0.6123530000000  0.4949290000000  0.4967810000000 1.0
C      1  0.4890420000000  0.5015230000000  0.6196100000000 1.0
C      1  0.4730850000000  0.5813090000000  0.4457270000000 1.0
C      1  0.4668220000000  0.4601170000000  0.5974770000000 1.0
C      1  0.4179300000000  0.4430110000000  0.5683770000000 1.0
C      1  0.4808980000000  0.5311070000000  0.4445500000000 1.0
C      1  0.6205800000000  0.5146920000000  0.5289700000000 1.0
C      1  0.5391620000000  0.4292440000000  0.4311490000000 1.0
C      1  0.4849050000000  0.5608770000000  0.4043980000000 1.0
C      1  0.5599250000000  0.5823530000000  0.5525610000000 1.0
C      1  0.5833660000000  0.4529710000000  0.4438540000000 1.0
C      1  0.4328820000000  0.5626230000000  0.4551990000000 1.0
C      1  0.4656060000000  0.4324390000000  0.5566150000000 1.0
C      1  0.3892910000000  0.5178570000000  0.5164650000000 1.0
C      1  0.4223350000000  0.4392630000000  0.4428680000000 1.0
C      1  0.4354940000000  0.5875750000000  0.5090440000000 1.0
C      1  0.5332130000000  0.5072430000000  0.4452550000000 1.0
C      1  0.5211720000000  0.5762700000000  0.4373100000000 1.0
C      1  0.4398040000000  0.5075240000000  0.4130010000000 1.0
C      1  0.5143580000000  0.4159790000000  0.4442770000000 1.0
C      1  0.5301850000000  0.5241040000000  0.5803940000000 1.0
C      1  0.5175390000000  0.4643610000000  0.5983810000000 1.0
C      1  0.4449780000000  0.5334160000000  0.4014810000000 1.0
C      1  0.4049690000000  0.4943470000000  0.4744170000000 1.0
C      1  0.4122310000000  0.4705330000000  0.4939320000000 1.0
C      1  0.4114660000000  0.5099980000000  0.4276700000000 1.0
C      1  0.5457610000000  0.5207530000000  0.3976970000000 1.0
C      1  0.5554330000000  0.4752800000000  0.4137710000000 1.0
C      1  0.4362210000000  0.4476180000000  0.4013010000000 1.0
C      1  0.4479080000000  0.4500800000000  0.5740020000000 1.0
C      1  0.5584870000000  0.4915600000000  0.5337650000000 1.0
C      1  0.5462360000000  0.4917570000000  0.3918170000000 1.0
C      1  0.4779550000000  0.4637080000000  0.4019570000000 1.0
C      1  0.5707070000000  0.5290720000000  0.5044050000000 1.0
C      1  0.5347340000000  0.5964080000000  0.4811040000000 1.0
C      1  0.5146310000000  0.4042910000000  0.5071550000000 1.0
C      1  0.5524680000000  0.4510480000000  0.5626360000000 1.0
C      1  0.4351000000000  0.5393240000000  0.4757030000000 1.0
C      1  0.5088750000000  0.5090140000000  0.4850680000000 1.0
C      1  0.5859440000000  0.5782180000000  0.5435810000000 1.0
C      1  0.5139000000000  0.5597430000000  0.4099780000000 1.0
C      1  0.5811310000000  0.5522560000000  0.4421180000000 1.0
END
