TITL C-950529-3362-482 -0.000212618755468551 125000 -1081.32337993496 0 0 171 (C1) n - 1
REM
REM in /home/bkarasulu/work/CARBON/AIRSS/Generating-Clusters/EDIP-Nigel-Params/with-SteepDescent/Only-C1/SD-CG/HFTN-CG
REM
REM
REM
REM
REM
REM ./C.cell (11c1c37f851c82e70ff6c80c92926a4b)
REM
REM compiler GCC version 9.2.1 20190827 (Red Hat 9.2.1-1)
REM options -cpp -mtune=generic -march=x86-64 -g -O0 -fpre-include=/usr/include/finclude/math-vector-fortran.h
REM seed -1328406472 -1885780973 1596592533 670531524 1419560754 -458475983 1005554790 -1774584369 1313388413 -1719096458 2088167175 323325776 1445131463 1980152031 -1873485457 546816883 -1950577202 1508400263 1513121608 -295892517 -1580615864 -418224160 901536184 -1736040752 1892738183 1658585258 1689165776 168947003 668954133 1881784958 -1897236908 1072770454 -633798358
REM
CELL 1.54180   50.00000   50.00000   50.00000   90.00000   90.00000   90.00000
LATT -1
SFAC C  
C      1  0.4864110000000  0.5405750000000  0.4619560000000 1.0
C      1  0.4729320000000  0.4789040000000  0.4312650000000 1.0
C      1  0.5746010000000  0.5686130000000  0.4946510000000 1.0
C      1  0.5512280000000  0.4668690000000  0.4173900000000 1.0
C      1  0.4999570000000  0.4187700000000  0.4092190000000 1.0
C      1  0.5429290000000  0.4403870000000  0.4212800000000 1.0
C      1  0.4423050000000  0.4569340000000  0.4229830000000 1.0
C      1  0.5174930000000  0.5896280000000  0.5619280000000 1.0
C      1  0.5406920000000  0.5391630000000  0.4430350000000 1.0
C      1  0.5802080000000  0.4588120000000  0.5151710000000 1.0
C      1  0.5656940000000  0.5739580000000  0.5216830000000 1.0
C      1  0.6126630000000  0.4752340000000  0.4616070000000 1.0
C      1  0.4457760000000  0.4980760000000  0.5336960000000 1.0
C      1  0.5382440000000  0.4377910000000  0.5906150000000 1.0
C      1  0.4022480000000  0.4978840000000  0.4658800000000 1.0
C      1  0.4012320000000  0.5069170000000  0.5183310000000 1.0
C      1  0.4706710000000  0.4875700000000  0.4838200000000 1.0
C      1  0.4244170000000  0.4794700000000  0.4191030000000 1.0
C      1  0.5676550000000  0.5051150000000  0.4329780000000 1.0
C      1  0.5725780000000  0.4448480000000  0.5422490000000 1.0
C      1  0.4516630000000  0.5855980000000  0.5564640000000 1.0
C      1  0.4285460000000  0.4112600000000  0.5043480000000 1.0
C      1  0.5045600000000  0.4134440000000  0.5495780000000 1.0
C      1  0.4820440000000  0.5362900000000  0.4315980000000 1.0
C      1  0.5288220000000  0.5389210000000  0.4873110000000 1.0
C      1  0.4674220000000  0.5532130000000  0.4931840000000 1.0
C      1  0.5562470000000  0.4940480000000  0.4831930000000 1.0
C      1  0.5400960000000  0.4838320000000  0.5357920000000 1.0
C      1  0.4039240000000  0.5128590000000  0.5455870000000 1.0
C      1  0.5590580000000  0.4581800000000  0.5906550000000 1.0
C      1  0.4709270000000  0.4554540000000  0.5139720000000 1.0
C      1  0.5758190000000  0.4771800000000  0.4282240000000 1.0
C      1  0.4925140000000  0.4460920000000  0.4968130000000 1.0
C      1  0.4488250000000  0.5777750000000  0.4437550000000 1.0
C      1  0.4944390000000  0.4490790000000  0.4663100000000 1.0
C      1  0.4978520000000  0.5426950000000  0.3856630000000 1.0
C      1  0.5486690000000  0.4331710000000  0.4492230000000 1.0
C      1  0.5319840000000  0.5893840000000  0.4910200000000 1.0
C      1  0.5327760000000  0.5356280000000  0.6065700000000 1.0
C      1  0.4456270000000  0.5347320000000  0.5022750000000 1.0
C      1  0.6005540000000  0.4837450000000  0.5251800000000 1.0
C      1  0.4788580000000  0.5232020000000  0.5986390000000 1.0
C      1  0.4991070000000  0.5569030000000  0.5873960000000 1.0
C      1  0.5528540000000  0.5464270000000  0.4714670000000 1.0
C      1  0.5234800000000  0.5085860000000  0.5331880000000 1.0
C      1  0.5798270000000  0.5133860000000  0.4786970000000 1.0
C      1  0.4676410000000  0.4486330000000  0.5445790000000 1.0
C      1  0.4834100000000  0.6029030000000  0.4775270000000 1.0
C      1  0.4209630000000  0.5372820000000  0.5482180000000 1.0
C      1  0.4750550000000  0.4197620000000  0.5491900000000 1.0
C      1  0.4333250000000  0.4980470000000  0.4003200000000 1.0
C      1  0.4253010000000  0.5841300000000  0.4860480000000 1.0
C      1  0.5349240000000  0.4806640000000  0.3978860000000 1.0
C      1  0.4238250000000  0.4932420000000  0.5597760000000 1.0
C      1  0.5623260000000  0.5470910000000  0.4201390000000 1.0
C      1  0.4915510000000  0.5999720000000  0.5737910000000 1.0
C      1  0.5122190000000  0.4624520000000  0.5802040000000 1.0
C      1  0.4884850000000  0.4857740000000  0.4078800000000 1.0
C      1  0.5221090000000  0.4635220000000  0.5507100000000 1.0
C      1  0.4909510000000  0.5548150000000  0.5105100000000 1.0
C      1  0.4802600000000  0.5087110000000  0.3904560000000 1.0
C      1  0.4366650000000  0.4078790000000  0.4779200000000 1.0
C      1  0.4042130000000  0.4473530000000  0.4826420000000 1.0
C      1  0.4473980000000  0.4360320000000  0.4423780000000 1.0
C      1  0.5766700000000  0.4402640000000  0.4613580000000 1.0
C      1  0.4616670000000  0.4007390000000  0.5328230000000 1.0
C      1  0.4256760000000  0.4276720000000  0.4597540000000 1.0
C      1  0.5237800000000  0.5641370000000  0.6033470000000 1.0
C      1  0.5385160000000  0.5759810000000  0.5794630000000 1.0
C      1  0.5734840000000  0.4636540000000  0.5647270000000 1.0
C      1  0.5838490000000  0.5294610000000  0.5310490000000 1.0
C      1  0.5836030000000  0.5226180000000  0.4502040000000 1.0
C      1  0.5532600000000  0.5533830000000  0.5664630000000 1.0
C      1  0.5400290000000  0.4480930000000  0.4927720000000 1.0
C      1  0.5551660000000  0.5779810000000  0.4746310000000 1.0
C      1  0.3909810000000  0.4820510000000  0.5120320000000 1.0
C      1  0.4602480000000  0.5426700000000  0.5782520000000 1.0
C      1  0.4691690000000  0.5345870000000  0.5506160000000 1.0
C      1  0.4541210000000  0.5356450000000  0.4222380000000 1.0
C      1  0.5998250000000  0.5278060000000  0.5073910000000 1.0
C      1  0.4100370000000  0.5479090000000  0.4580900000000 1.0
C      1  0.5093800000000  0.5211180000000  0.4721290000000 1.0
C      1  0.5434170000000  0.4859220000000  0.4567210000000 1.0
C      1  0.3924590000000  0.4625080000000  0.5322770000000 1.0
C      1  0.4822610000000  0.4686950000000  0.5701480000000 1.0
C      1  0.4156680000000  0.4472250000000  0.5331400000000 1.0
C      1  0.5206600000000  0.5775460000000  0.4475140000000 1.0
C      1  0.5264470000000  0.5104510000000  0.4486230000000 1.0
C      1  0.5602940000000  0.4149120000000  0.4968350000000 1.0
C      1  0.5691250000000  0.5528230000000  0.5414230000000 1.0
C      1  0.5532880000000  0.5043160000000  0.5785790000000 1.0
C      1  0.4931140000000  0.4093790000000  0.4346570000000 1.0
C      1  0.4148130000000  0.5600580000000  0.5296210000000 1.0
C      1  0.4809600000000  0.4744140000000  0.4586170000000 1.0
C      1  0.4018190000000  0.5263680000000  0.4741540000000 1.0
C      1  0.4756130000000  0.5779530000000  0.5864650000000 1.0
C      1  0.4339730000000  0.4898680000000  0.5062380000000 1.0
C      1  0.4459400000000  0.5278960000000  0.5329450000000 1.0
C      1  0.4473510000000  0.5841830000000  0.5053780000000 1.0
C      1  0.6129400000000  0.5010840000000  0.5050880000000 1.0
C      1  0.4821120000000  0.3880070000000  0.4886060000000 1.0
C      1  0.4760460000000  0.4940050000000  0.5346970000000 1.0
C      1  0.6006290000000  0.4913920000000  0.4813770000000 1.0
C      1  0.5111660000000  0.5144930000000  0.5948960000000 1.0
C      1  0.5175950000000  0.4411640000000  0.5090080000000 1.0
C      1  0.4305340000000  0.5384770000000  0.5775120000000 1.0
C      1  0.4705240000000  0.5973040000000  0.4504020000000 1.0
C      1  0.5141200000000  0.3957040000000  0.4505250000000 1.0
C      1  0.5337530000000  0.3839910000000  0.5194300000000 1.0
C      1  0.5298830000000  0.4544240000000  0.4640640000000 1.0
C      1  0.5182670000000  0.6089570000000  0.4473380000000 1.0
C      1  0.4480540000000  0.5633220000000  0.4197010000000 1.0
C      1  0.5092950000000  0.4668650000000  0.3985680000000 1.0
C      1  0.4650670000000  0.4071810000000  0.4747340000000 1.0
C      1  0.4313370000000  0.5096760000000  0.5843950000000 1.0
C      1  0.5817790000000  0.4354670000000  0.4910380000000 1.0
C      1  0.5423150000000  0.4152320000000  0.5731480000000 1.0
C      1  0.5224620000000  0.4369640000000  0.5378350000000 1.0
C      1  0.4353380000000  0.4619180000000  0.5784660000000 1.0
C      1  0.5339680000000  0.5094860000000  0.3977060000000 1.0
C      1  0.5214730000000  0.5633250000000  0.4218590000000 1.0
C      1  0.4975970000000  0.5055800000000  0.5187210000000 1.0
C      1  0.5192620000000  0.4852230000000  0.5999530000000 1.0
C      1  0.4933900000000  0.6018660000000  0.4334470000000 1.0
C      1  0.5536050000000  0.5320260000000  0.5860370000000 1.0
C      1  0.4811990000000  0.3861290000000  0.5180760000000 1.0
C      1  0.5071360000000  0.3914010000000  0.5303310000000 1.0
C      1  0.4100810000000  0.4899670000000  0.4404640000000 1.0
C      1  0.4234480000000  0.4402490000000  0.5053610000000 1.0
C      1  0.5151800000000  0.5213960000000  0.3794340000000 1.0
C      1  0.5411620000000  0.5896870000000  0.5190210000000 1.0
C      1  0.5427570000000  0.4036650000000  0.4516240000000 1.0
C      1  0.5086050000000  0.3873940000000  0.4774240000000 1.0
C      1  0.4881740000000  0.5533670000000  0.5391830000000 1.0
C      1  0.5150340000000  0.5185800000000  0.5611090000000 1.0
C      1  0.4273230000000  0.5700770000000  0.4616300000000 1.0
C      1  0.5167430000000  0.4029920000000  0.5738750000000 1.0
C      1  0.5640300000000  0.4899700000000  0.5552670000000 1.0
C      1  0.4184240000000  0.5495190000000  0.4998180000000 1.0
C      1  0.5083750000000  0.6230720000000  0.5267050000000 1.0
C      1  0.5137240000000  0.5635780000000  0.4930730000000 1.0
C      1  0.4718240000000  0.6060250000000  0.5528630000000 1.0
C      1  0.5133870000000  0.6112090000000  0.4769880000000 1.0
C      1  0.4750800000000  0.4252220000000  0.4527950000000 1.0
C      1  0.4354550000000  0.5810650000000  0.5325790000000 1.0
C      1  0.5536880000000  0.4728980000000  0.5060780000000 1.0
C      1  0.5328420000000  0.3777110000000  0.4904330000000 1.0
C      1  0.5268190000000  0.6052280000000  0.5384580000000 1.0
C      1  0.4965860000000  0.5534500000000  0.4123830000000 1.0
C      1  0.5145550000000  0.4419990000000  0.4137360000000 1.0
C      1  0.3978130000000  0.4757330000000  0.4849790000000 1.0
C      1  0.4603170000000  0.4719250000000  0.5903930000000 1.0
C      1  0.5557540000000  0.4035590000000  0.5242980000000 1.0
C      1  0.4572570000000  0.5012020000000  0.5954690000000 1.0
C      1  0.4853720000000  0.5009310000000  0.5615020000000 1.0
C      1  0.4463010000000  0.4612930000000  0.4991530000000 1.0
C      1  0.5903660000000  0.4628230000000  0.4492280000000 1.0
C      1  0.4971400000000  0.5004520000000  0.4907400000000 1.0
C      1  0.5840150000000  0.5485190000000  0.4388630000000 1.0
C      1  0.4840360000000  0.6094740000000  0.5268780000000 1.0
C      1  0.5501470000000  0.4245960000000  0.5446540000000 1.0
C      1  0.4524390000000  0.5185180000000  0.3981160000000 1.0
C      1  0.5483570000000  0.4849030000000  0.5997090000000 1.0
C      1  0.4680550000000  0.6052850000000  0.5030010000000 1.0
C      1  0.5593980000000  0.5200850000000  0.4077630000000 1.0
C      1  0.4989750000000  0.5682200000000  0.4671450000000 1.0
C      1  0.5864100000000  0.5031060000000  0.5422250000000 1.0
C      1  0.5545950000000  0.3931270000000  0.4767490000000 1.0
C      1  0.5103010000000  0.5507970000000  0.5583440000000 1.0
C      1  0.4383110000000  0.4525720000000  0.5514820000000 1.0
C      1  0.4467880000000  0.5087370000000  0.4862660000000 1.0
END
