TITL C-951335-1172-552 6.00224105746707e-07 125000 -114.025740380121 0 0 20 (C1) n - 1
REM
REM in /home/bkarasulu/work/CARBON/AIRSS/Generating-Clusters/EDIP-Nigel-Params/with-SteepDescent/Only-C1/SD-CG/HFTN-CG
REM
REM
REM
REM
REM
REM ./C.cell (11c1c37f851c82e70ff6c80c92926a4b)
REM
REM compiler GCC version 9.2.1 20190827 (Red Hat 9.2.1-1)
REM options -cpp -mtune=generic -march=x86-64 -g -O0 -fpre-include=/usr/include/finclude/math-vector-fortran.h
REM seed 699872484 1579065272 1183916263 938356631 -1975815703 872397893 411513467 151432890 381162224 1905372961 955990084 866609802 -103962703 -310032144 413796128 375361942 -1590326338 -224144287 1279578002 -1340737857 1404020294 -1968004916 -898805100 358791081 -652033689 -755693388 658662618 178264446 -426628707 1135847053 -356740274 1157517765 1044582294
REM
CELL 1.54180   50.00000   50.00000   50.00000   90.00000   90.00000   90.00000
LATT -1
SFAC C  
C      1  0.5123100000000  0.5160730000000  0.5054220000000 1.0
C      1  0.4442280000000  0.4837780000000  0.5336520000000 1.0
C      1  0.5303750000000  0.5363760000000  0.5136990000000 1.0
C      1  0.4451450000000  0.4429080000000  0.4708300000000 1.0
C      1  0.5639130000000  0.5673370000000  0.4952670000000 1.0
C      1  0.4526400000000  0.5021900000000  0.5518140000000 1.0
C      1  0.4379010000000  0.4535070000000  0.4953820000000 1.0
C      1  0.5805810000000  0.5814300000000  0.5133910000000 1.0
C      1  0.4751300000000  0.5107160000000  0.5392090000000 1.0
C      1  0.4527320000000  0.4734790000000  0.5090080000000 1.0
C      1  0.4766220000000  0.4848800000000  0.4987880000000 1.0
C      1  0.5233660000000  0.5078240000000  0.4805990000000 1.0
C      1  0.5545470000000  0.5406130000000  0.4998570000000 1.0
C      1  0.4739200000000  0.4090290000000  0.4874970000000 1.0
C      1  0.4881010000000  0.5046810000000  0.5151980000000 1.0
C      1  0.5120110000000  0.4888140000000  0.4636760000000 1.0
C      1  0.4498290000000  0.4188870000000  0.4837330000000 1.0
C      1  0.5910030000000  0.5737180000000  0.4897570000000 1.0
C      1  0.5460420000000  0.5247740000000  0.4781590000000 1.0
C      1  0.4896050000000  0.4789870000000  0.4750600000000 1.0
END
