TITL C-950523-3027-396 -2.94197852356501e-07 125000 -773.781423538349 0 0 125 (C1) n - 1
REM
REM in /home/bkarasulu/work/CARBON/AIRSS/Generating-Clusters/EDIP-Nigel-Params/with-SteepDescent/Only-C1/SD-CG/HFTN-CG
REM
REM
REM
REM
REM
REM ./C.cell (11c1c37f851c82e70ff6c80c92926a4b)
REM
REM compiler GCC version 9.2.1 20190827 (Red Hat 9.2.1-1)
REM options -cpp -mtune=generic -march=x86-64 -g -O0 -fpre-include=/usr/include/finclude/math-vector-fortran.h
REM seed -1661407853 471178231 1385827575 -438120677 -773692843 -1436540318 -1472990299 1429334816 -1413896739 -2107129403 -959544689 421709565 -1592153946 -516114991 -166988385 -1033659596 -1696267902 -858431506 1739446480 2115628417 376272233 -584276284 -1238560619 -517023657 456119471 -1117787654 -861284671 233531723 -829645236 782521946 -616459791 1327590544 427942251
REM
CELL 1.54180   50.00000   50.00000   50.00000   90.00000   90.00000   90.00000
LATT -1
SFAC C  
C      1  0.5824910000000  0.5195210000000  0.4547200000000 1.0
C      1  0.4878390000000  0.5596180000000  0.4327260000000 1.0
C      1  0.4234200000000  0.5195580000000  0.5104240000000 1.0
C      1  0.4355270000000  0.5707870000000  0.4985130000000 1.0
C      1  0.4556150000000  0.5213610000000  0.4456350000000 1.0
C      1  0.4877570000000  0.4980720000000  0.5488980000000 1.0
C      1  0.4296140000000  0.5072200000000  0.4397920000000 1.0
C      1  0.4074010000000  0.4725340000000  0.4694730000000 1.0
C      1  0.4212430000000  0.5352950000000  0.5460110000000 1.0
C      1  0.4507150000000  0.4283660000000  0.4790810000000 1.0
C      1  0.4899000000000  0.4097070000000  0.4490510000000 1.0
C      1  0.4971570000000  0.4451560000000  0.4724580000000 1.0
C      1  0.4174050000000  0.4475630000000  0.5111610000000 1.0
C      1  0.5597010000000  0.5774760000000  0.4983220000000 1.0
C      1  0.5974100000000  0.4873130000000  0.4891030000000 1.0
C      1  0.5325350000000  0.5631230000000  0.5811730000000 1.0
C      1  0.5417810000000  0.5381260000000  0.4313260000000 1.0
C      1  0.5273610000000  0.4149410000000  0.4828610000000 1.0
C      1  0.5193170000000  0.5352460000000  0.4991930000000 1.0
C      1  0.5094240000000  0.6012500000000  0.4918190000000 1.0
C      1  0.5032440000000  0.5000040000000  0.5242150000000 1.0
C      1  0.5405380000000  0.4793760000000  0.4971090000000 1.0
C      1  0.5429660000000  0.5602180000000  0.4508290000000 1.0
C      1  0.4682300000000  0.4958510000000  0.5970590000000 1.0
C      1  0.5167770000000  0.5617780000000  0.5102020000000 1.0
C      1  0.5541320000000  0.4922230000000  0.4239870000000 1.0
C      1  0.5702340000000  0.4303250000000  0.4603230000000 1.0
C      1  0.5088380000000  0.4343640000000  0.5259580000000 1.0
C      1  0.5284820000000  0.5917320000000  0.5408710000000 1.0
C      1  0.5473440000000  0.5774970000000  0.5594800000000 1.0
C      1  0.5122430000000  0.4782570000000  0.5069270000000 1.0
C      1  0.4130100000000  0.4824850000000  0.5472220000000 1.0
C      1  0.5181440000000  0.5365360000000  0.4684000000000 1.0
C      1  0.5878510000000  0.4608130000000  0.5230540000000 1.0
C      1  0.4589080000000  0.4992530000000  0.5399970000000 1.0
C      1  0.4716590000000  0.5224090000000  0.4923270000000 1.0
C      1  0.5775680000000  0.5624310000000  0.5180330000000 1.0
C      1  0.5577610000000  0.4561270000000  0.5192250000000 1.0
C      1  0.4965220000000  0.4982620000000  0.5995360000000 1.0
C      1  0.4464240000000  0.4364920000000  0.5099060000000 1.0
C      1  0.4981770000000  0.5748830000000  0.5483490000000 1.0
C      1  0.4945790000000  0.5264870000000  0.5661930000000 1.0
C      1  0.5620580000000  0.4722950000000  0.5762680000000 1.0
C      1  0.5358320000000  0.4645750000000  0.5415550000000 1.0
C      1  0.5524020000000  0.4127930000000  0.4707490000000 1.0
C      1  0.5536980000000  0.4278600000000  0.5161560000000 1.0
C      1  0.5880910000000  0.4910980000000  0.4612610000000 1.0
C      1  0.4553030000000  0.4276790000000  0.5401730000000 1.0
C      1  0.4495490000000  0.4789720000000  0.4962690000000 1.0
C      1  0.4695090000000  0.4286500000000  0.4129140000000 1.0
C      1  0.4831770000000  0.5941020000000  0.5067880000000 1.0
C      1  0.5385800000000  0.4893640000000  0.4691230000000 1.0
C      1  0.4622620000000  0.5818040000000  0.4887970000000 1.0
C      1  0.4632210000000  0.4494530000000  0.4310410000000 1.0
C      1  0.5073870000000  0.5867050000000  0.4676000000000 1.0
C      1  0.4509560000000  0.5059440000000  0.5098020000000 1.0
C      1  0.5287870000000  0.4399360000000  0.5576030000000 1.0
C      1  0.4864810000000  0.4228670000000  0.5437130000000 1.0
C      1  0.4208660000000  0.4704640000000  0.4942430000000 1.0
C      1  0.4074740000000  0.5202000000000  0.4837110000000 1.0
C      1  0.5286050000000  0.4169720000000  0.5113940000000 1.0
C      1  0.4694190000000  0.5212840000000  0.4097980000000 1.0
C      1  0.5428420000000  0.5361370000000  0.5434640000000 1.0
C      1  0.5320900000000  0.5875150000000  0.5098660000000 1.0
C      1  0.5071190000000  0.4692720000000  0.4087590000000 1.0
C      1  0.4062160000000  0.4581970000000  0.5344360000000 1.0
C      1  0.5600850000000  0.4794130000000  0.4506840000000 1.0
C      1  0.4836480000000  0.3942040000000  0.4898800000000 1.0
C      1  0.5556090000000  0.5009150000000  0.5113340000000 1.0
C      1  0.5124550000000  0.4793350000000  0.5834970000000 1.0
C      1  0.4507670000000  0.5505210000000  0.4553770000000 1.0
C      1  0.4717610000000  0.5547980000000  0.4768530000000 1.0
C      1  0.4905080000000  0.5691150000000  0.5206090000000 1.0
C      1  0.5854780000000  0.5040380000000  0.5118290000000 1.0
C      1  0.5377950000000  0.4877650000000  0.5685630000000 1.0
C      1  0.4602760000000  0.5674780000000  0.4333210000000 1.0
C      1  0.5246780000000  0.4936080000000  0.4186590000000 1.0
C      1  0.4611890000000  0.4022240000000  0.4742360000000 1.0
C      1  0.5329910000000  0.5344270000000  0.5889820000000 1.0
C      1  0.4336110000000  0.4899200000000  0.4179100000000 1.0
C      1  0.4796710000000  0.4451910000000  0.5655520000000 1.0
C      1  0.5439580000000  0.5175220000000  0.5673790000000 1.0
C      1  0.5646630000000  0.5569330000000  0.5455990000000 1.0
C      1  0.5808860000000  0.5405730000000  0.4755940000000 1.0
C      1  0.5127800000000  0.5051440000000  0.4592810000000 1.0
C      1  0.4964810000000  0.4703110000000  0.5607670000000 1.0
C      1  0.5048680000000  0.4012890000000  0.4721080000000 1.0
C      1  0.4974800000000  0.5601700000000  0.4609890000000 1.0
C      1  0.5161660000000  0.4414550000000  0.4191450000000 1.0
C      1  0.4482630000000  0.5740360000000  0.5443650000000 1.0
C      1  0.5941380000000  0.4859790000000  0.5375110000000 1.0
C      1  0.4619420000000  0.4785290000000  0.4703820000000 1.0
C      1  0.4917110000000  0.5328400000000  0.4230070000000 1.0
C      1  0.4333060000000  0.5582600000000  0.5265840000000 1.0
C      1  0.5548040000000  0.4451580000000  0.5695490000000 1.0
C      1  0.4956310000000  0.5228540000000  0.5091260000000 1.0
C      1  0.4659320000000  0.4593780000000  0.5115580000000 1.0
C      1  0.5645030000000  0.5198920000000  0.4308120000000 1.0
C      1  0.5842510000000  0.4836200000000  0.5636250000000 1.0
C      1  0.4704980000000  0.5690440000000  0.5603780000000 1.0
C      1  0.5088200000000  0.5244250000000  0.6017160000000 1.0
C      1  0.5260880000000  0.4455940000000  0.4466860000000 1.0
C      1  0.4118710000000  0.4998440000000  0.4624710000000 1.0
C      1  0.5014940000000  0.4743970000000  0.4513960000000 1.0
C      1  0.5131450000000  0.5475690000000  0.5520940000000 1.0
C      1  0.4019300000000  0.5454400000000  0.4733040000000 1.0
C      1  0.4947300000000  0.4199450000000  0.4220200000000 1.0
C      1  0.4062800000000  0.5089120000000  0.5343410000000 1.0
C      1  0.4446000000000  0.4991620000000  0.5820590000000 1.0
C      1  0.4797890000000  0.4733540000000  0.4239880000000 1.0
C      1  0.4499370000000  0.4517940000000  0.5614650000000 1.0
C      1  0.4749140000000  0.5056950000000  0.4658600000000 1.0
C      1  0.5899060000000  0.5373630000000  0.5037380000000 1.0
C      1  0.4956000000000  0.4538190000000  0.5043960000000 1.0
C      1  0.5424680000000  0.5257330000000  0.5153670000000 1.0
C      1  0.4408490000000  0.4812420000000  0.5578150000000 1.0
C      1  0.4667090000000  0.4490220000000  0.4621770000000 1.0
C      1  0.4610810000000  0.4938580000000  0.4116660000000 1.0
C      1  0.5186130000000  0.5228280000000  0.4200310000000 1.0
C      1  0.6011990000000  0.4607740000000  0.4979870000000 1.0
C      1  0.4691500000000  0.5415590000000  0.5700290000000 1.0
C      1  0.5553870000000  0.4503540000000  0.4477640000000 1.0
C      1  0.4261720000000  0.5588390000000  0.4728010000000 1.0
C      1  0.4445030000000  0.5253430000000  0.5654090000000 1.0
C      1  0.5628160000000  0.5630230000000  0.4719480000000 1.0
END
