TITL C-951336-9012-180 4.22341771055543e-06 125000 -617.04990164995 0 0 99 (C1) n - 1
REM
REM in /home/bkarasulu/work/CARBON/AIRSS/Generating-Clusters/EDIP-Nigel-Params/with-SteepDescent/Only-C1/SD-CG/HFTN-CG
REM
REM
REM
REM
REM
REM ./C.cell (11c1c37f851c82e70ff6c80c92926a4b)
REM
REM compiler GCC version 9.2.1 20190827 (Red Hat 9.2.1-1)
REM options -cpp -mtune=generic -march=x86-64 -g -O0 -fpre-include=/usr/include/finclude/math-vector-fortran.h
REM seed 909655184 -1930616696 251383198 1739953696 -208627894 -1640846147 1630810578 -773653228 -1263942009 1617708074 -1233741053 -2028230758 -33465931 -1226226278 -455360355 -1478225363 404898724 -785831528 471592194 585408375 -1830624825 1844119583 1626154922 -1337713209 2137151109 -1829571427 2128500221 1544107065 -1573119170 49226679 1019063215 -391784524 1732495201
REM
CELL 1.54180   50.00000   50.00000   50.00000   90.00000   90.00000   90.00000
LATT -1
SFAC C  
C      1  0.5041610000000  0.5243890000000  0.4507960000000 1.0
C      1  0.5251980000000  0.5342040000000  0.4697450000000 1.0
C      1  0.5011760000000  0.4521530000000  0.4590520000000 1.0
C      1  0.5362130000000  0.4771490000000  0.5797260000000 1.0
C      1  0.5333100000000  0.5731550000000  0.4420050000000 1.0
C      1  0.5475300000000  0.4578810000000  0.4950480000000 1.0
C      1  0.5502610000000  0.5337350000000  0.4238880000000 1.0
C      1  0.4786750000000  0.4167070000000  0.4742310000000 1.0
C      1  0.5243030000000  0.4632460000000  0.4326190000000 1.0
C      1  0.4986820000000  0.4635540000000  0.5375220000000 1.0
C      1  0.4913790000000  0.5316410000000  0.5767630000000 1.0
C      1  0.4653690000000  0.5851550000000  0.5015070000000 1.0
C      1  0.5680810000000  0.5385250000000  0.4479720000000 1.0
C      1  0.4403800000000  0.4509510000000  0.5162900000000 1.0
C      1  0.5105750000000  0.5756220000000  0.4825970000000 1.0
C      1  0.5651530000000  0.5101250000000  0.5664420000000 1.0
C      1  0.4310630000000  0.5116560000000  0.5747460000000 1.0
C      1  0.5248160000000  0.4127020000000  0.4611650000000 1.0
C      1  0.4894300000000  0.5006330000000  0.4663970000000 1.0
C      1  0.5708780000000  0.5328920000000  0.5471350000000 1.0
C      1  0.5088370000000  0.4596660000000  0.4883990000000 1.0
C      1  0.4455080000000  0.5287250000000  0.4498030000000 1.0
C      1  0.4796170000000  0.5489380000000  0.5332830000000 1.0
C      1  0.4670270000000  0.4968940000000  0.5149660000000 1.0
C      1  0.4619630000000  0.4081980000000  0.5272350000000 1.0
C      1  0.5751780000000  0.5350440000000  0.4972920000000 1.0
C      1  0.5314350000000  0.4292820000000  0.5362550000000 1.0
C      1  0.4954710000000  0.5924790000000  0.5021480000000 1.0
C      1  0.5450860000000  0.4829770000000  0.4340550000000 1.0
C      1  0.4890540000000  0.5516730000000  0.4429660000000 1.0
C      1  0.5057500000000  0.5033000000000  0.4123170000000 1.0
C      1  0.4481550000000  0.4836210000000  0.4286230000000 1.0
C      1  0.5132590000000  0.5825870000000  0.5266090000000 1.0
C      1  0.4990620000000  0.4226920000000  0.4543110000000 1.0
C      1  0.5680080000000  0.4778260000000  0.4494500000000 1.0
C      1  0.5472650000000  0.5564690000000  0.4637610000000 1.0
C      1  0.4455120000000  0.4362170000000  0.4428190000000 1.0
C      1  0.5238000000000  0.4117820000000  0.4895630000000 1.0
C      1  0.4754060000000  0.5259910000000  0.5523310000000 1.0
C      1  0.5701490000000  0.5180540000000  0.4726140000000 1.0
C      1  0.4301520000000  0.4421760000000  0.4886970000000 1.0
C      1  0.4189450000000  0.4946530000000  0.5177490000000 1.0
C      1  0.4452230000000  0.4885430000000  0.5808660000000 1.0
C      1  0.4545520000000  0.5628830000000  0.5230570000000 1.0
C      1  0.4398890000000  0.4634720000000  0.4472230000000 1.0
C      1  0.4874520000000  0.4200750000000  0.5204760000000 1.0
C      1  0.5351550000000  0.5155490000000  0.5192340000000 1.0
C      1  0.4371340000000  0.5408990000000  0.5079880000000 1.0
C      1  0.4402510000000  0.5145440000000  0.5248120000000 1.0
C      1  0.4684240000000  0.4944450000000  0.5955660000000 1.0
C      1  0.4461140000000  0.4708300000000  0.5576190000000 1.0
C      1  0.5358280000000  0.5041210000000  0.5695270000000 1.0
C      1  0.4998340000000  0.4759350000000  0.4220030000000 1.0
C      1  0.5601250000000  0.5606250000000  0.4946420000000 1.0
C      1  0.5657370000000  0.5196330000000  0.5211500000000 1.0
C      1  0.4694440000000  0.5127950000000  0.4880280000000 1.0
C      1  0.5088730000000  0.5555170000000  0.5705890000000 1.0
C      1  0.5207900000000  0.5437200000000  0.5181220000000 1.0
C      1  0.4495770000000  0.4264760000000  0.4695050000000 1.0
C      1  0.4645860000000  0.4667240000000  0.5092360000000 1.0
C      1  0.5051950000000  0.4204060000000  0.5451120000000 1.0
C      1  0.5417790000000  0.5111630000000  0.4746880000000 1.0
C      1  0.5549360000000  0.5576240000000  0.5490240000000 1.0
C      1  0.5361530000000  0.5579090000000  0.4182370000000 1.0
C      1  0.4253050000000  0.4701130000000  0.5340480000000 1.0
C      1  0.4270490000000  0.4673880000000  0.4731190000000 1.0
C      1  0.5227980000000  0.4999360000000  0.5416630000000 1.0
C      1  0.4906360000000  0.4437510000000  0.5594870000000 1.0
C      1  0.4233810000000  0.4934750000000  0.4870060000000 1.0
C      1  0.4404780000000  0.5183100000000  0.4785560000000 1.0
C      1  0.5369800000000  0.5583580000000  0.5709120000000 1.0
C      1  0.5717800000000  0.4831780000000  0.5517890000000 1.0
C      1  0.4958370000000  0.4063000000000  0.4963680000000 1.0
C      1  0.4608820000000  0.5534590000000  0.4531120000000 1.0
C      1  0.5488030000000  0.4639830000000  0.5573760000000 1.0
C      1  0.5300020000000  0.4675230000000  0.5336210000000 1.0
C      1  0.4816870000000  0.4759770000000  0.4467450000000 1.0
C      1  0.5057890000000  0.5763860000000  0.4525710000000 1.0
C      1  0.5802430000000  0.4890670000000  0.4721180000000 1.0
C      1  0.5321380000000  0.5097350000000  0.4280670000000 1.0
C      1  0.4971050000000  0.5678810000000  0.5465290000000 1.0
C      1  0.5087670000000  0.5470240000000  0.4915380000000 1.0
C      1  0.4808860000000  0.5201340000000  0.4130280000000 1.0
C      1  0.4471750000000  0.4295870000000  0.5362910000000 1.0
C      1  0.4450380000000  0.5232220000000  0.5533650000000 1.0
C      1  0.4861800000000  0.5147320000000  0.5985610000000 1.0
C      1  0.5430250000000  0.5646890000000  0.5213640000000 1.0
C      1  0.5063650000000  0.4882010000000  0.4883710000000 1.0
C      1  0.5370070000000  0.4320940000000  0.5077680000000 1.0
C      1  0.5765570000000  0.4917620000000  0.5226870000000 1.0
C      1  0.4891080000000  0.4513580000000  0.5118270000000 1.0
C      1  0.4594410000000  0.4439960000000  0.5595660000000 1.0
C      1  0.5333910000000  0.4944090000000  0.4959960000000 1.0
C      1  0.4590320000000  0.5102480000000  0.4313670000000 1.0
C      1  0.4881060000000  0.5013850000000  0.5384990000000 1.0
C      1  0.4613910000000  0.5601970000000  0.4820260000000 1.0
C      1  0.4796990000000  0.5399460000000  0.4951780000000 1.0
C      1  0.4867190000000  0.5483620000000  0.4140340000000 1.0
C      1  0.5728940000000  0.4746280000000  0.4978580000000 1.0
END
