TITL C-950528-5794-553 -3.53497636900386e-06 125000 -927.655541857697 0 0 148 (C1) n - 1
REM
REM in /home/bkarasulu/work/CARBON/AIRSS/Generating-Clusters/EDIP-Nigel-Params/with-SteepDescent/Only-C1/SD-CG/HFTN-CG
REM
REM
REM
REM
REM
REM ./C.cell (11c1c37f851c82e70ff6c80c92926a4b)
REM
REM compiler GCC version 9.2.1 20190827 (Red Hat 9.2.1-1)
REM options -cpp -mtune=generic -march=x86-64 -g -O0 -fpre-include=/usr/include/finclude/math-vector-fortran.h
REM seed -451667241 272035444 -1332087076 -2056926234 692352519 -120284311 -298929935 934704968 -174550678 -1759260982 776907777 1594857460 872048353 -1238489042 1056743152 -1607750150 548205158 1984823120 908638532 523487381 -1581691992 -240384662 -626858903 -2042946019 877273197 -2059149827 534580706 -1129947726 -1766708854 -291953051 -242794089 2141368853 2009354431
REM
CELL 1.54180   50.00000   50.00000   50.00000   90.00000   90.00000   90.00000
LATT -1
SFAC C  
C      1  0.5016450000000  0.4558020000000  0.4902070000000 1.0
C      1  0.5043870000000  0.4166300000000  0.4484040000000 1.0
C      1  0.4753440000000  0.5720580000000  0.5689590000000 1.0
C      1  0.5767010000000  0.4945440000000  0.5518330000000 1.0
C      1  0.5312630000000  0.3907640000000  0.4870040000000 1.0
C      1  0.4671300000000  0.5651670000000  0.4287770000000 1.0
C      1  0.5751420000000  0.4568380000000  0.4409490000000 1.0
C      1  0.6027690000000  0.4842550000000  0.5105540000000 1.0
C      1  0.4598490000000  0.4931640000000  0.5334690000000 1.0
C      1  0.4404320000000  0.5786570000000  0.5197570000000 1.0
C      1  0.4635890000000  0.4714290000000  0.4111980000000 1.0
C      1  0.5102430000000  0.4907870000000  0.5973210000000 1.0
C      1  0.4388200000000  0.5417360000000  0.5825970000000 1.0
C      1  0.5727110000000  0.4967740000000  0.4644030000000 1.0
C      1  0.5320670000000  0.4721270000000  0.5256700000000 1.0
C      1  0.4666050000000  0.4561980000000  0.5658130000000 1.0
C      1  0.5922040000000  0.4742190000000  0.4837940000000 1.0
C      1  0.5488860000000  0.4408130000000  0.4846120000000 1.0
C      1  0.4903940000000  0.6127860000000  0.4703040000000 1.0
C      1  0.4818310000000  0.4280920000000  0.5278950000000 1.0
C      1  0.5378160000000  0.4690410000000  0.4110870000000 1.0
C      1  0.4464060000000  0.4691320000000  0.5473680000000 1.0
C      1  0.4681020000000  0.5776070000000  0.4566370000000 1.0
C      1  0.5092860000000  0.5205430000000  0.5980890000000 1.0
C      1  0.5658600000000  0.4731560000000  0.4197120000000 1.0
C      1  0.4623230000000  0.5320530000000  0.5089820000000 1.0
C      1  0.5115100000000  0.5745930000000  0.5085780000000 1.0
C      1  0.4526150000000  0.5399020000000  0.4825140000000 1.0
C      1  0.4523440000000  0.4249260000000  0.5233410000000 1.0
C      1  0.4828330000000  0.4832150000000  0.6062830000000 1.0
C      1  0.4485860000000  0.4947950000000  0.4209320000000 1.0
C      1  0.5446470000000  0.4863700000000  0.4653460000000 1.0
C      1  0.5532180000000  0.5965480000000  0.4891450000000 1.0
C      1  0.4382100000000  0.4494540000000  0.5268430000000 1.0
C      1  0.4945240000000  0.4941530000000  0.4669210000000 1.0
C      1  0.5453210000000  0.4252340000000  0.4315770000000 1.0
C      1  0.4193920000000  0.5071950000000  0.4581740000000 1.0
C      1  0.5060300000000  0.5984930000000  0.5383940000000 1.0
C      1  0.4449450000000  0.5462000000000  0.4225810000000 1.0
C      1  0.5616610000000  0.5467650000000  0.4497340000000 1.0
C      1  0.4470580000000  0.4984620000000  0.4683720000000 1.0
C      1  0.4780610000000  0.6061490000000  0.4949090000000 1.0
C      1  0.4694200000000  0.4641380000000  0.5918830000000 1.0
C      1  0.3989220000000  0.4905120000000  0.4709380000000 1.0
C      1  0.4989650000000  0.5309630000000  0.5565960000000 1.0
C      1  0.4713260000000  0.5097940000000  0.4559330000000 1.0
C      1  0.5396020000000  0.5385260000000  0.4323330000000 1.0
C      1  0.4553890000000  0.5216700000000  0.4092440000000 1.0
C      1  0.5413930000000  0.5758370000000  0.5062010000000 1.0
C      1  0.5008470000000  0.5752360000000  0.5546950000000 1.0
C      1  0.5405550000000  0.4096990000000  0.5258940000000 1.0
C      1  0.4457090000000  0.4156570000000  0.4955900000000 1.0
C      1  0.5850110000000  0.5323330000000  0.5198030000000 1.0
C      1  0.4216680000000  0.4833950000000  0.5585100000000 1.0
C      1  0.5360130000000  0.5336550000000  0.5270170000000 1.0
C      1  0.4672810000000  0.5403190000000  0.5395120000000 1.0
C      1  0.5474610000000  0.5461870000000  0.5003400000000 1.0
C      1  0.5499170000000  0.5013640000000  0.5650890000000 1.0
C      1  0.4540290000000  0.4718930000000  0.4821070000000 1.0
C      1  0.5728890000000  0.5273800000000  0.4697420000000 1.0
C      1  0.4912200000000  0.5296300000000  0.5037180000000 1.0
C      1  0.4231860000000  0.4331130000000  0.4844800000000 1.0
C      1  0.5369540000000  0.6150090000000  0.4759950000000 1.0
C      1  0.4993430000000  0.5708820000000  0.4782480000000 1.0
C      1  0.4680240000000  0.5460730000000  0.5837410000000 1.0
C      1  0.4867760000000  0.4020480000000  0.4660640000000 1.0
C      1  0.4214740000000  0.4907560000000  0.4327220000000 1.0
C      1  0.4989210000000  0.5414270000000  0.4777800000000 1.0
C      1  0.4912910000000  0.4496530000000  0.5500360000000 1.0
C      1  0.5657390000000  0.4253960000000  0.5334920000000 1.0
C      1  0.4831070000000  0.4798390000000  0.3928700000000 1.0
C      1  0.4460110000000  0.5069560000000  0.5115530000000 1.0
C      1  0.5367490000000  0.5035250000000  0.5229120000000 1.0
C      1  0.4855870000000  0.4888950000000  0.5201350000000 1.0
C      1  0.4930510000000  0.4018930000000  0.5356450000000 1.0
C      1  0.4189090000000  0.5487650000000  0.4327920000000 1.0
C      1  0.5465270000000  0.5153170000000  0.4164570000000 1.0
C      1  0.5849090000000  0.5405020000000  0.4925050000000 1.0
C      1  0.5021640000000  0.3849390000000  0.4860740000000 1.0
C      1  0.5198220000000  0.5773320000000  0.4548240000000 1.0
C      1  0.5597530000000  0.4934450000000  0.5055810000000 1.0
C      1  0.4978400000000  0.4720840000000  0.4471120000000 1.0
C      1  0.4533370000000  0.5911130000000  0.4963370000000 1.0
C      1  0.5329120000000  0.5644230000000  0.5971170000000 1.0
C      1  0.4704020000000  0.4231230000000  0.4796350000000 1.0
C      1  0.5337750000000  0.5357610000000  0.5994590000000 1.0
C      1  0.4826330000000  0.5307140000000  0.6046860000000 1.0
C      1  0.5115070000000  0.4510620000000  0.4624680000000 1.0
C      1  0.5275880000000  0.4204820000000  0.4967490000000 1.0
C      1  0.4005660000000  0.4694710000000  0.5132940000000 1.0
C      1  0.4692820000000  0.5070470000000  0.6129140000000 1.0
C      1  0.4421400000000  0.5813960000000  0.4712490000000 1.0
C      1  0.4012060000000  0.4751910000000  0.5410840000000 1.0
C      1  0.4269040000000  0.4583420000000  0.5016240000000 1.0
C      1  0.4912850000000  0.5498800000000  0.4220020000000 1.0
C      1  0.5175070000000  0.5584150000000  0.4304960000000 1.0
C      1  0.4836310000000  0.4783210000000  0.4920690000000 1.0
C      1  0.5899690000000  0.4379110000000  0.5163020000000 1.0
C      1  0.5365110000000  0.4787350000000  0.5823770000000 1.0
C      1  0.5040360000000  0.4769200000000  0.5388660000000 1.0
C      1  0.4197670000000  0.5587420000000  0.5126090000000 1.0
C      1  0.5527500000000  0.5274050000000  0.5790300000000 1.0
C      1  0.4994330000000  0.5016460000000  0.3992370000000 1.0
C      1  0.4285700000000  0.5136070000000  0.5592640000000 1.0
C      1  0.4584810000000  0.4482040000000  0.4611130000000 1.0
C      1  0.5698250000000  0.5008150000000  0.4267510000000 1.0
C      1  0.4140710000000  0.5383300000000  0.4581850000000 1.0
C      1  0.4931670000000  0.4305450000000  0.4995960000000 1.0
C      1  0.5825790000000  0.5027530000000  0.5230520000000 1.0
C      1  0.4274150000000  0.5574560000000  0.5605090000000 1.0
C      1  0.5707800000000  0.4290580000000  0.4431030000000 1.0
C      1  0.4844510000000  0.5258940000000  0.4063470000000 1.0
C      1  0.5835240000000  0.4662940000000  0.5525050000000 1.0
C      1  0.6027080000000  0.4611100000000  0.5301750000000 1.0
C      1  0.5383730000000  0.4514020000000  0.5691390000000 1.0
C      1  0.4585530000000  0.5151110000000  0.5536420000000 1.0
C      1  0.5523380000000  0.5727170000000  0.5777240000000 1.0
C      1  0.4937820000000  0.3852840000000  0.5130920000000 1.0
C      1  0.5222330000000  0.5550250000000  0.5618170000000 1.0
C      1  0.4969730000000  0.4335050000000  0.4250540000000 1.0
C      1  0.4516530000000  0.5688500000000  0.5470420000000 1.0
C      1  0.5658280000000  0.5500000000000  0.5664020000000 1.0
C      1  0.5410280000000  0.4568820000000  0.4600420000000 1.0
C      1  0.4736640000000  0.5386750000000  0.4611140000000 1.0
C      1  0.5261670000000  0.4959870000000  0.4089490000000 1.0
C      1  0.4279830000000  0.5553470000000  0.4804670000000 1.0
C      1  0.5262780000000  0.4429580000000  0.4204170000000 1.0
C      1  0.5111380000000  0.5007350000000  0.5587900000000 1.0
C      1  0.5722050000000  0.4257960000000  0.4727130000000 1.0
C      1  0.5291670000000  0.5344540000000  0.4744750000000 1.0
C      1  0.5141120000000  0.4347070000000  0.5640100000000 1.0
C      1  0.4131490000000  0.4645010000000  0.4459340000000 1.0
C      1  0.4765140000000  0.4556290000000  0.4339520000000 1.0
C      1  0.4907560000000  0.6106920000000  0.5190730000000 1.0
C      1  0.4292320000000  0.4420310000000  0.4559380000000 1.0
C      1  0.5189040000000  0.4093970000000  0.5478030000000 1.0
C      1  0.5475690000000  0.5690630000000  0.4636800000000 1.0
C      1  0.5932860000000  0.4429830000000  0.4857320000000 1.0
C      1  0.5231240000000  0.5046440000000  0.4714610000000 1.0
C      1  0.5445020000000  0.3828310000000  0.5121870000000 1.0
C      1  0.5700500000000  0.5487250000000  0.5382070000000 1.0
C      1  0.5587860000000  0.4595740000000  0.5074200000000 1.0
C      1  0.5159030000000  0.6074330000000  0.4591210000000 1.0
C      1  0.5072660000000  0.5459200000000  0.5220810000000 1.0
C      1  0.4178730000000  0.5103080000000  0.5100720000000 1.0
C      1  0.4146120000000  0.5429700000000  0.5379910000000 1.0
C      1  0.3974720000000  0.4941540000000  0.4990890000000 1.0
C      1  0.5603000000000  0.4486810000000  0.5499650000000 1.0
END
