TITL C-950531-5884-397 -2.20838667828491e-06 125000 -872.131717977544 0 0 140 (C1) n - 1
REM
REM in /home/bkarasulu/work/CARBON/AIRSS/Generating-Clusters/EDIP-Nigel-Params/with-SteepDescent/Only-C1/SD-CG/HFTN-CG
REM
REM
REM
REM
REM
REM ./C.cell (11c1c37f851c82e70ff6c80c92926a4b)
REM
REM compiler GCC version 9.2.1 20190827 (Red Hat 9.2.1-1)
REM options -cpp -mtune=generic -march=x86-64 -g -O0 -fpre-include=/usr/include/finclude/math-vector-fortran.h
REM seed 1561843868 -264318805 -908030606 -1754621628 -65755887 858408214 -1436879284 -564738125 1710044468 -1116730068 1552157796 -840376436 1172186079 97008371 -462823389 1705138701 2091616546 -1770958522 -1144275481 -711501535 -1957635283 1536367698 -1432783740 -591110690 707795478 -810482300 -1937876111 -1383792466 554365727 927548936 -922356582 -1331529639 -839083263
REM
CELL 1.54180   50.00000   50.00000   50.00000   90.00000   90.00000   90.00000
LATT -1
SFAC C  
C      1  0.4402000000000  0.5462390000000  0.5169280000000 1.0
C      1  0.5355020000000  0.5493410000000  0.5367710000000 1.0
C      1  0.5767920000000  0.5273440000000  0.5301390000000 1.0
C      1  0.4750040000000  0.5553870000000  0.4137900000000 1.0
C      1  0.5212930000000  0.4341900000000  0.4649790000000 1.0
C      1  0.5094110000000  0.3965730000000  0.5266330000000 1.0
C      1  0.5339820000000  0.4000970000000  0.5394070000000 1.0
C      1  0.4776230000000  0.5601940000000  0.4855830000000 1.0
C      1  0.5983410000000  0.4874230000000  0.5078750000000 1.0
C      1  0.4252630000000  0.4620550000000  0.5425100000000 1.0
C      1  0.4957070000000  0.5492270000000  0.5061830000000 1.0
C      1  0.4948070000000  0.5334300000000  0.5996460000000 1.0
C      1  0.5222780000000  0.5924370000000  0.5115780000000 1.0
C      1  0.4694860000000  0.4518400000000  0.4046240000000 1.0
C      1  0.4438480000000  0.4666090000000  0.4106390000000 1.0
C      1  0.5070830000000  0.4746020000000  0.5962880000000 1.0
C      1  0.5253080000000  0.4629620000000  0.4242840000000 1.0
C      1  0.4125150000000  0.5069220000000  0.4809640000000 1.0
C      1  0.4826910000000  0.4064150000000  0.5368190000000 1.0
C      1  0.4757840000000  0.5382690000000  0.4645180000000 1.0
C      1  0.4594390000000  0.5167790000000  0.5178730000000 1.0
C      1  0.5328630000000  0.4863850000000  0.6015150000000 1.0
C      1  0.5641270000000  0.4542570000000  0.4945430000000 1.0
C      1  0.4839730000000  0.4541560000000  0.4324160000000 1.0
C      1  0.4501930000000  0.4940380000000  0.4212370000000 1.0
C      1  0.4398990000000  0.4370740000000  0.5410690000000 1.0
C      1  0.5739340000000  0.5416550000000  0.5027820000000 1.0
C      1  0.4495470000000  0.5667900000000  0.4966060000000 1.0
C      1  0.4207240000000  0.4716200000000  0.5153650000000 1.0
C      1  0.5193980000000  0.5419470000000  0.4010130000000 1.0
C      1  0.4266590000000  0.4516300000000  0.4297900000000 1.0
C      1  0.5478030000000  0.4981040000000  0.4508720000000 1.0
C      1  0.4327340000000  0.5419580000000  0.5652130000000 1.0
C      1  0.4829040000000  0.4117730000000  0.4874830000000 1.0
C      1  0.5305700000000  0.5251820000000  0.4831740000000 1.0
C      1  0.5931030000000  0.5030580000000  0.5326210000000 1.0
C      1  0.4859370000000  0.5285400000000  0.5223960000000 1.0
C      1  0.4613080000000  0.4290300000000  0.5599700000000 1.0
C      1  0.4220510000000  0.5149190000000  0.5542720000000 1.0
C      1  0.4987920000000  0.5715320000000  0.5703410000000 1.0
C      1  0.4696020000000  0.5030270000000  0.5692910000000 1.0
C      1  0.5175680000000  0.4645880000000  0.5044010000000 1.0
C      1  0.4714650000000  0.4792440000000  0.4503660000000 1.0
C      1  0.5654960000000  0.4542930000000  0.4633530000000 1.0
C      1  0.4713160000000  0.5947720000000  0.5243860000000 1.0
C      1  0.5324020000000  0.4173930000000  0.4866760000000 1.0
C      1  0.5301110000000  0.5171970000000  0.6006670000000 1.0
C      1  0.5819490000000  0.4580700000000  0.5402250000000 1.0
C      1  0.4081880000000  0.4962890000000  0.5080290000000 1.0
C      1  0.4445550000000  0.4307130000000  0.5130300000000 1.0
C      1  0.4506830000000  0.5067070000000  0.5455360000000 1.0
C      1  0.4183910000000  0.4656400000000  0.4533910000000 1.0
C      1  0.5470950000000  0.4426850000000  0.5751750000000 1.0
C      1  0.4799450000000  0.4273330000000  0.4435650000000 1.0
C      1  0.5459460000000  0.5003000000000  0.3983090000000 1.0
C      1  0.5097150000000  0.4039160000000  0.4986920000000 1.0
C      1  0.4943620000000  0.6002820000000  0.5044550000000 1.0
C      1  0.5889860000000  0.4595280000000  0.5114010000000 1.0
C      1  0.5446190000000  0.4779730000000  0.5029530000000 1.0
C      1  0.4483620000000  0.5923780000000  0.5080660000000 1.0
C      1  0.4519980000000  0.5521740000000  0.4300110000000 1.0
C      1  0.5044520000000  0.4572940000000  0.4782210000000 1.0
C      1  0.5828370000000  0.4843870000000  0.5517600000000 1.0
C      1  0.4908980000000  0.5858220000000  0.4776090000000 1.0
C      1  0.5510210000000  0.4924410000000  0.5312180000000 1.0
C      1  0.5468110000000  0.5272090000000  0.4393990000000 1.0
C      1  0.5166760000000  0.4334280000000  0.5727790000000 1.0
C      1  0.5641950000000  0.5857700000000  0.4900790000000 1.0
C      1  0.4460240000000  0.5417110000000  0.5896730000000 1.0
C      1  0.4736390000000  0.4636290000000  0.5107380000000 1.0
C      1  0.4285020000000  0.4806300000000  0.5653760000000 1.0
C      1  0.4973480000000  0.4485410000000  0.5895270000000 1.0
C      1  0.4104600000000  0.5415930000000  0.5127490000000 1.0
C      1  0.5523600000000  0.4750600000000  0.5827030000000 1.0
C      1  0.5821150000000  0.5309040000000  0.4512830000000 1.0
C      1  0.5418710000000  0.4452950000000  0.4461190000000 1.0
C      1  0.4691780000000  0.5763350000000  0.5479780000000 1.0
C      1  0.5899620000000  0.5286860000000  0.4796770000000 1.0
C      1  0.5488360000000  0.5413050000000  0.6014670000000 1.0
C      1  0.4685080000000  0.5074650000000  0.4015280000000 1.0
C      1  0.5432980000000  0.4739970000000  0.4044690000000 1.0
C      1  0.5130300000000  0.5244220000000  0.5758290000000 1.0
C      1  0.5652440000000  0.5692350000000  0.5377900000000 1.0
C      1  0.4997860000000  0.4829060000000  0.4615530000000 1.0
C      1  0.4261770000000  0.5097340000000  0.4326710000000 1.0
C      1  0.5373420000000  0.5936600000000  0.4856460000000 1.0
C      1  0.4975640000000  0.4338480000000  0.5471950000000 1.0
C      1  0.5416290000000  0.5254580000000  0.4100350000000 1.0
C      1  0.4677420000000  0.5244680000000  0.5902550000000 1.0
C      1  0.4350230000000  0.4260000000000  0.4379050000000 1.0
C      1  0.4987550000000  0.4609680000000  0.5279970000000 1.0
C      1  0.5931050000000  0.4997540000000  0.4822800000000 1.0
C      1  0.4161980000000  0.5521770000000  0.4633530000000 1.0
C      1  0.5225100000000  0.5613410000000  0.5123570000000 1.0
C      1  0.5456990000000  0.5004790000000  0.4811760000000 1.0
C      1  0.4966340000000  0.4664190000000  0.3980740000000 1.0
C      1  0.4562460000000  0.4773510000000  0.5787510000000 1.0
C      1  0.5245970000000  0.5386050000000  0.4567280000000 1.0
C      1  0.4554150000000  0.4248790000000  0.4569640000000 1.0
C      1  0.5656570000000  0.5426880000000  0.5788370000000 1.0
C      1  0.5183640000000  0.5746130000000  0.4390770000000 1.0
C      1  0.4987460000000  0.5261850000000  0.4528770000000 1.0
C      1  0.5394570000000  0.4745670000000  0.5544410000000 1.0
C      1  0.4052400000000  0.5171990000000  0.5286630000000 1.0
C      1  0.5336160000000  0.5184640000000  0.5313190000000 1.0
C      1  0.5097890000000  0.4743790000000  0.5572330000000 1.0
C      1  0.4521470000000  0.5214130000000  0.4667680000000 1.0
C      1  0.5012150000000  0.5635110000000  0.5995890000000 1.0
C      1  0.4706940000000  0.4513930000000  0.5770190000000 1.0
C      1  0.5908070000000  0.4588280000000  0.4525840000000 1.0
C      1  0.4351620000000  0.5350850000000  0.4465940000000 1.0
C      1  0.4342590000000  0.4563160000000  0.4933140000000 1.0
C      1  0.4302200000000  0.5727410000000  0.4768820000000 1.0
C      1  0.4044550000000  0.5345970000000  0.4839570000000 1.0
C      1  0.5430530000000  0.5502010000000  0.4923530000000 1.0
C      1  0.5176720000000  0.5808480000000  0.4668770000000 1.0
C      1  0.5014600000000  0.5296670000000  0.3819850000000 1.0
C      1  0.5836760000000  0.5041290000000  0.4391290000000 1.0
C      1  0.5530660000000  0.4187290000000  0.5310490000000 1.0
C      1  0.5025320000000  0.4149720000000  0.4538340000000 1.0
C      1  0.5296680000000  0.5625340000000  0.6055250000000 1.0
C      1  0.5778030000000  0.5708600000000  0.5101760000000 1.0
C      1  0.4989550000000  0.5022600000000  0.5594040000000 1.0
C      1  0.5207720000000  0.4870290000000  0.4409810000000 1.0
C      1  0.5178650000000  0.5507590000000  0.5607800000000 1.0
C      1  0.5961370000000  0.4858770000000  0.4568330000000 1.0
C      1  0.4649390000000  0.4903330000000  0.5009000000000 1.0
C      1  0.4658640000000  0.4104010000000  0.5116560000000 1.0
C      1  0.5042210000000  0.5563430000000  0.4215910000000 1.0
C      1  0.5050640000000  0.5105800000000  0.5322650000000 1.0
C      1  0.5525760000000  0.4282070000000  0.5037050000000 1.0
C      1  0.4741710000000  0.5349020000000  0.3924470000000 1.0
C      1  0.4127340000000  0.4486750000000  0.4751680000000 1.0
C      1  0.5629250000000  0.4377790000000  0.5498810000000 1.0
C      1  0.4129730000000  0.4940100000000  0.4542220000000 1.0
C      1  0.4754620000000  0.4441740000000  0.4845520000000 1.0
C      1  0.4909920000000  0.4938030000000  0.3898850000000 1.0
C      1  0.4506380000000  0.4861200000000  0.4747330000000 1.0
C      1  0.5763670000000  0.5467370000000  0.5530260000000 1.0
C      1  0.4452700000000  0.5583990000000  0.5442930000000 1.0
END
