TITL C-951340-9809-202 -2.9001952850944e-06 125000 -871.537532895315 0 0 141 (C1) n - 1
REM
REM in /home/bkarasulu/work/CARBON/AIRSS/Generating-Clusters/EDIP-Nigel-Params/with-SteepDescent/Only-C1/SD-CG/HFTN-CG
REM
REM
REM
REM
REM
REM ./C.cell (11c1c37f851c82e70ff6c80c92926a4b)
REM
REM compiler GCC version 9.2.1 20190827 (Red Hat 9.2.1-1)
REM options -cpp -mtune=generic -march=x86-64 -g -O0 -fpre-include=/usr/include/finclude/math-vector-fortran.h
REM seed -949235399 -716225924 733650019 2141698002 -399987823 -246401899 999748602 -479912278 -299598799 -576916539 -984297173 1433865844 139963969 -1800462057 -51746369 -905980304 -828251237 -1992235861 1588991505 1461617490 640388770 1030265011 478947490 -989376422 -166888952 -1914704568 -3234495 -83937185 1796240135 -495225677 -1753389920 -545333807 -2000394918
REM
CELL 1.54180   50.00000   50.00000   50.00000   90.00000   90.00000   90.00000
LATT -1
SFAC C  
C      1  0.4709030000000  0.4847650000000  0.4822910000000 1.0
C      1  0.5117510000000  0.5048610000000  0.4154890000000 1.0
C      1  0.3927160000000  0.5148240000000  0.5095130000000 1.0
C      1  0.5368010000000  0.4184450000000  0.5205920000000 1.0
C      1  0.5191800000000  0.6235390000000  0.4803910000000 1.0
C      1  0.4968830000000  0.5365460000000  0.4537240000000 1.0
C      1  0.5250490000000  0.4580050000000  0.4085190000000 1.0
C      1  0.4606880000000  0.4433850000000  0.5987500000000 1.0
C      1  0.5133010000000  0.5498440000000  0.5379640000000 1.0
C      1  0.4852920000000  0.4622840000000  0.4473530000000 1.0
C      1  0.4504180000000  0.4302010000000  0.5766160000000 1.0
C      1  0.4535110000000  0.5506590000000  0.4321570000000 1.0
C      1  0.4782310000000  0.5152450000000  0.5781090000000 1.0
C      1  0.4643040000000  0.5571080000000  0.5372490000000 1.0
C      1  0.5204600000000  0.4583790000000  0.5105570000000 1.0
C      1  0.5317530000000  0.4399010000000  0.4610460000000 1.0
C      1  0.5236970000000  0.4287290000000  0.4147400000000 1.0
C      1  0.4430910000000  0.4788350000000  0.4249500000000 1.0
C      1  0.5642800000000  0.5498350000000  0.4651760000000 1.0
C      1  0.5233620000000  0.4866440000000  0.4665390000000 1.0
C      1  0.4222770000000  0.5528710000000  0.5016660000000 1.0
C      1  0.4295270000000  0.4597270000000  0.4417450000000 1.0
C      1  0.4856400000000  0.5084110000000  0.5482290000000 1.0
C      1  0.4659620000000  0.4901130000000  0.5895900000000 1.0
C      1  0.4994000000000  0.4185710000000  0.4250930000000 1.0
C      1  0.4174330000000  0.4524530000000  0.5160970000000 1.0
C      1  0.4963130000000  0.5623060000000  0.4361270000000 1.0
C      1  0.5467550000000  0.5506660000000  0.5745760000000 1.0
C      1  0.4246790000000  0.5202680000000  0.4466570000000 1.0
C      1  0.5817290000000  0.5253580000000  0.5059180000000 1.0
C      1  0.5439190000000  0.4243360000000  0.4366780000000 1.0
C      1  0.4449720000000  0.4362510000000  0.4363250000000 1.0
C      1  0.4963850000000  0.4701110000000  0.4055660000000 1.0
C      1  0.5550640000000  0.5725870000000  0.5563480000000 1.0
C      1  0.5111320000000  0.6380300000000  0.4348250000000 1.0
C      1  0.4693550000000  0.5745750000000  0.4418480000000 1.0
C      1  0.4828080000000  0.4019180000000  0.5544690000000 1.0
C      1  0.5775620000000  0.5140060000000  0.5628420000000 1.0
C      1  0.4579760000000  0.4545910000000  0.4809650000000 1.0
C      1  0.4869130000000  0.5359980000000  0.5303180000000 1.0
C      1  0.5199150000000  0.5006510000000  0.5848870000000 1.0
C      1  0.4032130000000  0.5035450000000  0.5326580000000 1.0
C      1  0.4774690000000  0.3876310000000  0.5314250000000 1.0
C      1  0.4873020000000  0.4995740000000  0.3982560000000 1.0
C      1  0.4458690000000  0.4463530000000  0.5530860000000 1.0
C      1  0.4771230000000  0.4243330000000  0.4682430000000 1.0
C      1  0.5443990000000  0.4860890000000  0.5886610000000 1.0
C      1  0.4643130000000  0.4901880000000  0.5352760000000 1.0
C      1  0.4407320000000  0.4354000000000  0.5254330000000 1.0
C      1  0.5583150000000  0.4638750000000  0.5495830000000 1.0
C      1  0.4385250000000  0.4898860000000  0.5773460000000 1.0
C      1  0.5291060000000  0.5297670000000  0.4910220000000 1.0
C      1  0.4985010000000  0.4256170000000  0.5506000000000 1.0
C      1  0.4957690000000  0.5471520000000  0.4103610000000 1.0
C      1  0.4703350000000  0.5973970000000  0.4867970000000 1.0
C      1  0.4411350000000  0.4761650000000  0.5507480000000 1.0
C      1  0.5022010000000  0.5733590000000  0.5769160000000 1.0
C      1  0.4673030000000  0.5315340000000  0.4536760000000 1.0
C      1  0.4893490000000  0.5959200000000  0.5067210000000 1.0
C      1  0.4751030000000  0.5737460000000  0.5825730000000 1.0
C      1  0.5129650000000  0.4901360000000  0.5484310000000 1.0
C      1  0.5550260000000  0.4509400000000  0.4760590000000 1.0
C      1  0.5642830000000  0.5665280000000  0.5102190000000 1.0
C      1  0.5075810000000  0.5774740000000  0.5484000000000 1.0
C      1  0.5378520000000  0.4487920000000  0.5622150000000 1.0
C      1  0.5601000000000  0.4897170000000  0.5635890000000 1.0
C      1  0.4834080000000  0.5334550000000  0.4994230000000 1.0
C      1  0.5366860000000  0.6294750000000  0.4355650000000 1.0
C      1  0.6015020000000  0.4660530000000  0.4744140000000 1.0
C      1  0.5513530000000  0.5243250000000  0.4694790000000 1.0
C      1  0.4610790000000  0.4050710000000  0.5715730000000 1.0
C      1  0.4655840000000  0.4458620000000  0.5093090000000 1.0
C      1  0.5040500000000  0.4613390000000  0.5365410000000 1.0
C      1  0.4575500000000  0.5360830000000  0.4817910000000 1.0
C      1  0.5045410000000  0.5412910000000  0.4815800000000 1.0
C      1  0.4400010000000  0.4928770000000  0.4910690000000 1.0
C      1  0.5356450000000  0.5004540000000  0.5282130000000 1.0
C      1  0.5425880000000  0.3980610000000  0.4501560000000 1.0
C      1  0.5450450000000  0.5279390000000  0.5367470000000 1.0
C      1  0.6011620000000  0.5062360000000  0.4954850000000 1.0
C      1  0.5502080000000  0.4672740000000  0.4250610000000 1.0
C      1  0.5161010000000  0.4271160000000  0.4987950000000 1.0
C      1  0.4692010000000  0.4503790000000  0.4252810000000 1.0
C      1  0.5807420000000  0.4462610000000  0.4627600000000 1.0
C      1  0.4306960000000  0.5184520000000  0.5724920000000 1.0
C      1  0.4832620000000  0.4222100000000  0.4977240000000 1.0
C      1  0.5076600000000  0.4830030000000  0.4924080000000 1.0
C      1  0.5141220000000  0.6104740000000  0.5039890000000 1.0
C      1  0.5379480000000  0.5486920000000  0.5137520000000 1.0
C      1  0.5617750000000  0.4319520000000  0.5150220000000 1.0
C      1  0.4203480000000  0.4797170000000  0.5285930000000 1.0
C      1  0.5943260000000  0.4785630000000  0.5018940000000 1.0
C      1  0.4546940000000  0.5340370000000  0.5799860000000 1.0
C      1  0.4327930000000  0.5650600000000  0.4734930000000 1.0
C      1  0.5324250000000  0.4584380000000  0.5894730000000 1.0
C      1  0.5148650000000  0.4625270000000  0.4512570000000 1.0
C      1  0.4955440000000  0.4098730000000  0.4517760000000 1.0
C      1  0.5253100000000  0.6400220000000  0.4592910000000 1.0
C      1  0.5220700000000  0.5330940000000  0.4077270000000 1.0
C      1  0.4063060000000  0.5304750000000  0.4907770000000 1.0
C      1  0.5048010000000  0.5242600000000  0.5909670000000 1.0
C      1  0.5527790000000  0.4599000000000  0.5206550000000 1.0
C      1  0.4575210000000  0.5593460000000  0.5667360000000 1.0
C      1  0.4784790000000  0.4644240000000  0.5956830000000 1.0
C      1  0.5684830000000  0.4439240000000  0.4344390000000 1.0
C      1  0.4514450000000  0.5079000000000  0.5149260000000 1.0
C      1  0.5452150000000  0.5162180000000  0.4414220000000 1.0
C      1  0.5182970000000  0.5065900000000  0.5059180000000 1.0
C      1  0.4403840000000  0.4078750000000  0.5077110000000 1.0
C      1  0.4755160000000  0.4908530000000  0.4514400000000 1.0
C      1  0.5639380000000  0.4846600000000  0.5060000000000 1.0
C      1  0.4211410000000  0.4670060000000  0.4691770000000 1.0
C      1  0.5675780000000  0.5567930000000  0.4374170000000 1.0
C      1  0.4391260000000  0.5370190000000  0.5236480000000 1.0
C      1  0.4827050000000  0.5833070000000  0.5318910000000 1.0
C      1  0.5798010000000  0.5511900000000  0.4904870000000 1.0
C      1  0.4297330000000  0.5174850000000  0.4762800000000 1.0
C      1  0.5025940000000  0.5063310000000  0.4454780000000 1.0
C      1  0.4446470000000  0.5074030000000  0.4286570000000 1.0
C      1  0.4324560000000  0.4222990000000  0.4834520000000 1.0
C      1  0.5622470000000  0.4939490000000  0.4304250000000 1.0
C      1  0.4790420000000  0.4682400000000  0.5227850000000 1.0
C      1  0.5058890000000  0.4598270000000  0.5991750000000 1.0
C      1  0.5761870000000  0.5311940000000  0.5359290000000 1.0
C      1  0.5456740000000  0.5414230000000  0.4258690000000 1.0
C      1  0.4734620000000  0.5252340000000  0.4098570000000 1.0
C      1  0.5667460000000  0.5319940000000  0.5817060000000 1.0
C      1  0.5759200000000  0.5629360000000  0.5374760000000 1.0
C      1  0.5196520000000  0.4032660000000  0.4673000000000 1.0
C      1  0.5350300000000  0.6067330000000  0.5219610000000 1.0
C      1  0.4598450000000  0.5783400000000  0.4696720000000 1.0
C      1  0.5540070000000  0.4805430000000  0.4771820000000 1.0
C      1  0.5267520000000  0.4253410000000  0.5481170000000 1.0
C      1  0.4187530000000  0.5258930000000  0.5455530000000 1.0
C      1  0.4683410000000  0.3977030000000  0.5072810000000 1.0
C      1  0.6006500000000  0.5042740000000  0.4664610000000 1.0
C      1  0.5759060000000  0.4896780000000  0.4571590000000 1.0
C      1  0.5180970000000  0.5491620000000  0.5819800000000 1.0
C      1  0.4262080000000  0.5504690000000  0.4459210000000 1.0
C      1  0.5335220000000  0.5907840000000  0.5447340000000 1.0
C      1  0.4155810000000  0.4451430000000  0.4873920000000 1.0
END
