TITL C-950533-5798-606 -5.33797165508279e-06 125000 -425.238861375586 0 0 69 (C1) n - 1
REM
REM in /home/bkarasulu/work/CARBON/AIRSS/Generating-Clusters/EDIP-Nigel-Params/with-SteepDescent/Only-C1/SD-CG/HFTN-CG
REM
REM
REM
REM
REM
REM ./C.cell (11c1c37f851c82e70ff6c80c92926a4b)
REM
REM compiler GCC version 9.2.1 20190827 (Red Hat 9.2.1-1)
REM options -cpp -mtune=generic -march=x86-64 -g -O0 -fpre-include=/usr/include/finclude/math-vector-fortran.h
REM seed -1492790705 -873331846 -1211401378 543425583 1065431193 -1607533955 -1084468864 -485606099 1708911914 1797029614 -151580890 1632313789 -741117472 1668573021 181443457 335306882 -1251962569 -214437431 -162888900 -1963817732 -1918893055 814823308 -1218320336 563743930 -1012661884 -1867169860 -664657558 -289538070 -1512004432 2077656031 -787942149 -136729353 -973742085
REM
CELL 1.54180   50.00000   50.00000   50.00000   90.00000   90.00000   90.00000
LATT -1
SFAC C  
C      1  0.4402080000000  0.5627520000000  0.5065000000000 1.0
C      1  0.4558630000000  0.5086150000000  0.5599250000000 1.0
C      1  0.4991240000000  0.5363440000000  0.5624450000000 1.0
C      1  0.4800420000000  0.4929780000000  0.4294840000000 1.0
C      1  0.5224440000000  0.5702620000000  0.5028140000000 1.0
C      1  0.5730150000000  0.4999100000000  0.5397140000000 1.0
C      1  0.4946150000000  0.5051720000000  0.5294400000000 1.0
C      1  0.4137590000000  0.4956010000000  0.4985550000000 1.0
C      1  0.4760450000000  0.4517740000000  0.4600820000000 1.0
C      1  0.4687460000000  0.5189430000000  0.4308400000000 1.0
C      1  0.5653920000000  0.5461450000000  0.4655490000000 1.0
C      1  0.5240180000000  0.5198930000000  0.5577000000000 1.0
C      1  0.4505940000000  0.5691450000000  0.4810480000000 1.0
C      1  0.5660840000000  0.5254090000000  0.5306190000000 1.0
C      1  0.5085670000000  0.4909960000000  0.4334690000000 1.0
C      1  0.4740480000000  0.5571880000000  0.5248520000000 1.0
C      1  0.5198180000000  0.5403050000000  0.4405600000000 1.0
C      1  0.5453960000000  0.4388280000000  0.4881480000000 1.0
C      1  0.4914820000000  0.4755940000000  0.5676170000000 1.0
C      1  0.5369490000000  0.5494200000000  0.4617310000000 1.0
C      1  0.5553940000000  0.4331640000000  0.5138950000000 1.0
C      1  0.5003880000000  0.5191550000000  0.5032290000000 1.0
C      1  0.4669250000000  0.4699840000000  0.4400220000000 1.0
C      1  0.4948900000000  0.5622770000000  0.4604960000000 1.0
C      1  0.5481400000000  0.4729010000000  0.4515890000000 1.0
C      1  0.4608500000000  0.5260210000000  0.4568320000000 1.0
C      1  0.4341970000000  0.4598680000000  0.4837080000000 1.0
C      1  0.5382850000000  0.5336060000000  0.5356180000000 1.0
C      1  0.4559400000000  0.4908760000000  0.5067790000000 1.0
C      1  0.4363550000000  0.4978990000000  0.5395350000000 1.0
C      1  0.4166690000000  0.5186500000000  0.5285030000000 1.0
C      1  0.4991150000000  0.4290890000000  0.5105820000000 1.0
C      1  0.4768100000000  0.5242270000000  0.5453650000000 1.0
C      1  0.5507910000000  0.5020050000000  0.4466350000000 1.0
C      1  0.4606690000000  0.4494340000000  0.5342810000000 1.0
C      1  0.5725610000000  0.5177940000000  0.4598640000000 1.0
C      1  0.5274340000000  0.4642870000000  0.5374120000000 1.0
C      1  0.5739080000000  0.4763370000000  0.5243820000000 1.0
C      1  0.4339500000000  0.4665370000000  0.5355160000000 1.0
C      1  0.5795300000000  0.5311290000000  0.5048160000000 1.0
C      1  0.4689910000000  0.4354740000000  0.5081710000000 1.0
C      1  0.4801510000000  0.4798130000000  0.5212740000000 1.0
C      1  0.5547180000000  0.4551870000000  0.5317180000000 1.0
C      1  0.5084860000000  0.4418340000000  0.5376620000000 1.0
C      1  0.5756260000000  0.5554480000000  0.4905350000000 1.0
C      1  0.4782210000000  0.5378850000000  0.5009860000000 1.0
C      1  0.5249700000000  0.5593250000000  0.5286200000000 1.0
C      1  0.5242410000000  0.4829670000000  0.4935600000000 1.0
C      1  0.5732410000000  0.4803850000000  0.4949100000000 1.0
C      1  0.5172070000000  0.4872580000000  0.5555100000000 1.0
C      1  0.5484880000000  0.4681860000000  0.4813490000000 1.0
C      1  0.4309250000000  0.5351320000000  0.5089210000000 1.0
C      1  0.4554840000000  0.5209190000000  0.5071050000000 1.0
C      1  0.4849170000000  0.4505620000000  0.5534370000000 1.0
C      1  0.4998050000000  0.4664440000000  0.5025260000000 1.0
C      1  0.4618260000000  0.4520920000000  0.4854640000000 1.0
C      1  0.5049160000000  0.4494310000000  0.4620900000000 1.0
C      1  0.5169130000000  0.4318650000000  0.4834710000000 1.0
C      1  0.5201080000000  0.5684530000000  0.4749400000000 1.0
C      1  0.4691770000000  0.4902500000000  0.5756760000000 1.0
C      1  0.4712380000000  0.5497230000000  0.4733740000000 1.0
C      1  0.4188070000000  0.4673190000000  0.5095230000000 1.0
C      1  0.4994320000000  0.5610260000000  0.5436600000000 1.0
C      1  0.4625040000000  0.4986460000000  0.4697210000000 1.0
C      1  0.5208070000000  0.4654330000000  0.4422590000000 1.0
C      1  0.4306260000000  0.4880310000000  0.4723880000000 1.0
C      1  0.5821680000000  0.5077230000000  0.4862660000000 1.0
C      1  0.4995970000000  0.4992810000000  0.4820420000000 1.0
C      1  0.5273960000000  0.5133950000000  0.4326900000000 1.0
END
