TITL C-951346-9544-669 -5.73560145165545e-07 125000 -358.899052307255 0 0 59 (C1) n - 1
REM
REM in /home/bkarasulu/work/CARBON/AIRSS/Generating-Clusters/EDIP-Nigel-Params/with-SteepDescent/Only-C1/SD-CG/HFTN-CG
REM
REM
REM
REM
REM
REM ./C.cell (11c1c37f851c82e70ff6c80c92926a4b)
REM
REM compiler GCC version 9.2.1 20190827 (Red Hat 9.2.1-1)
REM options -cpp -mtune=generic -march=x86-64 -g -O0 -fpre-include=/usr/include/finclude/math-vector-fortran.h
REM seed -1625410785 -352456338 1813880893 1493065764 473786596 -671908745 -1516925356 340382984 2052295600 -1840504854 2027260260 -79370705 1380632417 -233216816 618743592 1615691490 553146410 18658466 -308638826 -143217295 1503826305 20161585 -1471308874 460198004 -836086630 -1881113042 -871344980 -357795378 -1370373199 -1248888655 -1916715311 1878844610 -732261784
REM
CELL 1.54180   50.00000   50.00000   50.00000   90.00000   90.00000   90.00000
LATT -1
SFAC C  
C      1  0.4930230000000  0.4494390000000  0.4540890000000 1.0
C      1  0.4671800000000  0.5602440000000  0.4786580000000 1.0
C      1  0.4531730000000  0.4510010000000  0.5158230000000 1.0
C      1  0.4853210000000  0.5362900000000  0.4339210000000 1.0
C      1  0.5315910000000  0.4367680000000  0.4952930000000 1.0
C      1  0.5605460000000  0.5177750000000  0.4828050000000 1.0
C      1  0.5277710000000  0.4967830000000  0.5623870000000 1.0
C      1  0.4636630000000  0.4839450000000  0.5655910000000 1.0
C      1  0.4332990000000  0.4922590000000  0.4585490000000 1.0
C      1  0.5111020000000  0.5267770000000  0.4891690000000 1.0
C      1  0.4750600000000  0.5341970000000  0.5462080000000 1.0
C      1  0.5205140000000  0.4480970000000  0.4473670000000 1.0
C      1  0.5115060000000  0.4750430000000  0.5566610000000 1.0
C      1  0.5683830000000  0.4839110000000  0.4517720000000 1.0
C      1  0.5597220000000  0.5136880000000  0.5301170000000 1.0
C      1  0.4945330000000  0.5582810000000  0.4643030000000 1.0
C      1  0.5272720000000  0.5133440000000  0.4450530000000 1.0
C      1  0.5031340000000  0.5610660000000  0.5078040000000 1.0
C      1  0.5083960000000  0.5085080000000  0.5151270000000 1.0
C      1  0.4482470000000  0.4684250000000  0.4595180000000 1.0
C      1  0.5719710000000  0.4638460000000  0.4967760000000 1.0
C      1  0.4992360000000  0.5465410000000  0.5534540000000 1.0
C      1  0.5420560000000  0.5637570000000  0.4818120000000 1.0
C      1  0.5488000000000  0.4455020000000  0.5384240000000 1.0
C      1  0.5119540000000  0.5039510000000  0.4687550000000 1.0
C      1  0.5380330000000  0.5334390000000  0.5231450000000 1.0
C      1  0.4740110000000  0.5644410000000  0.5069460000000 1.0
C      1  0.4437630000000  0.5402840000000  0.4788830000000 1.0
C      1  0.4756450000000  0.4725000000000  0.4462720000000 1.0
C      1  0.4791820000000  0.4991180000000  0.5207800000000 1.0
C      1  0.5151620000000  0.5716440000000  0.4823860000000 1.0
C      1  0.4699870000000  0.5227930000000  0.4556990000000 1.0
C      1  0.4398060000000  0.5320650000000  0.5084350000000 1.0
C      1  0.4414070000000  0.5054760000000  0.5215550000000 1.0
C      1  0.5558140000000  0.4431630000000  0.5114810000000 1.0
C      1  0.4800220000000  0.4504480000000  0.5294550000000 1.0
C      1  0.5402630000000  0.5366750000000  0.4927110000000 1.0
C      1  0.5176190000000  0.5541200000000  0.5336870000000 1.0
C      1  0.5260560000000  0.4817870000000  0.4817590000000 1.0
C      1  0.5691220000000  0.5000980000000  0.5052180000000 1.0
C      1  0.4347310000000  0.4768670000000  0.5552790000000 1.0
C      1  0.4608750000000  0.5164730000000  0.5648200000000 1.0
C      1  0.5266710000000  0.4522080000000  0.5521250000000 1.0
C      1  0.5567100000000  0.5096770000000  0.4541620000000 1.0
C      1  0.5169610000000  0.4796540000000  0.5083860000000 1.0
C      1  0.4607070000000  0.4614260000000  0.4880120000000 1.0
C      1  0.4822980000000  0.4969570000000  0.4653190000000 1.0
C      1  0.4347790000000  0.5074100000000  0.5512940000000 1.0
C      1  0.4839370000000  0.4768050000000  0.5435070000000 1.0
C      1  0.4335960000000  0.4679730000000  0.5279920000000 1.0
C      1  0.4591020000000  0.5469310000000  0.5247550000000 1.0
C      1  0.5039560000000  0.4498070000000  0.5069520000000 1.0
C      1  0.4855470000000  0.4464430000000  0.4825170000000 1.0
C      1  0.5353940000000  0.4554260000000  0.4711440000000 1.0
C      1  0.4399420000000  0.5191740000000  0.4544440000000 1.0
C      1  0.5529880000000  0.5009440000000  0.5537230000000 1.0
C      1  0.4699340000000  0.4894150000000  0.4925060000000 1.0
C      1  0.5649970000000  0.4610480000000  0.4678100000000 1.0
C      1  0.5135320000000  0.5378710000000  0.4374100000000 1.0
END
