TITL C-950535-5962-473 7.64640507403922e-07 125000 -325.387889877024 0 0 53 (C1) n - 1
REM
REM in /home/bkarasulu/work/CARBON/AIRSS/Generating-Clusters/EDIP-Nigel-Params/with-SteepDescent/Only-C1/SD-CG/HFTN-CG
REM
REM
REM
REM
REM
REM ./C.cell (11c1c37f851c82e70ff6c80c92926a4b)
REM
REM compiler GCC version 9.2.1 20190827 (Red Hat 9.2.1-1)
REM options -cpp -mtune=generic -march=x86-64 -g -O0 -fpre-include=/usr/include/finclude/math-vector-fortran.h
REM seed 1968816957 1499543327 -2015331363 -784581899 -1087478581 -421565973 1488241707 -1658005106 -381971636 -431130974 -1683057796 -1519574076 421528500 -846073694 996790629 1081623357 -1576601294 -1608867734 -102065733 -1831307500 754717349 -182059323 1050107182 -2074125697 -901904970 2005325094 844998181 -1009645698 311396726 1171234504 -796334096 -241066765 846435725
REM
CELL 1.54180   50.00000   50.00000   50.00000   90.00000   90.00000   90.00000
LATT -1
SFAC C  
C      1  0.5364260000000  0.4409990000000  0.5340020000000 1.0
C      1  0.4590990000000  0.5215100000000  0.4474920000000 1.0
C      1  0.4884470000000  0.4452380000000  0.5406890000000 1.0
C      1  0.4546180000000  0.4456300000000  0.4747220000000 1.0
C      1  0.5303790000000  0.5101450000000  0.4525700000000 1.0
C      1  0.5018180000000  0.4947720000000  0.4961940000000 1.0
C      1  0.4363170000000  0.4655970000000  0.4729360000000 1.0
C      1  0.4918550000000  0.5702320000000  0.5243460000000 1.0
C      1  0.4630060000000  0.4601140000000  0.5443700000000 1.0
C      1  0.5789390000000  0.4875470000000  0.5028160000000 1.0
C      1  0.5348380000000  0.4559170000000  0.4884240000000 1.0
C      1  0.5125950000000  0.5509710000000  0.4493920000000 1.0
C      1  0.5243070000000  0.4357930000000  0.5070740000000 1.0
C      1  0.5006340000000  0.5232830000000  0.5025640000000 1.0
C      1  0.4531900000000  0.5318300000000  0.4942150000000 1.0
C      1  0.4612940000000  0.5001720000000  0.4290830000000 1.0
C      1  0.5199690000000  0.5722270000000  0.4676210000000 1.0
C      1  0.4870120000000  0.4900540000000  0.4338720000000 1.0
C      1  0.5094380000000  0.5476580000000  0.5616990000000 1.0
C      1  0.4366200000000  0.4916290000000  0.5145400000000 1.0
C      1  0.5665130000000  0.4812730000000  0.5270600000000 1.0
C      1  0.4870610000000  0.5500890000000  0.5447410000000 1.0
C      1  0.5214540000000  0.4838070000000  0.5496360000000 1.0
C      1  0.5007350000000  0.5067900000000  0.4538270000000 1.0
C      1  0.5262770000000  0.4489870000000  0.4626920000000 1.0
C      1  0.4899850000000  0.4625290000000  0.4361020000000 1.0
C      1  0.5415240000000  0.5249540000000  0.5285710000000 1.0
C      1  0.4989370000000  0.5853230000000  0.4813350000000 1.0
C      1  0.4808200000000  0.5404670000000  0.4878120000000 1.0
C      1  0.4812190000000  0.5693770000000  0.4973470000000 1.0
C      1  0.5731400000000  0.4988090000000  0.4788970000000 1.0
C      1  0.5453840000000  0.5021080000000  0.4771270000000 1.0
C      1  0.4945870000000  0.4346620000000  0.5053670000000 1.0
C      1  0.4995060000000  0.4460300000000  0.4562860000000 1.0
C      1  0.4306740000000  0.4908840000000  0.4843750000000 1.0
C      1  0.4814030000000  0.4770870000000  0.5037730000000 1.0
C      1  0.5267930000000  0.5363420000000  0.5053830000000 1.0
C      1  0.4770560000000  0.5055380000000  0.5621910000000 1.0
C      1  0.5043550000000  0.5000630000000  0.5651050000000 1.0
C      1  0.5345910000000  0.5355050000000  0.4412050000000 1.0
C      1  0.4871790000000  0.5344060000000  0.4570440000000 1.0
C      1  0.5300960000000  0.4857590000000  0.4973650000000 1.0
C      1  0.4718160000000  0.5247850000000  0.5409540000000 1.0
C      1  0.5237590000000  0.5662760000000  0.5040460000000 1.0
C      1  0.5615310000000  0.4544470000000  0.5331400000000 1.0
C      1  0.5152300000000  0.4549080000000  0.5495910000000 1.0
C      1  0.5327660000000  0.5370410000000  0.5525260000000 1.0
C      1  0.4820140000000  0.4402630000000  0.4788000000000 1.0
C      1  0.4622610000000  0.4820730000000  0.5618550000000 1.0
C      1  0.4438670000000  0.5152100000000  0.4726690000000 1.0
C      1  0.5398520000000  0.4943270000000  0.5270580000000 1.0
C      1  0.4570510000000  0.4692050000000  0.5167930000000 1.0
C      1  0.4497650000000  0.5193610000000  0.5207040000000 1.0
END
