TITL C-950522-5749-206 1.81046437199986e-06 125000 -556.837364247288 0 0 91 (C1) n - 1
REM
REM in /home/bkarasulu/work/CARBON/AIRSS/Generating-Clusters/EDIP-Nigel-Params/with-SteepDescent/Only-C1/SD-CG/HFTN-CG
REM
REM
REM
REM
REM
REM ./C.cell (11c1c37f851c82e70ff6c80c92926a4b)
REM
REM compiler GCC version 9.2.1 20190827 (Red Hat 9.2.1-1)
REM options -cpp -mtune=generic -march=x86-64 -g -O0 -fpre-include=/usr/include/finclude/math-vector-fortran.h
REM seed 2015935742 -1316768663 -936193186 -1704018945 -573181454 277597547 1694558474 -1023433998 -536950199 -71357951 -2028298744 -748768084 -883840545 2116621216 28590756 -1883009070 1802157441 1918853908 -1682407563 -1340836672 -303211311 -2141689371 1306703040 -609173043 1205737488 -1300309438 2101602667 1135263098 968143805 -1531684128 1065745206 1306142827 600590404
REM
CELL 1.54180   50.00000   50.00000   50.00000   90.00000   90.00000   90.00000
LATT -1
SFAC C  
C      1  0.4439660000000  0.4822700000000  0.4859070000000 1.0
C      1  0.5454430000000  0.5126720000000  0.4485040000000 1.0
C      1  0.5414570000000  0.4354090000000  0.5111180000000 1.0
C      1  0.4361670000000  0.4908280000000  0.4308160000000 1.0
C      1  0.5314770000000  0.5368720000000  0.5687330000000 1.0
C      1  0.4554390000000  0.5620880000000  0.5106190000000 1.0
C      1  0.4882470000000  0.4999380000000  0.4096320000000 1.0
C      1  0.5515710000000  0.5234930000000  0.4765140000000 1.0
C      1  0.5350560000000  0.4486440000000  0.4629440000000 1.0
C      1  0.5516660000000  0.5435460000000  0.5495410000000 1.0
C      1  0.4920070000000  0.5654240000000  0.4371680000000 1.0
C      1  0.4505360000000  0.5496520000000  0.4521730000000 1.0
C      1  0.5465870000000  0.5700020000000  0.4643360000000 1.0
C      1  0.4683710000000  0.4277980000000  0.5135450000000 1.0
C      1  0.5631150000000  0.5507080000000  0.4785680000000 1.0
C      1  0.5071060000000  0.5497910000000  0.5619510000000 1.0
C      1  0.5378290000000  0.5340970000000  0.4300780000000 1.0
C      1  0.4094670000000  0.4943840000000  0.5315600000000 1.0
C      1  0.5568380000000  0.4345020000000  0.4854360000000 1.0
C      1  0.5811260000000  0.4520920000000  0.4904910000000 1.0
C      1  0.5839200000000  0.4994750000000  0.4937380000000 1.0
C      1  0.4781360000000  0.5183050000000  0.4302550000000 1.0
C      1  0.5262000000000  0.5804990000000  0.5200280000000 1.0
C      1  0.4341860000000  0.4542500000000  0.5234700000000 1.0
C      1  0.4968690000000  0.4815290000000  0.5207530000000 1.0
C      1  0.4734440000000  0.5222160000000  0.5691690000000 1.0
C      1  0.4210890000000  0.5268850000000  0.4934330000000 1.0
C      1  0.4725750000000  0.5486050000000  0.4732610000000 1.0
C      1  0.5090460000000  0.5016430000000  0.5393950000000 1.0
C      1  0.4222610000000  0.5180960000000  0.5219480000000 1.0
C      1  0.5465340000000  0.4757910000000  0.4727700000000 1.0
C      1  0.5014660000000  0.4901400000000  0.4903220000000 1.0
C      1  0.5210190000000  0.4576120000000  0.5659090000000 1.0
C      1  0.5856790000000  0.4911860000000  0.5209730000000 1.0
C      1  0.4907910000000  0.4679730000000  0.4731230000000 1.0
C      1  0.5711850000000  0.5045740000000  0.5414660000000 1.0
C      1  0.5179480000000  0.5681470000000  0.4748230000000 1.0
C      1  0.5282060000000  0.5223740000000  0.5276270000000 1.0
C      1  0.4953260000000  0.4515750000000  0.5528760000000 1.0
C      1  0.4369540000000  0.5522200000000  0.4883880000000 1.0
C      1  0.5660480000000  0.4698440000000  0.5716810000000 1.0
C      1  0.5768070000000  0.4774300000000  0.4755580000000 1.0
C      1  0.5165860000000  0.4998800000000  0.4116830000000 1.0
C      1  0.5337500000000  0.4824620000000  0.4991830000000 1.0
C      1  0.4615760000000  0.4653720000000  0.4650960000000 1.0
C      1  0.5489960000000  0.5613530000000  0.5268000000000 1.0
C      1  0.4281600000000  0.5050940000000  0.4746070000000 1.0
C      1  0.5076950000000  0.4438000000000  0.4777960000000 1.0
C      1  0.4618320000000  0.4685360000000  0.5291420000000 1.0
C      1  0.4677560000000  0.5408920000000  0.5267250000000 1.0
C      1  0.4197420000000  0.4712680000000  0.5446200000000 1.0
C      1  0.5303420000000  0.4904380000000  0.4344250000000 1.0
C      1  0.4510660000000  0.5160060000000  0.5278810000000 1.0
C      1  0.4763170000000  0.5805630000000  0.5027400000000 1.0
C      1  0.4960530000000  0.5745350000000  0.5238390000000 1.0
C      1  0.4942960000000  0.4191920000000  0.4712830000000 1.0
C      1  0.5613760000000  0.4970790000000  0.5669010000000 1.0
C      1  0.5272760000000  0.4611680000000  0.4358240000000 1.0
C      1  0.4571280000000  0.4731430000000  0.4360720000000 1.0
C      1  0.5798020000000  0.4621770000000  0.5190900000000 1.0
C      1  0.4692020000000  0.4206700000000  0.4844180000000 1.0
C      1  0.4954790000000  0.5235110000000  0.4747220000000 1.0
C      1  0.4620990000000  0.4929110000000  0.5099720000000 1.0
C      1  0.4244740000000  0.4386160000000  0.4794250000000 1.0
C      1  0.4254900000000  0.4611110000000  0.4960910000000 1.0
C      1  0.4991210000000  0.5063580000000  0.5683630000000 1.0
C      1  0.4908080000000  0.4822140000000  0.5872360000000 1.0
C      1  0.4221690000000  0.5066590000000  0.4473670000000 1.0
C      1  0.4689360000000  0.5465550000000  0.4293040000000 1.0
C      1  0.4798150000000  0.5465010000000  0.5540150000000 1.0
C      1  0.5194880000000  0.5561320000000  0.4319220000000 1.0
C      1  0.5481570000000  0.5082950000000  0.5052360000000 1.0
C      1  0.4430600000000  0.4265630000000  0.5269930000000 1.0
C      1  0.5667200000000  0.5581190000000  0.5054970000000 1.0
C      1  0.4504830000000  0.4371220000000  0.4685740000000 1.0
C      1  0.5366100000000  0.5086330000000  0.5795130000000 1.0
C      1  0.5137760000000  0.5421650000000  0.4885930000000 1.0
C      1  0.5511930000000  0.4587730000000  0.5255900000000 1.0
C      1  0.5475200000000  0.4565680000000  0.5550220000000 1.0
C      1  0.5192670000000  0.4751100000000  0.5888730000000 1.0
C      1  0.5032550000000  0.5233340000000  0.4446000000000 1.0
C      1  0.5290250000000  0.5893610000000  0.4924490000000 1.0
C      1  0.4521840000000  0.5074890000000  0.5560230000000 1.0
C      1  0.5091970000000  0.5451040000000  0.5169410000000 1.0
C      1  0.5141190000000  0.4434870000000  0.5067990000000 1.0
C      1  0.5024540000000  0.4553630000000  0.4236570000000 1.0
C      1  0.4889310000000  0.5748670000000  0.4667150000000 1.0
C      1  0.4930360000000  0.4379610000000  0.5263210000000 1.0
C      1  0.4800560000000  0.4720230000000  0.4168830000000 1.0
C      1  0.4504240000000  0.4778020000000  0.5575490000000 1.0
C      1  0.4745440000000  0.4630810000000  0.5710300000000 1.0
END
