TITL C-951344-124-588 -0.000127083838128062 125000 -1097.68693410432 0 0 175 (C1) n - 1
REM
REM in /home/bkarasulu/work/CARBON/AIRSS/Generating-Clusters/EDIP-Nigel-Params/with-SteepDescent/Only-C1/SD-CG/HFTN-CG
REM
REM
REM
REM
REM
REM ./C.cell (11c1c37f851c82e70ff6c80c92926a4b)
REM
REM compiler GCC version 9.2.1 20190827 (Red Hat 9.2.1-1)
REM options -cpp -mtune=generic -march=x86-64 -g -O0 -fpre-include=/usr/include/finclude/math-vector-fortran.h
REM seed 1083123796 -439357597 1634296259 6732928 1424142466 -672660787 528421581 1808686410 -1698027016 17983378 1440079815 -1073091560 -1151889666 -974764936 1497853283 1661741475 -1096577038 -583145793 1199850881 -206491348 -2031174250 -257724660 -852271404 635697217 -473579576 977589477 -2087536722 888612985 -1509749910 -630890361 -1853839924 473115199 1108085831
REM
CELL 1.54180   50.00000   50.00000   50.00000   90.00000   90.00000   90.00000
LATT -1
SFAC C  
C      1  0.5260690000000  0.5086890000000  0.5652040000000 1.0
C      1  0.4584290000000  0.5009790000000  0.5618060000000 1.0
C      1  0.4806700000000  0.5940090000000  0.5191270000000 1.0
C      1  0.5056210000000  0.5569160000000  0.6068820000000 1.0
C      1  0.4934060000000  0.5812820000000  0.4361990000000 1.0
C      1  0.4444220000000  0.5194360000000  0.5397420000000 1.0
C      1  0.4492470000000  0.4532330000000  0.4037140000000 1.0
C      1  0.5081670000000  0.3939090000000  0.4972920000000 1.0
C      1  0.4929140000000  0.5537750000000  0.3966390000000 1.0
C      1  0.4904190000000  0.4058710000000  0.5190030000000 1.0
C      1  0.4645390000000  0.5561850000000  0.5625720000000 1.0
C      1  0.5839030000000  0.4869140000000  0.5216420000000 1.0
C      1  0.3956430000000  0.4708030000000  0.5009320000000 1.0
C      1  0.4604290000000  0.5360930000000  0.4844680000000 1.0
C      1  0.5562310000000  0.5845350000000  0.5499410000000 1.0
C      1  0.4156710000000  0.5664700000000  0.5201520000000 1.0
C      1  0.4660750000000  0.5552710000000  0.5082530000000 1.0
C      1  0.6041440000000  0.5191800000000  0.5443480000000 1.0
C      1  0.5548310000000  0.5144230000000  0.5639330000000 1.0
C      1  0.4953360000000  0.4602360000000  0.5113920000000 1.0
C      1  0.5881260000000  0.4348850000000  0.5419500000000 1.0
C      1  0.5550140000000  0.5273050000000  0.4921100000000 1.0
C      1  0.4269230000000  0.4690000000000  0.3970660000000 1.0
C      1  0.6147030000000  0.5117130000000  0.4940790000000 1.0
C      1  0.4635580000000  0.5974540000000  0.4682310000000 1.0
C      1  0.4934300000000  0.4153930000000  0.5666580000000 1.0
C      1  0.5115120000000  0.5339090000000  0.5530680000000 1.0
C      1  0.5799410000000  0.5666480000000  0.4829570000000 1.0
C      1  0.4954300000000  0.4050600000000  0.4722030000000 1.0
C      1  0.4832740000000  0.5069830000000  0.3854430000000 1.0
C      1  0.4835260000000  0.5179040000000  0.4790780000000 1.0
C      1  0.5422480000000  0.4223160000000  0.4500910000000 1.0
C      1  0.5518390000000  0.4406570000000  0.4296180000000 1.0
C      1  0.5557470000000  0.4723520000000  0.4816080000000 1.0
C      1  0.5128490000000  0.4947330000000  0.3855900000000 1.0
C      1  0.5816820000000  0.4222370000000  0.4896640000000 1.0
C      1  0.5332960000000  0.4520810000000  0.4813190000000 1.0
C      1  0.4153730000000  0.4892200000000  0.4130210000000 1.0
C      1  0.5203020000000  0.5328490000000  0.6085370000000 1.0
C      1  0.4509060000000  0.4256590000000  0.4798470000000 1.0
C      1  0.5514880000000  0.5569620000000  0.4880700000000 1.0
C      1  0.5021750000000  0.5340070000000  0.5227140000000 1.0
C      1  0.4947420000000  0.5095390000000  0.5057230000000 1.0
C      1  0.4768820000000  0.4659030000000  0.4069060000000 1.0
C      1  0.6007030000000  0.5188960000000  0.4687160000000 1.0
C      1  0.5927450000000  0.5481330000000  0.4629500000000 1.0
C      1  0.4723600000000  0.4944210000000  0.4087760000000 1.0
C      1  0.5091600000000  0.4681820000000  0.4859700000000 1.0
C      1  0.5238750000000  0.4860880000000  0.5459960000000 1.0
C      1  0.4106800000000  0.4471170000000  0.4962690000000 1.0
C      1  0.4289740000000  0.4696550000000  0.5364870000000 1.0
C      1  0.5393590000000  0.4897720000000  0.6090660000000 1.0
C      1  0.4639530000000  0.4205870000000  0.4346800000000 1.0
C      1  0.3956370000000  0.5213390000000  0.5033830000000 1.0
C      1  0.4468060000000  0.4432620000000  0.4299720000000 1.0
C      1  0.5299560000000  0.4460890000000  0.6109660000000 1.0
C      1  0.4652190000000  0.4134110000000  0.5678470000000 1.0
C      1  0.5332940000000  0.4587560000000  0.5538940000000 1.0
C      1  0.5311260000000  0.5574650000000  0.5618700000000 1.0
C      1  0.4413310000000  0.5483880000000  0.5811110000000 1.0
C      1  0.5961240000000  0.4902340000000  0.5505220000000 1.0
C      1  0.5402970000000  0.5068810000000  0.4762700000000 1.0
C      1  0.4458480000000  0.5413330000000  0.4038050000000 1.0
C      1  0.4654340000000  0.5883160000000  0.4390930000000 1.0
C      1  0.5989670000000  0.4451110000000  0.4818080000000 1.0
C      1  0.4126170000000  0.4800730000000  0.5699140000000 1.0
C      1  0.4840700000000  0.4679180000000  0.6034910000000 1.0
C      1  0.4866610000000  0.5066660000000  0.4316970000000 1.0
C      1  0.5721280000000  0.4904260000000  0.5685020000000 1.0
C      1  0.4885000000000  0.4657190000000  0.4615830000000 1.0
C      1  0.5635480000000  0.4143750000000  0.4682520000000 1.0
C      1  0.4223370000000  0.5298980000000  0.5701190000000 1.0
C      1  0.5484180000000  0.4645430000000  0.6020280000000 1.0
C      1  0.4429550000000  0.5759120000000  0.5052690000000 1.0
C      1  0.5753060000000  0.4510520000000  0.4401060000000 1.0
C      1  0.5513870000000  0.3979650000000  0.5244130000000 1.0
C      1  0.5081150000000  0.5670470000000  0.4155430000000 1.0
C      1  0.5257410000000  0.5197770000000  0.4544120000000 1.0
C      1  0.5491110000000  0.4481010000000  0.5271990000000 1.0
C      1  0.4340860000000  0.4411000000000  0.5407570000000 1.0
C      1  0.5822780000000  0.4662510000000  0.4636880000000 1.0
C      1  0.4938770000000  0.4261480000000  0.4318720000000 1.0
C      1  0.5557410000000  0.5204110000000  0.5202310000000 1.0
C      1  0.5347200000000  0.5659910000000  0.5120400000000 1.0
C      1  0.5786770000000  0.5363650000000  0.5348880000000 1.0
C      1  0.4806150000000  0.4325970000000  0.4803020000000 1.0
C      1  0.5356660000000  0.5581670000000  0.4200800000000 1.0
C      1  0.4830010000000  0.4344850000000  0.5094740000000 1.0
C      1  0.5053130000000  0.5842880000000  0.4625720000000 1.0
C      1  0.5049070000000  0.5608770000000  0.5076090000000 1.0
C      1  0.4090020000000  0.5259990000000  0.4514110000000 1.0
C      1  0.5137780000000  0.4651190000000  0.3969700000000 1.0
C      1  0.4537730000000  0.4053200000000  0.4571450000000 1.0
C      1  0.5738960000000  0.4190870000000  0.5197390000000 1.0
C      1  0.4569650000000  0.5974560000000  0.5399870000000 1.0
C      1  0.4072850000000  0.5372730000000  0.5240190000000 1.0
C      1  0.5108670000000  0.6154200000000  0.4844650000000 1.0
C      1  0.5384990000000  0.4943460000000  0.5209530000000 1.0
C      1  0.4405340000000  0.4822940000000  0.5767440000000 1.0
C      1  0.4124730000000  0.5464250000000  0.4710940000000 1.0
C      1  0.5734230000000  0.5017750000000  0.4296110000000 1.0
C      1  0.5315340000000  0.4354750000000  0.5060550000000 1.0
C      1  0.4350850000000  0.5199900000000  0.4862660000000 1.0
C      1  0.5577230000000  0.4634940000000  0.5733130000000 1.0
C      1  0.5085370000000  0.5593190000000  0.4772910000000 1.0
C      1  0.4609850000000  0.5432570000000  0.5355600000000 1.0
C      1  0.4915020000000  0.4968200000000  0.6001170000000 1.0
C      1  0.4690950000000  0.5865140000000  0.5648910000000 1.0
C      1  0.5464630000000  0.5347840000000  0.4054140000000 1.0
C      1  0.4732120000000  0.5159350000000  0.5849480000000 1.0
C      1  0.4798400000000  0.4852730000000  0.5482740000000 1.0
C      1  0.4028020000000  0.5239240000000  0.5500480000000 1.0
C      1  0.5752000000000  0.4415310000000  0.5660370000000 1.0
C      1  0.5370400000000  0.4623500000000  0.4169330000000 1.0
C      1  0.4572470000000  0.5362130000000  0.6029660000000 1.0
C      1  0.4288640000000  0.5858520000000  0.5393970000000 1.0
C      1  0.3974320000000  0.4966860000000  0.4891300000000 1.0
C      1  0.5773080000000  0.5512350000000  0.4379780000000 1.0
C      1  0.5535770000000  0.5857870000000  0.4621000000000 1.0
C      1  0.4018430000000  0.4946200000000  0.5481370000000 1.0
C      1  0.5581120000000  0.4737730000000  0.5132300000000 1.0
C      1  0.5330660000000  0.3998010000000  0.5453330000000 1.0
C      1  0.5318200000000  0.5071340000000  0.4066580000000 1.0
C      1  0.6014850000000  0.4860240000000  0.4984840000000 1.0
C      1  0.4577290000000  0.4582580000000  0.5815680000000 1.0
C      1  0.5059130000000  0.5939150000000  0.5370230000000 1.0
C      1  0.5138920000000  0.4118800000000  0.4489620000000 1.0
C      1  0.5561700000000  0.5709470000000  0.4367140000000 1.0
C      1  0.4629560000000  0.3958010000000  0.5188960000000 1.0
C      1  0.5144680000000  0.5723750000000  0.5821030000000 1.0
C      1  0.4336070000000  0.4678360000000  0.4544190000000 1.0
C      1  0.5196260000000  0.5064670000000  0.5966260000000 1.0
C      1  0.5571450000000  0.5430820000000  0.5719230000000 1.0
C      1  0.4360570000000  0.5191950000000  0.4416720000000 1.0
C      1  0.4335830000000  0.5146820000000  0.4129600000000 1.0
C      1  0.5723000000000  0.5292070000000  0.4195030000000 1.0
C      1  0.4463350000000  0.4956060000000  0.4590750000000 1.0
C      1  0.4422100000000  0.4091440000000  0.5041450000000 1.0
C      1  0.5740270000000  0.5611710000000  0.5549610000000 1.0
C      1  0.4452240000000  0.4330860000000  0.5675880000000 1.0
C      1  0.5354260000000  0.4061780000000  0.5004010000000 1.0
C      1  0.5052880000000  0.4479740000000  0.5977620000000 1.0
C      1  0.4966730000000  0.4556850000000  0.4309700000000 1.0
C      1  0.6121280000000  0.5289080000000  0.5173520000000 1.0
C      1  0.4439140000000  0.5665870000000  0.4332970000000 1.0
C      1  0.4800720000000  0.4592350000000  0.5603400000000 1.0
C      1  0.5020430000000  0.5352980000000  0.4625420000000 1.0
C      1  0.4980930000000  0.5921710000000  0.5657550000000 1.0
C      1  0.4877340000000  0.5386970000000  0.5709280000000 1.0
C      1  0.4469410000000  0.4781370000000  0.5111690000000 1.0
C      1  0.4782010000000  0.4836800000000  0.5190300000000 1.0
C      1  0.5164400000000  0.5040260000000  0.4321370000000 1.0
C      1  0.5197130000000  0.4957180000000  0.4965190000000 1.0
C      1  0.5290860000000  0.6031570000000  0.4637210000000 1.0
C      1  0.4383900000000  0.5873760000000  0.4781760000000 1.0
C      1  0.6139010000000  0.4597910000000  0.5034730000000 1.0
C      1  0.4762250000000  0.4949480000000  0.4586480000000 1.0
C      1  0.4244570000000  0.5702690000000  0.4586430000000 1.0
C      1  0.4079130000000  0.4787410000000  0.4415850000000 1.0
C      1  0.4777000000000  0.5539800000000  0.6116640000000 1.0
C      1  0.3971680000000  0.5003020000000  0.4598270000000 1.0
C      1  0.4741490000000  0.3866690000000  0.4633290000000 1.0
C      1  0.5051040000000  0.4012230000000  0.5451230000000 1.0
C      1  0.4725940000000  0.5356730000000  0.3917940000000 1.0
C      1  0.5911130000000  0.4948800000000  0.4522130000000 1.0
C      1  0.5349210000000  0.5873370000000  0.5304520000000 1.0
C      1  0.6054260000000  0.4571300000000  0.5331530000000 1.0
C      1  0.5046560000000  0.4436330000000  0.5684960000000 1.0
C      1  0.4840210000000  0.5382310000000  0.4340920000000 1.0
C      1  0.4563180000000  0.5422390000000  0.4463190000000 1.0
C      1  0.4360900000000  0.5056880000000  0.5127340000000 1.0
C      1  0.4829050000000  0.6070330000000  0.4912520000000 1.0
C      1  0.5529720000000  0.4868840000000  0.4136140000000 1.0
C      1  0.4360290000000  0.4541480000000  0.4827170000000 1.0
C      1  0.4219320000000  0.4268440000000  0.5176580000000 1.0
END
