TITL C-950521-2237-526 -8.2239767865075e-08 125000 -153.382481646921 0 0 27 (C1) n - 1
REM
REM in /home/bkarasulu/work/CARBON/AIRSS/Generating-Clusters/EDIP-Nigel-Params/with-SteepDescent/Only-C1/SD-CG/HFTN-CG
REM
REM
REM
REM
REM
REM ./C.cell (11c1c37f851c82e70ff6c80c92926a4b)
REM
REM compiler GCC version 9.2.1 20190827 (Red Hat 9.2.1-1)
REM options -cpp -mtune=generic -march=x86-64 -g -O0 -fpre-include=/usr/include/finclude/math-vector-fortran.h
REM seed 1812585290 -1995502035 1299105249 -1334685241 2110673751 -2042965246 -2076830289 744509893 -1996827472 562529192 -2042027200 -86850746 -762626732 1073823807 -1884575280 1374167778 -246864483 -1955840738 -427850694 -1695612242 1122499177 133896615 -1670763415 -1888638459 1429004234 1763242990 -695689262 -1749001513 982027535 1590764704 737240327 -497699268 -1083870299
REM
CELL 1.54180   50.00000   50.00000   50.00000   90.00000   90.00000   90.00000
LATT -1
SFAC C  
C      1  0.5175520000000  0.5120030000000  0.4478300000000 1.0
C      1  0.4734370000000  0.5405590000000  0.5238500000000 1.0
C      1  0.5560930000000  0.5306060000000  0.5162410000000 1.0
C      1  0.5039350000000  0.4220080000000  0.5078930000000 1.0
C      1  0.4388090000000  0.5101030000000  0.4941900000000 1.0
C      1  0.5157150000000  0.4812170000000  0.5494340000000 1.0
C      1  0.4626650000000  0.5158490000000  0.4544160000000 1.0
C      1  0.5093140000000  0.4608370000000  0.5286610000000 1.0
C      1  0.5273480000000  0.5337160000000  0.4603330000000 1.0
C      1  0.4961680000000  0.5016920000000  0.5509280000000 1.0
C      1  0.4904620000000  0.4985940000000  0.5071220000000 1.0
C      1  0.5225890000000  0.5495620000000  0.4829810000000 1.0
C      1  0.5415480000000  0.4921200000000  0.5481210000000 1.0
C      1  0.4821530000000  0.5235530000000  0.5430480000000 1.0
C      1  0.4966740000000  0.5020360000000  0.4649410000000 1.0
C      1  0.4929140000000  0.4290230000000  0.4842200000000 1.0
C      1  0.4723200000000  0.5437830000000  0.4959990000000 1.0
C      1  0.5555950000000  0.5110380000000  0.5350030000000 1.0
C      1  0.4879500000000  0.4724350000000  0.4583610000000 1.0
C      1  0.4862960000000  0.4562380000000  0.4832120000000 1.0
C      1  0.5296740000000  0.5340000000000  0.5071260000000 1.0
C      1  0.4604870000000  0.5205220000000  0.4827160000000 1.0
C      1  0.4950860000000  0.5555770000000  0.4845540000000 1.0
C      1  0.4657200000000  0.4883420000000  0.4462180000000 1.0
C      1  0.5147020000000  0.5107460000000  0.5037530000000 1.0
C      1  0.5128910000000  0.4330300000000  0.5310060000000 1.0
C      1  0.4919010000000  0.4708100000000  0.5078450000000 1.0
END
