TITL C-951341-1326-344 -2.80376790359341e-07 125000 -246.168425040169 0 0 41 (C1) n - 1
REM
REM in /home/bkarasulu/work/CARBON/AIRSS/Generating-Clusters/EDIP-Nigel-Params/with-SteepDescent/Only-C1/SD-CG/HFTN-CG
REM
REM
REM
REM
REM
REM ./C.cell (11c1c37f851c82e70ff6c80c92926a4b)
REM
REM compiler GCC version 9.2.1 20190827 (Red Hat 9.2.1-1)
REM options -cpp -mtune=generic -march=x86-64 -g -O0 -fpre-include=/usr/include/finclude/math-vector-fortran.h
REM seed -781906197 -825233352 -1186977761 -444910216 1568163761 -1526278638 -343178691 1860762460 668663556 325559392 1562025099 -135266725 -521491193 1712871915 1778588959 1852134473 196690455 -1474507622 -533853412 1945145826 1406087475 -1065477939 1101258924 238789140 1640263377 251224116 650397029 2107625255 -1335764321 -1183048582 -987888458 -1605311817 -1751498689
REM
CELL 1.54180   50.00000   50.00000   50.00000   90.00000   90.00000   90.00000
LATT -1
SFAC C  
C      1  0.5156990000000  0.5532790000000  0.4815960000000 1.0
C      1  0.4449270000000  0.4863040000000  0.4736330000000 1.0
C      1  0.5055330000000  0.4949250000000  0.4919660000000 1.0
C      1  0.4955440000000  0.5827840000000  0.5110470000000 1.0
C      1  0.4895440000000  0.5596210000000  0.5497590000000 1.0
C      1  0.4716220000000  0.4620590000000  0.5301470000000 1.0
C      1  0.4738400000000  0.5373150000000  0.5424770000000 1.0
C      1  0.4578590000000  0.5411540000000  0.5169260000000 1.0
C      1  0.4437250000000  0.5167260000000  0.5104200000000 1.0
C      1  0.5203330000000  0.4249800000000  0.5231930000000 1.0
C      1  0.5169330000000  0.4677470000000  0.4590000000000 1.0
C      1  0.4611630000000  0.4636720000000  0.5005810000000 1.0
C      1  0.5249960000000  0.5395030000000  0.5071750000000 1.0
C      1  0.4767400000000  0.4480660000000  0.4800490000000 1.0
C      1  0.4909160000000  0.5672150000000  0.4879860000000 1.0
C      1  0.5156830000000  0.4521630000000  0.5507060000000 1.0
C      1  0.4735250000000  0.5163540000000  0.4490140000000 1.0
C      1  0.5097630000000  0.5137820000000  0.5150590000000 1.0
C      1  0.5565650000000  0.4568780000000  0.5219360000000 1.0
C      1  0.4382750000000  0.5139470000000  0.4820230000000 1.0
C      1  0.5529030000000  0.4658560000000  0.4960220000000 1.0
C      1  0.5302310000000  0.5574560000000  0.5281380000000 1.0
C      1  0.4898270000000  0.5119600000000  0.5374290000000 1.0
C      1  0.5643040000000  0.4898440000000  0.4885520000000 1.0
C      1  0.4684330000000  0.4895090000000  0.4564640000000 1.0
C      1  0.5276390000000  0.4912050000000  0.4474680000000 1.0
C      1  0.5404450000000  0.4416620000000  0.5388280000000 1.0
C      1  0.5250770000000  0.4611430000000  0.4875230000000 1.0
C      1  0.4591340000000  0.5310110000000  0.4690190000000 1.0
C      1  0.5522130000000  0.5138940000000  0.4824260000000 1.0
C      1  0.4906500000000  0.4428630000000  0.5402530000000 1.0
C      1  0.4918530000000  0.4251830000000  0.4852280000000 1.0
C      1  0.5079050000000  0.5736940000000  0.5344590000000 1.0
C      1  0.5143830000000  0.5353980000000  0.4599370000000 1.0
C      1  0.5518950000000  0.5329670000000  0.5034140000000 1.0
C      1  0.4876230000000  0.4677690000000  0.4614480000000 1.0
C      1  0.4753610000000  0.4876750000000  0.5413250000000 1.0
C      1  0.5250330000000  0.5100030000000  0.4696150000000 1.0
C      1  0.5158190000000  0.4340270000000  0.4957590000000 1.0
C      1  0.4733070000000  0.5439800000000  0.4916570000000 1.0
C      1  0.4727800000000  0.4944280000000  0.5003420000000 1.0
END
