TITL C-951344-124-668 -2.79054364592028e-06 125000 -492.108118322067 0 0 80 (C1) n - 1
REM
REM in /home/bkarasulu/work/CARBON/AIRSS/Generating-Clusters/EDIP-Nigel-Params/with-SteepDescent/Only-C1/SD-CG/HFTN-CG
REM
REM
REM
REM
REM
REM ./C.cell (11c1c37f851c82e70ff6c80c92926a4b)
REM
REM compiler GCC version 9.2.1 20190827 (Red Hat 9.2.1-1)
REM options -cpp -mtune=generic -march=x86-64 -g -O0 -fpre-include=/usr/include/finclude/math-vector-fortran.h
REM seed 1605470868 -889388623 2020701038 339042858 1720412192 544860431 1830002949 384783630 2136537397 -2003100971 -1235154034 729548123 1892818691 892115887 1893932314 1315114006 -2034114174 -1490350106 1523826492 1299330193 182785980 -1269114608 -1873977188 613329783 151136096 -1631280949 2093784533 1841431726 1669389234 -424298516 -863923363 -1616059417 -493445966
REM
CELL 1.54180   50.00000   50.00000   50.00000   90.00000   90.00000   90.00000
LATT -1
SFAC C  
C      1  0.4600050000000  0.5314500000000  0.4328510000000 1.0
C      1  0.4680780000000  0.5832910000000  0.4910150000000 1.0
C      1  0.5116690000000  0.4732260000000  0.4368030000000 1.0
C      1  0.4942030000000  0.4500930000000  0.4448290000000 1.0
C      1  0.5327660000000  0.4284810000000  0.4638610000000 1.0
C      1  0.4391000000000  0.5130140000000  0.5569880000000 1.0
C      1  0.4847960000000  0.4548720000000  0.5636440000000 1.0
C      1  0.4935870000000  0.5414650000000  0.4979840000000 1.0
C      1  0.4443250000000  0.5077590000000  0.4422150000000 1.0
C      1  0.5262660000000  0.5059190000000  0.4804130000000 1.0
C      1  0.4395110000000  0.5572710000000  0.4958210000000 1.0
C      1  0.5005020000000  0.4205860000000  0.5123100000000 1.0
C      1  0.4355110000000  0.5337590000000  0.5141460000000 1.0
C      1  0.5685540000000  0.4792680000000  0.5086470000000 1.0
C      1  0.4612170000000  0.5082210000000  0.4882770000000 1.0
C      1  0.5495400000000  0.5642450000000  0.5205940000000 1.0
C      1  0.5556500000000  0.4861440000000  0.5388350000000 1.0
C      1  0.5233080000000  0.4037520000000  0.5121100000000 1.0
C      1  0.5074800000000  0.4643660000000  0.5457330000000 1.0
C      1  0.4461580000000  0.5342530000000  0.5408610000000 1.0
C      1  0.4949560000000  0.5029420000000  0.5678960000000 1.0
C      1  0.4454470000000  0.4278370000000  0.5108660000000 1.0
C      1  0.5068040000000  0.5468190000000  0.4385480000000 1.0
C      1  0.4324370000000  0.5460690000000  0.4693250000000 1.0
C      1  0.4120090000000  0.4653320000000  0.4929000000000 1.0
C      1  0.5499960000000  0.4093280000000  0.5127290000000 1.0
C      1  0.4202360000000  0.5100860000000  0.5055430000000 1.0
C      1  0.5335360000000  0.4732500000000  0.5576780000000 1.0
C      1  0.5577550000000  0.5612810000000  0.4911020000000 1.0
C      1  0.5689850000000  0.5584980000000  0.5404940000000 1.0
C      1  0.4591850000000  0.4300290000000  0.4866970000000 1.0
C      1  0.5356390000000  0.5651470000000  0.4721930000000 1.0
C      1  0.5046170000000  0.4834500000000  0.4793200000000 1.0
C      1  0.5230120000000  0.4955420000000  0.5743060000000 1.0
C      1  0.5151680000000  0.5829270000000  0.4795590000000 1.0
C      1  0.5468440000000  0.5024080000000  0.4588180000000 1.0
C      1  0.5595520000000  0.4548400000000  0.4950830000000 1.0
C      1  0.5969130000000  0.5171250000000  0.4786830000000 1.0
C      1  0.5047240000000  0.4307460000000  0.4636810000000 1.0
C      1  0.5196930000000  0.5421130000000  0.5549690000000 1.0
C      1  0.5410140000000  0.4750740000000  0.4480310000000 1.0
C      1  0.4925720000000  0.5320170000000  0.5610530000000 1.0
C      1  0.5771450000000  0.5369590000000  0.4856780000000 1.0
C      1  0.5113380000000  0.4490200000000  0.5178710000000 1.0
C      1  0.4390930000000  0.4711420000000  0.5329700000000 1.0
C      1  0.4933990000000  0.4958580000000  0.4265030000000 1.0
C      1  0.5384750000000  0.5117050000000  0.5071780000000 1.0
C      1  0.4871090000000  0.4215220000000  0.4857720000000 1.0
C      1  0.4201570000000  0.4821070000000  0.5135350000000 1.0
C      1  0.5387330000000  0.5197430000000  0.5653690000000 1.0
C      1  0.5665430000000  0.5224440000000  0.5098070000000 1.0
C      1  0.4960960000000  0.4726560000000  0.5046750000000 1.0
C      1  0.4950710000000  0.4952990000000  0.5250860000000 1.0
C      1  0.5221910000000  0.5557950000000  0.5285220000000 1.0
C      1  0.4652690000000  0.4378380000000  0.5529410000000 1.0
C      1  0.4728240000000  0.5431480000000  0.5433830000000 1.0
C      1  0.5335890000000  0.5486780000000  0.4476790000000 1.0
C      1  0.4476700000000  0.4868150000000  0.5558950000000 1.0
C      1  0.4454920000000  0.4430890000000  0.5341530000000 1.0
C      1  0.4539110000000  0.5541250000000  0.4506890000000 1.0
C      1  0.4826020000000  0.5023570000000  0.4680130000000 1.0
C      1  0.4737810000000  0.5575180000000  0.4773020000000 1.0
C      1  0.4994760000000  0.5713320000000  0.5219240000000 1.0
C      1  0.5904100000000  0.4956880000000  0.4963250000000 1.0
C      1  0.5653580000000  0.5114780000000  0.5533590000000 1.0
C      1  0.5467950000000  0.4526150000000  0.4681040000000 1.0
C      1  0.4483200000000  0.4469020000000  0.4662010000000 1.0
C      1  0.4768050000000  0.5196720000000  0.5130500000000 1.0
C      1  0.4223280000000  0.4559390000000  0.4699110000000 1.0
C      1  0.5233640000000  0.5068400000000  0.5319730000000 1.0
C      1  0.4657950000000  0.4863340000000  0.4367260000000 1.0
C      1  0.5043050000000  0.5271190000000  0.4722060000000 1.0
C      1  0.4889080000000  0.5253670000000  0.4312800000000 1.0
C      1  0.4659170000000  0.4577060000000  0.4457330000000 1.0
C      1  0.4361550000000  0.5160650000000  0.4713380000000 1.0
C      1  0.4738700000000  0.4817520000000  0.5687460000000 1.0
C      1  0.4958610000000  0.5884100000000  0.4994010000000 1.0
C      1  0.5477680000000  0.4373200000000  0.5148960000000 1.0
C      1  0.5761690000000  0.5320350000000  0.5358700000000 1.0
C      1  0.5485910000000  0.5253140000000  0.4425230000000 1.0
END
