TITL C-950536-5891-325 -3.53514769420841e-07 125000 -278.240816607857 0 0 45 (C1) n - 1
REM
REM in /home/bkarasulu/work/CARBON/AIRSS/Generating-Clusters/EDIP-Nigel-Params/with-SteepDescent/Only-C1/SD-CG/HFTN-CG
REM
REM
REM
REM
REM
REM ./C.cell (11c1c37f851c82e70ff6c80c92926a4b)
REM
REM compiler GCC version 9.2.1 20190827 (Red Hat 9.2.1-1)
REM options -cpp -mtune=generic -march=x86-64 -g -O0 -fpre-include=/usr/include/finclude/math-vector-fortran.h
REM seed -689955381 -1112140670 133582592 372996218 223774878 -514072434 1561768896 1003542269 85139977 -1319954719 1411290685 -1453959068 -1678017827 -979096263 743747409 336943046 219040397 -1916250143 2074527112 -1234551897 1076110148 -1321362900 -1977057361 -1880385739 -451647785 -1134451946 1736394086 -1359618372 640398893 506234674 -791061044 1048318482 -229012
REM
CELL 1.54180   50.00000   50.00000   50.00000   90.00000   90.00000   90.00000
LATT -1
SFAC C  
C      1  0.4643590000000  0.5354890000000  0.4706260000000 1.0
C      1  0.5118130000000  0.4606270000000  0.4478250000000 1.0
C      1  0.5264920000000  0.5082250000000  0.4401110000000 1.0
C      1  0.4830130000000  0.4602290000000  0.4553680000000 1.0
C      1  0.5582910000000  0.5035870000000  0.5138250000000 1.0
C      1  0.4642610000000  0.4656560000000  0.5439420000000 1.0
C      1  0.4590220000000  0.5291490000000  0.4992380000000 1.0
C      1  0.5380350000000  0.4665000000000  0.5456560000000 1.0
C      1  0.4821200000000  0.5212530000000  0.4266720000000 1.0
C      1  0.5374260000000  0.5151780000000  0.5324400000000 1.0
C      1  0.5549550000000  0.4572940000000  0.5121250000000 1.0
C      1  0.4795940000000  0.5604130000000  0.4692880000000 1.0
C      1  0.4719200000000  0.4469040000000  0.5205570000000 1.0
C      1  0.5130660000000  0.5253990000000  0.5175250000000 1.0
C      1  0.4601060000000  0.4526540000000  0.4927640000000 1.0
C      1  0.4830100000000  0.5186890000000  0.5552990000000 1.0
C      1  0.5018190000000  0.4493000000000  0.5190050000000 1.0
C      1  0.5307470000000  0.4532300000000  0.4674250000000 1.0
C      1  0.5196590000000  0.4823550000000  0.4323170000000 1.0
C      1  0.5227970000000  0.5482440000000  0.4994030000000 1.0
C      1  0.4842600000000  0.5700580000000  0.4970580000000 1.0
C      1  0.4665560000000  0.5010290000000  0.5068760000000 1.0
C      1  0.5076900000000  0.4744710000000  0.5067540000000 1.0
C      1  0.5120190000000  0.4506010000000  0.5470460000000 1.0
C      1  0.5013920000000  0.4958250000000  0.5620970000000 1.0
C      1  0.5085700000000  0.5302560000000  0.4315820000000 1.0
C      1  0.5475930000000  0.4955060000000  0.4868870000000 1.0
C      1  0.4728410000000  0.5140100000000  0.4523230000000 1.0
C      1  0.4716900000000  0.5505950000000  0.5167850000000 1.0
C      1  0.5483140000000  0.4662630000000  0.4852500000000 1.0
C      1  0.4928310000000  0.5384460000000  0.5358150000000 1.0
C      1  0.4681660000000  0.4859510000000  0.4598780000000 1.0
C      1  0.4543530000000  0.4922940000000  0.5340200000000 1.0
C      1  0.5298400000000  0.4947870000000  0.5526730000000 1.0
C      1  0.5296330000000  0.5414410000000  0.4720850000000 1.0
C      1  0.4563400000000  0.4816710000000  0.4861910000000 1.0
C      1  0.5116630000000  0.5741040000000  0.5030250000000 1.0
C      1  0.5683350000000  0.4786620000000  0.5254780000000 1.0
C      1  0.4576310000000  0.5219710000000  0.5672090000000 1.0
C      1  0.5354920000000  0.5137070000000  0.4671430000000 1.0
C      1  0.4737340000000  0.4389820000000  0.4716740000000 1.0
C      1  0.5110780000000  0.5519520000000  0.4517970000000 1.0
C      1  0.4903750000000  0.4676150000000  0.5609990000000 1.0
C      1  0.4398970000000  0.5087020000000  0.5520060000000 1.0
C      1  0.4972030000000  0.5007260000000  0.5059400000000 1.0
END
