TITL C-951340-9809-49 -3.13772998760295e-06 125000 -299.045338281549 0 0 49 (C1) n - 1
REM
REM in /home/bkarasulu/work/CARBON/AIRSS/Generating-Clusters/EDIP-Nigel-Params/with-SteepDescent/Only-C1/SD-CG/HFTN-CG
REM
REM
REM
REM
REM
REM ./C.cell (11c1c37f851c82e70ff6c80c92926a4b)
REM
REM compiler GCC version 9.2.1 20190827 (Red Hat 9.2.1-1)
REM options -cpp -mtune=generic -march=x86-64 -g -O0 -fpre-include=/usr/include/finclude/math-vector-fortran.h
REM seed 403678202 -1363761213 -1318948413 1747943319 -591048123 -627008567 1915491557 393472339 -1097133762 52428569 390479288 -411440847 -25890289 -1652531609 -383045444 -670622184 2027055670 504788946 1187572029 1982121611 1553043836 960945727 1777973433 1383052429 -945725132 -1796828091 1789876150 -1393855966 1355070674 660289374 1561993597 1944358768 -605643737
REM
CELL 1.54180   50.00000   50.00000   50.00000   90.00000   90.00000   90.00000
LATT -1
SFAC C  
C      1  0.5063780000000  0.4674240000000  0.4483060000000 1.0
C      1  0.4539610000000  0.4698860000000  0.5375260000000 1.0
C      1  0.5057170000000  0.5026790000000  0.5004560000000 1.0
C      1  0.4312740000000  0.4873120000000  0.4971510000000 1.0
C      1  0.4424790000000  0.5386840000000  0.5099700000000 1.0
C      1  0.5483980000000  0.5239070000000  0.5158050000000 1.0
C      1  0.5432630000000  0.5070870000000  0.4665730000000 1.0
C      1  0.4772080000000  0.5011100000000  0.5053870000000 1.0
C      1  0.4752690000000  0.4533810000000  0.5454310000000 1.0
C      1  0.4865710000000  0.5623180000000  0.5130120000000 1.0
C      1  0.4514490000000  0.4448300000000  0.4947690000000 1.0
C      1  0.4908500000000  0.5546920000000  0.4853050000000 1.0
C      1  0.5014650000000  0.4506160000000  0.5403560000000 1.0
C      1  0.5316680000000  0.4533220000000  0.4615540000000 1.0
C      1  0.5264150000000  0.4613700000000  0.5336350000000 1.0
C      1  0.4611330000000  0.5550740000000  0.5240330000000 1.0
C      1  0.5520080000000  0.5292320000000  0.4864770000000 1.0
C      1  0.5551630000000  0.4730630000000  0.4679900000000 1.0
C      1  0.4796750000000  0.5038090000000  0.4387420000000 1.0
C      1  0.4843810000000  0.5149630000000  0.5830680000000 1.0
C      1  0.5684000000000  0.5058090000000  0.5281920000000 1.0
C      1  0.4783220000000  0.4631770000000  0.4568120000000 1.0
C      1  0.5077400000000  0.5593460000000  0.5310670000000 1.0
C      1  0.4670290000000  0.5171640000000  0.5281490000000 1.0
C      1  0.5352660000000  0.4595280000000  0.5055020000000 1.0
C      1  0.4450320000000  0.5352400000000  0.4812410000000 1.0
C      1  0.4685810000000  0.5466070000000  0.4685200000000 1.0
C      1  0.4539600000000  0.4980080000000  0.5478640000000 1.0
C      1  0.5767700000000  0.4869870000000  0.5095470000000 1.0
C      1  0.5153250000000  0.5566510000000  0.4694410000000 1.0
C      1  0.4411150000000  0.4649560000000  0.5111550000000 1.0
C      1  0.4807960000000  0.5334650000000  0.4443100000000 1.0
C      1  0.4547380000000  0.4991750000000  0.4868210000000 1.0
C      1  0.5306330000000  0.4888890000000  0.5442870000000 1.0
C      1  0.5054060000000  0.5324230000000  0.5397400000000 1.0
C      1  0.5102170000000  0.5411160000000  0.4446490000000 1.0
C      1  0.5412460000000  0.5540900000000  0.4794900000000 1.0
C      1  0.5198980000000  0.4895740000000  0.4773120000000 1.0
C      1  0.5011150000000  0.5281560000000  0.5669360000000 1.0
C      1  0.5235690000000  0.4402340000000  0.4870600000000 1.0
C      1  0.4635720000000  0.5008690000000  0.5738770000000 1.0
C      1  0.5575810000000  0.4942270000000  0.5516240000000 1.0
C      1  0.4737240000000  0.4440300000000  0.4781570000000 1.0
C      1  0.5072390000000  0.4943820000000  0.4350580000000 1.0
C      1  0.5618510000000  0.4677940000000  0.4960910000000 1.0
C      1  0.4607790000000  0.4833440000000  0.4466420000000 1.0
C      1  0.4968210000000  0.4326740000000  0.4881200000000 1.0
C      1  0.5268640000000  0.5157410000000  0.4422270000000 1.0
C      1  0.5216870000000  0.5115840000000  0.5245620000000 1.0
END
