TITL C-951347-9520-156 7.24751594604308e-07 125000 -465.024516144922 0 0 74 (C1) n - 1
REM
REM in /home/bkarasulu/work/CARBON/AIRSS/Generating-Clusters/EDIP-Nigel-Params/with-SteepDescent/Only-C1/SD-CG/HFTN-CG
REM
REM
REM
REM
REM
REM ./C.cell (11c1c37f851c82e70ff6c80c92926a4b)
REM
REM compiler GCC version 9.2.1 20190827 (Red Hat 9.2.1-1)
REM options -cpp -mtune=generic -march=x86-64 -g -O0 -fpre-include=/usr/include/finclude/math-vector-fortran.h
REM seed -902027250 -213720693 316980761 -1481449304 234828395 15696184 -1644779592 1561546049 103186229 1416747630 956703795 -902809250 -1308928786 2019621846 1328585461 1027864005 -420096485 944501409 1153452191 -92184088 375235966 -1491185473 -980674611 1549020345 190074747 -254949791 -1031963730 -1062063095 -1759701495 -646576838 1915534487 253288228 1030377527
REM
CELL 1.54180   50.00000   50.00000   50.00000   90.00000   90.00000   90.00000
LATT -1
SFAC C  
C      1  0.4443980000000  0.5380640000000  0.5163420000000 1.0
C      1  0.4725320000000  0.4477680000000  0.4700160000000 1.0
C      1  0.4290190000000  0.4585860000000  0.4825090000000 1.0
C      1  0.5234100000000  0.4576600000000  0.5345670000000 1.0
C      1  0.4253370000000  0.4284970000000  0.5223830000000 1.0
C      1  0.5096420000000  0.5246290000000  0.5865630000000 1.0
C      1  0.5673550000000  0.4924560000000  0.4476310000000 1.0
C      1  0.5515710000000  0.5572140000000  0.5136140000000 1.0
C      1  0.4982410000000  0.4548510000000  0.5775290000000 1.0
C      1  0.5394960000000  0.5286100000000  0.4329640000000 1.0
C      1  0.5371700000000  0.4886460000000  0.4978960000000 1.0
C      1  0.5334220000000  0.5189560000000  0.4917840000000 1.0
C      1  0.4602600000000  0.4787590000000  0.5612050000000 1.0
C      1  0.5256300000000  0.4796200000000  0.4281670000000 1.0
C      1  0.4851000000000  0.4793520000000  0.5778600000000 1.0
C      1  0.4823450000000  0.5148980000000  0.5464630000000 1.0
C      1  0.5017300000000  0.5457720000000  0.4574310000000 1.0
C      1  0.4335230000000  0.4486750000000  0.5381510000000 1.0
C      1  0.4834460000000  0.4706710000000  0.4852490000000 1.0
C      1  0.5382090000000  0.5743460000000  0.4923800000000 1.0
C      1  0.4381290000000  0.4869920000000  0.4970350000000 1.0
C      1  0.4543480000000  0.5062070000000  0.5513600000000 1.0
C      1  0.5007030000000  0.5036110000000  0.5680900000000 1.0
C      1  0.5644370000000  0.4845310000000  0.5102730000000 1.0
C      1  0.5746130000000  0.5409430000000  0.5006840000000 1.0
C      1  0.4878460000000  0.5011050000000  0.5181920000000 1.0
C      1  0.5036130000000  0.4436940000000  0.5524970000000 1.0
C      1  0.5199920000000  0.4414410000000  0.4722850000000 1.0
C      1  0.5252610000000  0.5409050000000  0.5684790000000 1.0
C      1  0.5156210000000  0.4307190000000  0.4999930000000 1.0
C      1  0.5325980000000  0.5346750000000  0.5189940000000 1.0
C      1  0.5364100000000  0.4371280000000  0.5184690000000 1.0
C      1  0.4662210000000  0.4791470000000  0.5099680000000 1.0
C      1  0.5700750000000  0.5131400000000  0.5437100000000 1.0
C      1  0.4541410000000  0.5389010000000  0.4429650000000 1.0
C      1  0.5634600000000  0.5199180000000  0.4489410000000 1.0
C      1  0.4393550000000  0.5105100000000  0.5263850000000 1.0
C      1  0.4799780000000  0.4367810000000  0.5373990000000 1.0
C      1  0.5572260000000  0.5332000000000  0.4759620000000 1.0
C      1  0.4747790000000  0.5781700000000  0.5131650000000 1.0
C      1  0.4765130000000  0.4872560000000  0.4324470000000 1.0
C      1  0.5414960000000  0.4740050000000  0.5522910000000 1.0
C      1  0.4460640000000  0.4570330000000  0.4574070000000 1.0
C      1  0.4964550000000  0.4416560000000  0.4531530000000 1.0
C      1  0.5280730000000  0.5532450000000  0.4452320000000 1.0
C      1  0.4366880000000  0.4334360000000  0.4969000000000 1.0
C      1  0.5135830000000  0.4812980000000  0.5158300000000 1.0
C      1  0.4457460000000  0.5292880000000  0.4677130000000 1.0
C      1  0.5094630000000  0.5782770000000  0.4958970000000 1.0
C      1  0.4676270000000  0.5676050000000  0.4871860000000 1.0
C      1  0.4609020000000  0.5388570000000  0.4911390000000 1.0
C      1  0.4987830000000  0.4653940000000  0.4331660000000 1.0
C      1  0.4633380000000  0.5580940000000  0.5313760000000 1.0
C      1  0.5475350000000  0.4730040000000  0.4469340000000 1.0
C      1  0.5027230000000  0.4867030000000  0.4658550000000 1.0
C      1  0.4860230000000  0.5219290000000  0.4966950000000 1.0
C      1  0.5300060000000  0.4707510000000  0.4714260000000 1.0
C      1  0.5062590000000  0.5191060000000  0.4760870000000 1.0
C      1  0.5263180000000  0.4988830000000  0.5541030000000 1.0
C      1  0.5816920000000  0.5176260000000  0.5166700000000 1.0
C      1  0.4598640000000  0.4598750000000  0.5371430000000 1.0
C      1  0.5672070000000  0.4828790000000  0.5399230000000 1.0
C      1  0.4872300000000  0.4262280000000  0.5103120000000 1.0
C      1  0.4842340000000  0.5445620000000  0.5462720000000 1.0
C      1  0.4905320000000  0.5129360000000  0.4261960000000 1.0
C      1  0.4494160000000  0.4842170000000  0.4466080000000 1.0
C      1  0.4654000000000  0.4270710000000  0.4899650000000 1.0
C      1  0.5188850000000  0.5078320000000  0.4303180000000 1.0
C      1  0.4425770000000  0.5010330000000  0.4700910000000 1.0
C      1  0.4930200000000  0.5699760000000  0.4735810000000 1.0
C      1  0.5068790000000  0.5581960000000  0.5561480000000 1.0
C      1  0.5406090000000  0.5236560000000  0.5468440000000 1.0
C      1  0.5469390000000  0.5598590000000  0.4671930000000 1.0
C      1  0.4812740000000  0.5384870000000  0.4363460000000 1.0
END
