TITL C-951346-9544-292 -2.3973878158509e-07 125000 -521.142376801814 0 0 86 (C1) n - 1
REM
REM in /home/bkarasulu/work/CARBON/AIRSS/Generating-Clusters/EDIP-Nigel-Params/with-SteepDescent/Only-C1/SD-CG/HFTN-CG
REM
REM
REM
REM
REM
REM ./C.cell (11c1c37f851c82e70ff6c80c92926a4b)
REM
REM compiler GCC version 9.2.1 20190827 (Red Hat 9.2.1-1)
REM options -cpp -mtune=generic -march=x86-64 -g -O0 -fpre-include=/usr/include/finclude/math-vector-fortran.h
REM seed 429062764 706948404 -1072061570 1440279287 -860962893 312477732 -1262083999 -687640624 -160608345 -729276460 -707419944 -521446379 -325867336 -1542340789 -1657071693 698217761 -122600844 794567668 1214648153 -1919475172 1554735558 -628929750 -1856340601 -1440352011 826883579 561573699 -1085408299 1506586553 -1720616454 136438605 -1621584001 -1010652822 15281383
REM
CELL 1.54180   50.00000   50.00000   50.00000   90.00000   90.00000   90.00000
LATT -1
SFAC C  
C      1  0.4771150000000  0.4306660000000  0.4860130000000 1.0
C      1  0.5156240000000  0.4415670000000  0.4553100000000 1.0
C      1  0.4431550000000  0.5640610000000  0.5092330000000 1.0
C      1  0.4450590000000  0.5260840000000  0.5542500000000 1.0
C      1  0.4920440000000  0.4744250000000  0.5447430000000 1.0
C      1  0.5873410000000  0.5255330000000  0.5110020000000 1.0
C      1  0.5565850000000  0.5631640000000  0.5434970000000 1.0
C      1  0.5211680000000  0.5636460000000  0.4482250000000 1.0
C      1  0.5067840000000  0.4956630000000  0.4318360000000 1.0
C      1  0.4388470000000  0.5502040000000  0.4852190000000 1.0
C      1  0.5177210000000  0.4276680000000  0.5371720000000 1.0
C      1  0.4879150000000  0.5817340000000  0.5117230000000 1.0
C      1  0.5548800000000  0.5221250000000  0.4619720000000 1.0
C      1  0.4495880000000  0.4523020000000  0.5623720000000 1.0
C      1  0.5177290000000  0.5178580000000  0.4930390000000 1.0
C      1  0.4862760000000  0.4313390000000  0.5347190000000 1.0
C      1  0.5481880000000  0.5265170000000  0.5819020000000 1.0
C      1  0.5122170000000  0.4618890000000  0.5647600000000 1.0
C      1  0.5194030000000  0.4342930000000  0.5645190000000 1.0
C      1  0.5439360000000  0.4342230000000  0.4631330000000 1.0
C      1  0.4136890000000  0.5082320000000  0.5195140000000 1.0
C      1  0.5343480000000  0.4789560000000  0.5725750000000 1.0
C      1  0.5187740000000  0.4971820000000  0.5130290000000 1.0
C      1  0.5335740000000  0.4801770000000  0.4697900000000 1.0
C      1  0.5718060000000  0.4761640000000  0.5168070000000 1.0
C      1  0.4395880000000  0.4297490000000  0.5155190000000 1.0
C      1  0.4618570000000  0.5781670000000  0.5240940000000 1.0
C      1  0.4082000000000  0.4656390000000  0.5027980000000 1.0
C      1  0.4315440000000  0.4426490000000  0.4715480000000 1.0
C      1  0.4509340000000  0.5681310000000  0.4657540000000 1.0
C      1  0.5644010000000  0.4733460000000  0.4680290000000 1.0
C      1  0.5403500000000  0.4413720000000  0.5225850000000 1.0
C      1  0.4378710000000  0.5238440000000  0.4308900000000 1.0
C      1  0.4580680000000  0.4809150000000  0.4357010000000 1.0
C      1  0.4889990000000  0.4639810000000  0.5128050000000 1.0
C      1  0.4656210000000  0.4743970000000  0.5582700000000 1.0
C      1  0.4602850000000  0.5101010000000  0.5110450000000 1.0
C      1  0.4640240000000  0.5452430000000  0.5625140000000 1.0
C      1  0.5013870000000  0.5137310000000  0.5756190000000 1.0
C      1  0.4496640000000  0.5222380000000  0.4850230000000 1.0
C      1  0.4691950000000  0.4579970000000  0.4492590000000 1.0
C      1  0.5571190000000  0.5174710000000  0.5124700000000 1.0
C      1  0.4345530000000  0.4984020000000  0.4436170000000 1.0
C      1  0.4329180000000  0.4988350000000  0.4744790000000 1.0
C      1  0.5107120000000  0.5467670000000  0.5415050000000 1.0
C      1  0.4923890000000  0.5377530000000  0.5636140000000 1.0
C      1  0.5475500000000  0.4674900000000  0.4264530000000 1.0
C      1  0.4666140000000  0.4815570000000  0.5028060000000 1.0
C      1  0.5899650000000  0.4981790000000  0.5207160000000 1.0
C      1  0.5220100000000  0.5683070000000  0.4756140000000 1.0
C      1  0.5035260000000  0.5032110000000  0.5382360000000 1.0
C      1  0.4828690000000  0.5500780000000  0.4774270000000 1.0
C      1  0.5577590000000  0.5373740000000  0.5579910000000 1.0
C      1  0.4765110000000  0.5784610000000  0.4751960000000 1.0
C      1  0.5100820000000  0.5469740000000  0.4285470000000 1.0
C      1  0.5525990000000  0.5187290000000  0.4314020000000 1.0
C      1  0.4823310000000  0.5466950000000  0.4240020000000 1.0
C      1  0.5581790000000  0.4683530000000  0.5629450000000 1.0
C      1  0.5029200000000  0.5435220000000  0.4986210000000 1.0
C      1  0.4509800000000  0.4752590000000  0.4787400000000 1.0
C      1  0.5398600000000  0.5729690000000  0.5210100000000 1.0
C      1  0.4107610000000  0.4927860000000  0.4960990000000 1.0
C      1  0.5218050000000  0.4701080000000  0.4428750000000 1.0
C      1  0.5716490000000  0.4600420000000  0.4928120000000 1.0
C      1  0.5629750000000  0.4522480000000  0.4467040000000 1.0
C      1  0.5040170000000  0.4391410000000  0.4817830000000 1.0
C      1  0.5497080000000  0.4400790000000  0.4935380000000 1.0
C      1  0.4388480000000  0.5110840000000  0.5314380000000 1.0
C      1  0.4210800000000  0.4413010000000  0.4978300000000 1.0
C      1  0.4617270000000  0.5703530000000  0.5506850000000 1.0
C      1  0.5592160000000  0.4928370000000  0.4215860000000 1.0
C      1  0.5290460000000  0.5073740000000  0.5737370000000 1.0
C      1  0.5289820000000  0.5093750000000  0.4677470000000 1.0
C      1  0.4654170000000  0.5245560000000  0.4248510000000 1.0
C      1  0.5625290000000  0.5389290000000  0.4879090000000 1.0
C      1  0.4584490000000  0.4354030000000  0.4636610000000 1.0
C      1  0.5431290000000  0.5617100000000  0.4938110000000 1.0
C      1  0.5105440000000  0.5744500000000  0.5293450000000 1.0
C      1  0.4852120000000  0.5244260000000  0.5221070000000 1.0
C      1  0.4722020000000  0.4365790000000  0.5600870000000 1.0
C      1  0.4782420000000  0.4994650000000  0.4281500000000 1.0
C      1  0.5184980000000  0.4705490000000  0.4988620000000 1.0
C      1  0.4671830000000  0.4257060000000  0.5124000000000 1.0
C      1  0.5383810000000  0.5291490000000  0.5367630000000 1.0
C      1  0.5604190000000  0.4585980000000  0.5367760000000 1.0
C      1  0.5227770000000  0.5201940000000  0.4252460000000 1.0
END
