TITL C-950524-1808-699 -5.0509848391567e-08 125000 -571.735182922159 0 0 92 (C1) n - 1
REM
REM in /home/bkarasulu/work/CARBON/AIRSS/Generating-Clusters/EDIP-Nigel-Params/with-SteepDescent/Only-C1/SD-CG/HFTN-CG
REM
REM
REM
REM
REM
REM ./C.cell (11c1c37f851c82e70ff6c80c92926a4b)
REM
REM compiler GCC version 9.2.1 20190827 (Red Hat 9.2.1-1)
REM options -cpp -mtune=generic -march=x86-64 -g -O0 -fpre-include=/usr/include/finclude/math-vector-fortran.h
REM seed -1709012695 92294508 368566438 -955016201 -928539694 -268477185 -637426285 -2110639847 -1018755270 -732565699 373178458 1570099992 -2120150911 152807564 1950709863 1192458983 -30335750 -771251536 -1282435097 -795157053 -1915070731 545113774 1134703094 102836993 -1088410087 950233486 -1165819483 -575959164 -157860333 235872570 -41554474 243627713 1003116531
REM
CELL 1.54180   50.00000   50.00000   50.00000   90.00000   90.00000   90.00000
LATT -1
SFAC C  
C      1  0.5451690000000  0.5576350000000  0.4506900000000 1.0
C      1  0.5104630000000  0.5421080000000  0.5604260000000 1.0
C      1  0.4350280000000  0.4724220000000  0.4848900000000 1.0
C      1  0.4357350000000  0.4558380000000  0.5310990000000 1.0
C      1  0.5035940000000  0.4507240000000  0.4185770000000 1.0
C      1  0.4920750000000  0.4105870000000  0.5110890000000 1.0
C      1  0.4513820000000  0.4495490000000  0.4769450000000 1.0
C      1  0.5037450000000  0.5835110000000  0.5342860000000 1.0
C      1  0.4614480000000  0.5388890000000  0.5578320000000 1.0
C      1  0.5032300000000  0.4740600000000  0.5859840000000 1.0
C      1  0.4471470000000  0.5454720000000  0.4617870000000 1.0
C      1  0.4338400000000  0.5229940000000  0.4781230000000 1.0
C      1  0.4573450000000  0.5040000000000  0.4215300000000 1.0
C      1  0.5773680000000  0.5407570000000  0.5390000000000 1.0
C      1  0.5343220000000  0.5690040000000  0.4960040000000 1.0
C      1  0.5020560000000  0.4522860000000  0.4986390000000 1.0
C      1  0.5244120000000  0.5872520000000  0.5534470000000 1.0
C      1  0.4772970000000  0.4822630000000  0.5284680000000 1.0
C      1  0.5102860000000  0.5614450000000  0.5144130000000 1.0
C      1  0.5760820000000  0.5165920000000  0.5533280000000 1.0
C      1  0.5340310000000  0.5175360000000  0.4946730000000 1.0
C      1  0.4621960000000  0.4449470000000  0.4498350000000 1.0
C      1  0.4294680000000  0.5521810000000  0.5186930000000 1.0
C      1  0.5511570000000  0.4329770000000  0.4877480000000 1.0
C      1  0.5193140000000  0.4713830000000  0.4842980000000 1.0
C      1  0.5313880000000  0.4476430000000  0.4193250000000 1.0
C      1  0.4902270000000  0.5333530000000  0.4794550000000 1.0
C      1  0.5140330000000  0.4967760000000  0.4980560000000 1.0
C      1  0.4757230000000  0.4660370000000  0.5013270000000 1.0
C      1  0.4554170000000  0.4713270000000  0.5477350000000 1.0
C      1  0.5009090000000  0.5585610000000  0.4448740000000 1.0
C      1  0.4171600000000  0.5027660000000  0.5503830000000 1.0
C      1  0.5270190000000  0.5732030000000  0.4678520000000 1.0
C      1  0.4782800000000  0.5783120000000  0.5470590000000 1.0
C      1  0.5392960000000  0.4863180000000  0.5401610000000 1.0
C      1  0.4742400000000  0.5782540000000  0.4837470000000 1.0
C      1  0.4980180000000  0.4978900000000  0.5714610000000 1.0
C      1  0.4756830000000  0.4851560000000  0.4740880000000 1.0
C      1  0.4839340000000  0.5555290000000  0.5641840000000 1.0
C      1  0.4874640000000  0.5070500000000  0.4909800000000 1.0
C      1  0.4334200000000  0.4954690000000  0.4674880000000 1.0
C      1  0.4298460000000  0.5714640000000  0.4984480000000 1.0
C      1  0.5494160000000  0.5510810000000  0.5331430000000 1.0
C      1  0.5490010000000  0.4630380000000  0.4877270000000 1.0
C      1  0.5590810000000  0.5144250000000  0.4769120000000 1.0
C      1  0.4776810000000  0.5392140000000  0.4527720000000 1.0
C      1  0.5037380000000  0.4966070000000  0.5410560000000 1.0
C      1  0.5067630000000  0.4252850000000  0.4637040000000 1.0
C      1  0.5556500000000  0.4449220000000  0.5303670000000 1.0
C      1  0.4660030000000  0.4146530000000  0.5196780000000 1.0
C      1  0.5002410000000  0.4755630000000  0.4579560000000 1.0
C      1  0.5404640000000  0.5108880000000  0.5827480000000 1.0
C      1  0.5342180000000  0.5611090000000  0.5572260000000 1.0
C      1  0.4805440000000  0.5169290000000  0.4324830000000 1.0
C      1  0.4476710000000  0.5712930000000  0.4767640000000 1.0
C      1  0.4960900000000  0.4778380000000  0.4091180000000 1.0
C      1  0.4940030000000  0.4537200000000  0.5691840000000 1.0
C      1  0.5082760000000  0.5277750000000  0.5336310000000 1.0
C      1  0.5658670000000  0.5428540000000  0.4676110000000 1.0
C      1  0.4499590000000  0.4873550000000  0.4446780000000 1.0
C      1  0.4927340000000  0.4475150000000  0.4470540000000 1.0
C      1  0.4449740000000  0.4312450000000  0.5214290000000 1.0
C      1  0.4569210000000  0.5147190000000  0.5710330000000 1.0
C      1  0.5247130000000  0.5426200000000  0.4357750000000 1.0
C      1  0.5379700000000  0.4577530000000  0.5487150000000 1.0
C      1  0.4869990000000  0.5565610000000  0.4966820000000 1.0
C      1  0.5364660000000  0.4248640000000  0.4623080000000 1.0
C      1  0.4410600000000  0.4938540000000  0.5619380000000 1.0
C      1  0.5566900000000  0.4678420000000  0.4602000000000 1.0
C      1  0.4457340000000  0.5577010000000  0.5420880000000 1.0
C      1  0.5463810000000  0.4455750000000  0.4430710000000 1.0
C      1  0.5600070000000  0.4951420000000  0.4535360000000 1.0
C      1  0.4664820000000  0.4522620000000  0.5664130000000 1.0
C      1  0.5609390000000  0.4794830000000  0.5140860000000 1.0
C      1  0.5841030000000  0.5354510000000  0.5104010000000 1.0
C      1  0.4215320000000  0.5020170000000  0.5228000000000 1.0
C      1  0.5143890000000  0.5203920000000  0.5808450000000 1.0
C      1  0.4672780000000  0.4811420000000  0.4044830000000 1.0
C      1  0.5765750000000  0.5061730000000  0.5004280000000 1.0
C      1  0.4481980000000  0.4614700000000  0.4309690000000 1.0
C      1  0.5114640000000  0.4323760000000  0.5189040000000 1.0
C      1  0.4284330000000  0.5255010000000  0.5070000000000 1.0
C      1  0.5553510000000  0.5002180000000  0.5618740000000 1.0
C      1  0.5352870000000  0.5268890000000  0.5226410000000 1.0
C      1  0.5689700000000  0.5561650000000  0.4936940000000 1.0
C      1  0.5273400000000  0.5137090000000  0.4303400000000 1.0
C      1  0.5530290000000  0.5030550000000  0.4277290000000 1.0
C      1  0.5409250000000  0.4255440000000  0.5142300000000 1.0
C      1  0.4256820000000  0.4753780000000  0.5118730000000 1.0
C      1  0.4945770000000  0.4085590000000  0.4831500000000 1.0
C      1  0.5025850000000  0.4966260000000  0.4323410000000 1.0
C      1  0.5112970000000  0.4461320000000  0.5467900000000 1.0
END
