TITL C-951336-9012-469 -8.80164320109648e-06 125000 -739.891637299197 0 0 119 (C1) n - 1
REM
REM in /home/bkarasulu/work/CARBON/AIRSS/Generating-Clusters/EDIP-Nigel-Params/with-SteepDescent/Only-C1/SD-CG/HFTN-CG
REM
REM
REM
REM
REM
REM ./C.cell (11c1c37f851c82e70ff6c80c92926a4b)
REM
REM compiler GCC version 9.2.1 20190827 (Red Hat 9.2.1-1)
REM options -cpp -mtune=generic -march=x86-64 -g -O0 -fpre-include=/usr/include/finclude/math-vector-fortran.h
REM seed -1591849866 -775738252 -582429388 -2055232894 1730208891 -1892972602 -2135769382 -138763699 -58961846 677991300 752035257 -2096897205 547116074 -2113163589 863316296 697740721 1058927230 1645033874 1527744234 608151659 -1835456914 729791560 947018558 -517202280 936063068 665865487 303496575 -1364803878 1056467789 -1669033174 -288132591 1102103269 -1291375767
REM
CELL 1.54180   50.00000   50.00000   50.00000   90.00000   90.00000   90.00000
LATT -1
SFAC C  
C      1  0.5170610000000  0.4289410000000  0.4624030000000 1.0
C      1  0.5134930000000  0.4884530000000  0.5375500000000 1.0
C      1  0.5044620000000  0.5045170000000  0.4593100000000 1.0
C      1  0.5829480000000  0.4792050000000  0.5464110000000 1.0
C      1  0.5692260000000  0.4547890000000  0.4925710000000 1.0
C      1  0.4498000000000  0.5361670000000  0.5739720000000 1.0
C      1  0.4026120000000  0.5230160000000  0.5157830000000 1.0
C      1  0.5661890000000  0.5300390000000  0.4363190000000 1.0
C      1  0.5587020000000  0.5761970000000  0.4641250000000 1.0
C      1  0.4674290000000  0.4345040000000  0.5645250000000 1.0
C      1  0.4380820000000  0.5492840000000  0.4854430000000 1.0
C      1  0.4666910000000  0.5394370000000  0.4940080000000 1.0
C      1  0.4712710000000  0.5944450000000  0.5010720000000 1.0
C      1  0.5048150000000  0.4608920000000  0.4059490000000 1.0
C      1  0.4186970000000  0.4909670000000  0.5499250000000 1.0
C      1  0.4383430000000  0.4479660000000  0.4967080000000 1.0
C      1  0.4751630000000  0.5524770000000  0.5724630000000 1.0
C      1  0.4638280000000  0.4692220000000  0.4772240000000 1.0
C      1  0.4927520000000  0.4720880000000  0.4630650000000 1.0
C      1  0.5819230000000  0.5371950000000  0.5428280000000 1.0
C      1  0.4433080000000  0.5037930000000  0.5045300000000 1.0
C      1  0.5310130000000  0.4748420000000  0.4100790000000 1.0
C      1  0.5598300000000  0.4852060000000  0.5624160000000 1.0
C      1  0.4300010000000  0.5604500000000  0.5334760000000 1.0
C      1  0.5325810000000  0.5565920000000  0.5711890000000 1.0
C      1  0.5606780000000  0.4233160000000  0.4421650000000 1.0
C      1  0.5115190000000  0.5818390000000  0.4503080000000 1.0
C      1  0.4826440000000  0.4903200000000  0.5911140000000 1.0
C      1  0.5059460000000  0.5576210000000  0.5172630000000 1.0
C      1  0.5153590000000  0.4531240000000  0.5768380000000 1.0
C      1  0.4717510000000  0.5780300000000  0.5564940000000 1.0
C      1  0.4921680000000  0.5286780000000  0.4781720000000 1.0
C      1  0.4653630000000  0.4853930000000  0.5019950000000 1.0
C      1  0.4975270000000  0.5890010000000  0.5467680000000 1.0
C      1  0.4744110000000  0.5074430000000  0.5513640000000 1.0
C      1  0.5590740000000  0.4929120000000  0.4589440000000 1.0
C      1  0.5165300000000  0.4262720000000  0.5628970000000 1.0
C      1  0.4152850000000  0.4677960000000  0.5331320000000 1.0
C      1  0.5660240000000  0.5615860000000  0.4879700000000 1.0
C      1  0.4496520000000  0.5285600000000  0.4450750000000 1.0
C      1  0.4865040000000  0.4812660000000  0.5465720000000 1.0
C      1  0.4012450000000  0.4722930000000  0.5063910000000 1.0
C      1  0.4906230000000  0.5259380000000  0.4238760000000 1.0
C      1  0.5235290000000  0.5734860000000  0.4860640000000 1.0
C      1  0.4966520000000  0.4118350000000  0.4776940000000 1.0
C      1  0.4958020000000  0.6005970000000  0.5188870000000 1.0
C      1  0.4523550000000  0.5012620000000  0.4368970000000 1.0
C      1  0.4938000000000  0.5297940000000  0.5600740000000 1.0
C      1  0.4782090000000  0.4993560000000  0.4248990000000 1.0
C      1  0.4856400000000  0.4188690000000  0.5236830000000 1.0
C      1  0.4844630000000  0.5712380000000  0.4532190000000 1.0
C      1  0.5196640000000  0.5219800000000  0.4281560000000 1.0
C      1  0.4566030000000  0.4107830000000  0.5204740000000 1.0
C      1  0.5311150000000  0.4710230000000  0.5209860000000 1.0
C      1  0.4634770000000  0.4358860000000  0.4473740000000 1.0
C      1  0.5582800000000  0.5132250000000  0.5717740000000 1.0
C      1  0.5545080000000  0.4278650000000  0.4919140000000 1.0
C      1  0.5539170000000  0.5393320000000  0.5313150000000 1.0
C      1  0.4462750000000  0.4290960000000  0.5433790000000 1.0
C      1  0.5768560000000  0.5180930000000  0.4614430000000 1.0
C      1  0.4895590000000  0.4186200000000  0.5534720000000 1.0
C      1  0.4660150000000  0.5857620000000  0.4718720000000 1.0
C      1  0.5620760000000  0.5069860000000  0.4185730000000 1.0
C      1  0.5093700000000  0.4341190000000  0.4336110000000 1.0
C      1  0.4869610000000  0.4527530000000  0.4395210000000 1.0
C      1  0.4428770000000  0.4553940000000  0.4371630000000 1.0
C      1  0.5339190000000  0.5046340000000  0.5011940000000 1.0
C      1  0.4701470000000  0.4678040000000  0.5245380000000 1.0
C      1  0.5380950000000  0.5703100000000  0.4448670000000 1.0
C      1  0.5621780000000  0.4748830000000  0.5139760000000 1.0
C      1  0.4001480000000  0.5008670000000  0.4944040000000 1.0
C      1  0.5151470000000  0.4561450000000  0.4754710000000 1.0
C      1  0.4758180000000  0.5580010000000  0.5145800000000 1.0
C      1  0.4168080000000  0.5504670000000  0.5083820000000 1.0
C      1  0.5341650000000  0.5290100000000  0.5788720000000 1.0
C      1  0.4552990000000  0.5761560000000  0.5308380000000 1.0
C      1  0.4473260000000  0.4197390000000  0.4932460000000 1.0
C      1  0.4882530000000  0.4469540000000  0.5149010000000 1.0
C      1  0.4293900000000  0.5297620000000  0.4659330000000 1.0
C      1  0.5552130000000  0.5642210000000  0.5156560000000 1.0
C      1  0.4792240000000  0.4777660000000  0.4051020000000 1.0
C      1  0.4548180000000  0.4639030000000  0.4122270000000 1.0
C      1  0.4266430000000  0.5124700000000  0.5312090000000 1.0
C      1  0.5966760000000  0.5227230000000  0.5201660000000 1.0
C      1  0.5450690000000  0.4186180000000  0.4649530000000 1.0
C      1  0.4416660000000  0.4538010000000  0.5270670000000 1.0
C      1  0.4872590000000  0.4648220000000  0.5729800000000 1.0
C      1  0.4749140000000  0.5448560000000  0.4408410000000 1.0
C      1  0.5146480000000  0.5433360000000  0.4912480000000 1.0
C      1  0.5078870000000  0.5151170000000  0.5824360000000 1.0
C      1  0.4696010000000  0.4255030000000  0.4748130000000 1.0
C      1  0.5161340000000  0.5359000000000  0.5366870000000 1.0
C      1  0.5725270000000  0.4453940000000  0.4301230000000 1.0
C      1  0.4423030000000  0.4799800000000  0.4564670000000 1.0
C      1  0.5763190000000  0.4685930000000  0.4674690000000 1.0
C      1  0.4111630000000  0.4529400000000  0.4881800000000 1.0
C      1  0.5556010000000  0.4700270000000  0.4279540000000 1.0
C      1  0.5400210000000  0.4633840000000  0.5625510000000 1.0
C      1  0.5240330000000  0.5766480000000  0.5522730000000 1.0
C      1  0.5774310000000  0.5332010000000  0.4882160000000 1.0
C      1  0.4355390000000  0.4878660000000  0.5719590000000 1.0
C      1  0.5920930000000  0.4546720000000  0.4479940000000 1.0
C      1  0.5315070000000  0.4970860000000  0.4724070000000 1.0
C      1  0.4265520000000  0.5030750000000  0.4790720000000 1.0
C      1  0.5343430000000  0.5039950000000  0.4094680000000 1.0
C      1  0.5390300000000  0.5848290000000  0.5278040000000 1.0
C      1  0.5154010000000  0.4516580000000  0.5047420000000 1.0
C      1  0.5370470000000  0.4325390000000  0.5418020000000 1.0
C      1  0.5221950000000  0.5965120000000  0.5067670000000 1.0
C      1  0.5393010000000  0.5418680000000  0.4390990000000 1.0
C      1  0.5126360000000  0.5111010000000  0.5212620000000 1.0
C      1  0.5824680000000  0.5271170000000  0.5688590000000 1.0
C      1  0.5929040000000  0.4932470000000  0.5230970000000 1.0
C      1  0.5307490000000  0.4264820000000  0.5118830000000 1.0
C      1  0.4579600000000  0.5051520000000  0.5769970000000 1.0
C      1  0.5069340000000  0.4064350000000  0.5057880000000 1.0
C      1  0.5593920000000  0.5182110000000  0.5094840000000 1.0
C      1  0.4373000000000  0.5360250000000  0.5466590000000 1.0
C      1  0.4402810000000  0.5747720000000  0.4719100000000 1.0
END
