TITL C-951333-8791-342 1.36518030808898e-06 125000 -1249.49146110572 0 0 198 (C1) n - 1
REM
REM in /home/bkarasulu/work/CARBON/AIRSS/Generating-Clusters/EDIP-Nigel-Params/with-SteepDescent/Only-C1/SD-CG/HFTN-CG
REM
REM
REM
REM
REM
REM ./C.cell (11c1c37f851c82e70ff6c80c92926a4b)
REM
REM compiler GCC version 9.2.1 20190827 (Red Hat 9.2.1-1)
REM options -cpp -mtune=generic -march=x86-64 -g -O0 -fpre-include=/usr/include/finclude/math-vector-fortran.h
REM seed 241389153 -238430498 -1697813862 907389612 -920129745 -1739706674 1716804409 2123550602 1270805592 -45259534 227985310 -781935213 -893651733 2047735697 141260945 -1865549647 -533983321 -1230439704 -1694149456 2101951415 1801998982 -1070254146 1309741244 -831992443 432955996 185964659 770778245 1882068656 2104976632 -1339481333 -1476901149 1118603869 -1374404283
REM
CELL 1.54180   50.00000   50.00000   50.00000   90.00000   90.00000   90.00000
LATT -1
SFAC C  
C      1  0.5851120000000  0.5733890000000  0.4906400000000 1.0
C      1  0.5047150000000  0.4083690000000  0.4433520000000 1.0
C      1  0.4976300000000  0.4646800000000  0.5044560000000 1.0
C      1  0.4688110000000  0.5362090000000  0.4304300000000 1.0
C      1  0.4423470000000  0.4612600000000  0.6005990000000 1.0
C      1  0.5012470000000  0.5242160000000  0.5876750000000 1.0
C      1  0.5269950000000  0.4981790000000  0.4725830000000 1.0
C      1  0.6075150000000  0.4752480000000  0.5060200000000 1.0
C      1  0.5726170000000  0.4931280000000  0.4338970000000 1.0
C      1  0.5354470000000  0.5891490000000  0.5709160000000 1.0
C      1  0.4549440000000  0.5080270000000  0.5954460000000 1.0
C      1  0.4813400000000  0.4287640000000  0.4753880000000 1.0
C      1  0.5544680000000  0.5152250000000  0.5276930000000 1.0
C      1  0.6077210000000  0.5194390000000  0.4920340000000 1.0
C      1  0.3969890000000  0.5629600000000  0.5058940000000 1.0
C      1  0.4613130000000  0.3911140000000  0.4868160000000 1.0
C      1  0.4745010000000  0.4066900000000  0.5334980000000 1.0
C      1  0.5593950000000  0.4609180000000  0.5908330000000 1.0
C      1  0.5909750000000  0.5175290000000  0.4269360000000 1.0
C      1  0.4706920000000  0.4562260000000  0.5124640000000 1.0
C      1  0.5075440000000  0.4332580000000  0.5570180000000 1.0
C      1  0.4930560000000  0.5157810000000  0.3885770000000 1.0
C      1  0.5591260000000  0.5858280000000  0.4957290000000 1.0
C      1  0.4019320000000  0.5655170000000  0.5343100000000 1.0
C      1  0.5220070000000  0.5616910000000  0.6066540000000 1.0
C      1  0.4303600000000  0.4770680000000  0.5217540000000 1.0
C      1  0.4492960000000  0.5227460000000  0.4529060000000 1.0
C      1  0.4566120000000  0.4423980000000  0.4899860000000 1.0
C      1  0.4947690000000  0.4410510000000  0.4032760000000 1.0
C      1  0.4564000000000  0.6158690000000  0.5241220000000 1.0
C      1  0.5109060000000  0.5359640000000  0.6137880000000 1.0
C      1  0.4907590000000  0.4522130000000  0.6010300000000 1.0
C      1  0.5054580000000  0.3878850000000  0.5042400000000 1.0
C      1  0.4232210000000  0.5016260000000  0.4241110000000 1.0
C      1  0.4192360000000  0.4464830000000  0.4258080000000 1.0
C      1  0.5118040000000  0.5801780000000  0.5859860000000 1.0
C      1  0.5051370000000  0.6151960000000  0.4996130000000 1.0
C      1  0.4872020000000  0.6054940000000  0.4784660000000 1.0
C      1  0.4490040000000  0.4116000000000  0.4406810000000 1.0
C      1  0.4850820000000  0.5756740000000  0.4128370000000 1.0
C      1  0.4501320000000  0.5911640000000  0.5097340000000 1.0
C      1  0.4463570000000  0.4341320000000  0.4230310000000 1.0
C      1  0.4794560000000  0.5882650000000  0.4373970000000 1.0
C      1  0.5217970000000  0.4693810000000  0.4625980000000 1.0
C      1  0.4133230000000  0.4745080000000  0.4236750000000 1.0
C      1  0.5833890000000  0.5294720000000  0.5644580000000 1.0
C      1  0.4079110000000  0.4344730000000  0.4506280000000 1.0
C      1  0.5507010000000  0.5451850000000  0.4147760000000 1.0
C      1  0.4250950000000  0.5534920000000  0.4241380000000 1.0
C      1  0.4112890000000  0.5283070000000  0.4334780000000 1.0
C      1  0.4670030000000  0.5583950000000  0.4580350000000 1.0
C      1  0.4780700000000  0.6085310000000  0.5406080000000 1.0
C      1  0.4629280000000  0.5046110000000  0.4729450000000 1.0
C      1  0.5158710000000  0.5066670000000  0.4267120000000 1.0
C      1  0.5501940000000  0.4028940000000  0.4690420000000 1.0
C      1  0.4345960000000  0.5304470000000  0.5045220000000 1.0
C      1  0.5695720000000  0.4352030000000  0.5799880000000 1.0
C      1  0.5461680000000  0.3919760000000  0.5222190000000 1.0
C      1  0.4668710000000  0.4386430000000  0.4045560000000 1.0
C      1  0.5296450000000  0.4895170000000  0.5605010000000 1.0
C      1  0.4969950000000  0.5707400000000  0.5142590000000 1.0
C      1  0.4044450000000  0.5153820000000  0.5649550000000 1.0
C      1  0.5549470000000  0.3950250000000  0.4956810000000 1.0
C      1  0.4126060000000  0.5028520000000  0.4735010000000 1.0
C      1  0.6184770000000  0.4929490000000  0.4884650000000 1.0
C      1  0.5302930000000  0.6211280000000  0.4893470000000 1.0
C      1  0.4945210000000  0.4651050000000  0.4728810000000 1.0
C      1  0.3875770000000  0.5328130000000  0.4926960000000 1.0
C      1  0.4338920000000  0.5855350000000  0.4690670000000 1.0
C      1  0.4346140000000  0.4877720000000  0.5944540000000 1.0
C      1  0.5860180000000  0.4347420000000  0.5100290000000 1.0
C      1  0.4401950000000  0.4632800000000  0.4725750000000 1.0
C      1  0.4944100000000  0.5308820000000  0.5441730000000 1.0
C      1  0.4768350000000  0.4837950000000  0.4587430000000 1.0
C      1  0.5368450000000  0.4601920000000  0.6092420000000 1.0
C      1  0.5815560000000  0.4642050000000  0.4361710000000 1.0
C      1  0.4944580000000  0.4804900000000  0.6119570000000 1.0
C      1  0.5219710000000  0.3790290000000  0.5251090000000 1.0
C      1  0.4914320000000  0.4831880000000  0.5645580000000 1.0
C      1  0.4997140000000  0.6006020000000  0.4529750000000 1.0
C      1  0.4831700000000  0.5210900000000  0.4870820000000 1.0
C      1  0.5761770000000  0.5084780000000  0.4636860000000 1.0
C      1  0.3925830000000  0.5245370000000  0.5410320000000 1.0
C      1  0.5144310000000  0.5483720000000  0.5297810000000 1.0
C      1  0.4303210000000  0.4203990000000  0.5165020000000 1.0
C      1  0.5329710000000  0.5148370000000  0.6174210000000 1.0
C      1  0.4372830000000  0.4084620000000  0.4886730000000 1.0
C      1  0.6064170000000  0.4334810000000  0.4642800000000 1.0
C      1  0.5314500000000  0.5625120000000  0.4312190000000 1.0
C      1  0.4843120000000  0.4989140000000  0.5910470000000 1.0
C      1  0.5098170000000  0.4913910000000  0.3805780000000 1.0
C      1  0.5582210000000  0.4716720000000  0.4980420000000 1.0
C      1  0.5229690000000  0.4132020000000  0.4659680000000 1.0
C      1  0.5872660000000  0.5148470000000  0.5390660000000 1.0
C      1  0.4000350000000  0.4489470000000  0.5443590000000 1.0
C      1  0.5948040000000  0.4204660000000  0.4864580000000 1.0
C      1  0.4058500000000  0.4908870000000  0.5156200000000 1.0
C      1  0.5281820000000  0.5189480000000  0.5705660000000 1.0
C      1  0.4327550000000  0.4467700000000  0.5781630000000 1.0
C      1  0.5922910000000  0.5602370000000  0.5165650000000 1.0
C      1  0.6121580000000  0.5207990000000  0.4460830000000 1.0
C      1  0.4558480000000  0.5600670000000  0.5883560000000 1.0
C      1  0.5169790000000  0.4380820000000  0.6042770000000 1.0
C      1  0.5212820000000  0.4190590000000  0.5803120000000 1.0
C      1  0.4079250000000  0.4387650000000  0.5195160000000 1.0
C      1  0.5640180000000  0.5519030000000  0.5583460000000 1.0
C      1  0.4279750000000  0.5734540000000  0.4442420000000 1.0
C      1  0.4849650000000  0.5112980000000  0.4176940000000 1.0
C      1  0.4495500000000  0.4194970000000  0.5392170000000 1.0
C      1  0.4553370000000  0.4681560000000  0.5345020000000 1.0
C      1  0.4591150000000  0.4728620000000  0.4400910000000 1.0
C      1  0.5771820000000  0.5439300000000  0.4252520000000 1.0
C      1  0.4074910000000  0.5320420000000  0.4643500000000 1.0
C      1  0.5861120000000  0.5661460000000  0.4405100000000 1.0
C      1  0.4697660000000  0.5816170000000  0.5510850000000 1.0
C      1  0.4745700000000  0.5161260000000  0.5300660000000 1.0
C      1  0.5526510000000  0.5331260000000  0.5014980000000 1.0
C      1  0.5057910000000  0.5561230000000  0.4158240000000 1.0
C      1  0.4201390000000  0.5615470000000  0.5566040000000 1.0
C      1  0.4090180000000  0.4607410000000  0.5680000000000 1.0
C      1  0.5395470000000  0.4993060000000  0.3823190000000 1.0
C      1  0.4263550000000  0.4123640000000  0.4595570000000 1.0
C      1  0.5556290000000  0.5894940000000  0.5251020000000 1.0
C      1  0.5712260000000  0.5099500000000  0.5833290000000 1.0
C      1  0.3932600000000  0.4821430000000  0.4618330000000 1.0
C      1  0.5232110000000  0.5180100000000  0.4519000000000 1.0
C      1  0.5385680000000  0.4535470000000  0.4864990000000 1.0
C      1  0.5495650000000  0.4140180000000  0.5710760000000 1.0
C      1  0.5098850000000  0.5103900000000  0.4954290000000 1.0
C      1  0.5331850000000  0.5450320000000  0.4576700000000 1.0
C      1  0.5268600000000  0.5888670000000  0.4537970000000 1.0
C      1  0.4344160000000  0.5427030000000  0.4751210000000 1.0
C      1  0.4774950000000  0.3882290000000  0.5109510000000 1.0
C      1  0.4865870000000  0.5484180000000  0.4776460000000 1.0
C      1  0.5287710000000  0.4367250000000  0.5344420000000 1.0
C      1  0.5631330000000  0.4405920000000  0.4371260000000 1.0
C      1  0.5485750000000  0.5268360000000  0.5928340000000 1.0
C      1  0.5863370000000  0.4428650000000  0.5566080000000 1.0
C      1  0.5567930000000  0.4775120000000  0.3885420000000 1.0
C      1  0.5037680000000  0.5993800000000  0.5251160000000 1.0
C      1  0.3937510000000  0.4501650000000  0.4967000000000 1.0
C      1  0.4646980000000  0.4887260000000  0.4161370000000 1.0
C      1  0.5115840000000  0.4672280000000  0.4015370000000 1.0
C      1  0.4700810000000  0.4914830000000  0.5453580000000 1.0
C      1  0.6015130000000  0.5316520000000  0.5179300000000 1.0
C      1  0.5312010000000  0.5940790000000  0.5409940000000 1.0
C      1  0.4423480000000  0.5011190000000  0.4033790000000 1.0
C      1  0.3757140000000  0.4961660000000  0.4837360000000 1.0
C      1  0.5798480000000  0.4233470000000  0.5355400000000 1.0
C      1  0.5401250000000  0.5357450000000  0.5467330000000 1.0
C      1  0.5553190000000  0.4943000000000  0.4807590000000 1.0
C      1  0.4389030000000  0.4903610000000  0.4865880000000 1.0
C      1  0.4670190000000  0.5675200000000  0.5227720000000 1.0
C      1  0.4443590000000  0.5341230000000  0.5871460000000 1.0
C      1  0.5387650000000  0.4570700000000  0.3961470000000 1.0
C      1  0.5183500000000  0.4773620000000  0.4300350000000 1.0
C      1  0.5508930000000  0.4157930000000  0.5401770000000 1.0
C      1  0.5442020000000  0.6011610000000  0.4754060000000 1.0
C      1  0.5347340000000  0.4906270000000  0.5309380000000 1.0
C      1  0.5143540000000  0.5578760000000  0.4813000000000 1.0
C      1  0.5868190000000  0.5550890000000  0.4674140000000 1.0
C      1  0.5622300000000  0.5370580000000  0.4714620000000 1.0
C      1  0.4553500000000  0.5381120000000  0.5240680000000 1.0
C      1  0.5231110000000  0.4863500000000  0.6121630000000 1.0
C      1  0.5234770000000  0.5369080000000  0.5027560000000 1.0
C      1  0.4595040000000  0.5950360000000  0.4816070000000 1.0
C      1  0.4841580000000  0.5417050000000  0.5704890000000 1.0
C      1  0.5120640000000  0.5381580000000  0.3935230000000 1.0
C      1  0.4858700000000  0.4531480000000  0.5701690000000 1.0
C      1  0.5720650000000  0.4181630000000  0.4551730000000 1.0
C      1  0.4174280000000  0.5791590000000  0.4924710000000 1.0
C      1  0.5529200000000  0.5646740000000  0.5839640000000 1.0
C      1  0.4626070000000  0.5699570000000  0.3971330000000 1.0
C      1  0.6017780000000  0.4606300000000  0.4565620000000 1.0
C      1  0.4438230000000  0.5771580000000  0.5673390000000 1.0
C      1  0.6014720000000  0.4900650000000  0.5468360000000 1.0
C      1  0.5346150000000  0.5208140000000  0.4041330000000 1.0
C      1  0.6098220000000  0.5363810000000  0.4693760000000 1.0
C      1  0.4539100000000  0.4447610000000  0.5565210000000 1.0
C      1  0.4195540000000  0.5378090000000  0.5735910000000 1.0
C      1  0.5597770000000  0.4836490000000  0.5707740000000 1.0
C      1  0.4944930000000  0.4077550000000  0.5539860000000 1.0
C      1  0.4156610000000  0.4892190000000  0.5725700000000 1.0
C      1  0.4744980000000  0.4053990000000  0.4557760000000 1.0
C      1  0.3823490000000  0.4766870000000  0.5054480000000 1.0
C      1  0.5069990000000  0.4164510000000  0.4910110000000 1.0
C      1  0.4931000000000  0.5692620000000  0.5662000000000 1.0
C      1  0.5748560000000  0.5713450000000  0.5378500000000 1.0
C      1  0.4082410000000  0.4565880000000  0.4706320000000 1.0
C      1  0.4505220000000  0.5479020000000  0.4096650000000 1.0
C      1  0.5085220000000  0.4906960000000  0.5168980000000 1.0
C      1  0.5827380000000  0.4636820000000  0.5139450000000 1.0
C      1  0.6202940000000  0.4808440000000  0.4631860000000 1.0
C      1  0.5132700000000  0.4254610000000  0.4206430000000 1.0
C      1  0.5419080000000  0.4359830000000  0.4169690000000 1.0
C      1  0.5188650000000  0.4414680000000  0.5060660000000 1.0
C      1  0.4055600000000  0.5202830000000  0.5151550000000 1.0
C      1  0.5798080000000  0.4709060000000  0.5460000000000 1.0
END
