TITL C-951341-1326-451 -2.85443403405227e-06 125000 -1111.90846648587 0 0 179 (C1) n - 1
REM
REM in /home/bkarasulu/work/CARBON/AIRSS/Generating-Clusters/EDIP-Nigel-Params/with-SteepDescent/Only-C1/SD-CG/HFTN-CG
REM
REM
REM
REM
REM
REM ./C.cell (11c1c37f851c82e70ff6c80c92926a4b)
REM
REM compiler GCC version 9.2.1 20190827 (Red Hat 9.2.1-1)
REM options -cpp -mtune=generic -march=x86-64 -g -O0 -fpre-include=/usr/include/finclude/math-vector-fortran.h
REM seed 526333326 1085805879 78170120 -431198954 945596242 -281611447 2144294430 -1670356663 -1144507789 1378736723 793515450 1879188473 -111773363 2044885244 -217713763 1915261156 -743739468 -1061900425 -1732914639 938727853 598728205 1611711216 -420063491 3028414 -1948005814 -10015777 -1358622926 1372239397 929835733 620387583 -69247682 -1901737261 352965127
REM
CELL 1.54180   50.00000   50.00000   50.00000   90.00000   90.00000   90.00000
LATT -1
SFAC C  
C      1  0.5056330000000  0.5740360000000  0.5016270000000 1.0
C      1  0.4692740000000  0.4801270000000  0.3855380000000 1.0
C      1  0.4288260000000  0.4986870000000  0.4689740000000 1.0
C      1  0.5379100000000  0.5340890000000  0.5087390000000 1.0
C      1  0.4718600000000  0.5802740000000  0.5295650000000 1.0
C      1  0.4760330000000  0.5329340000000  0.5072870000000 1.0
C      1  0.5152720000000  0.5468960000000  0.5227850000000 1.0
C      1  0.4249110000000  0.4454720000000  0.4373470000000 1.0
C      1  0.5466830000000  0.5383540000000  0.5555650000000 1.0
C      1  0.5781190000000  0.4931720000000  0.4444000000000 1.0
C      1  0.5691950000000  0.4223740000000  0.5331500000000 1.0
C      1  0.5843460000000  0.5200170000000  0.5698990000000 1.0
C      1  0.5291630000000  0.4074450000000  0.5714140000000 1.0
C      1  0.4352440000000  0.5764430000000  0.4501000000000 1.0
C      1  0.5525910000000  0.5147810000000  0.5252330000000 1.0
C      1  0.4954830000000  0.5352470000000  0.6231340000000 1.0
C      1  0.5606640000000  0.4857730000000  0.4194040000000 1.0
C      1  0.5439780000000  0.4428260000000  0.5625430000000 1.0
C      1  0.5130270000000  0.4598920000000  0.5587380000000 1.0
C      1  0.3936330000000  0.4717950000000  0.4686690000000 1.0
C      1  0.4933050000000  0.4705070000000  0.5264720000000 1.0
C      1  0.4639500000000  0.4023380000000  0.5079890000000 1.0
C      1  0.4861560000000  0.5217580000000  0.4031650000000 1.0
C      1  0.4994830000000  0.4457780000000  0.5818200000000 1.0
C      1  0.5628600000000  0.5642100000000  0.4881190000000 1.0
C      1  0.4176090000000  0.4611120000000  0.4153300000000 1.0
C      1  0.4186330000000  0.5600230000000  0.4872860000000 1.0
C      1  0.5886270000000  0.5317120000000  0.5424630000000 1.0
C      1  0.4852960000000  0.4989440000000  0.4724080000000 1.0
C      1  0.4658540000000  0.5108370000000  0.4927900000000 1.0
C      1  0.5472400000000  0.5119500000000  0.4154830000000 1.0
C      1  0.4744360000000  0.4407010000000  0.4817290000000 1.0
C      1  0.6075700000000  0.5171400000000  0.5245330000000 1.0
C      1  0.4686760000000  0.5520590000000  0.5657970000000 1.0
C      1  0.4838290000000  0.4656870000000  0.5971420000000 1.0
C      1  0.5468960000000  0.4736780000000  0.6000560000000 1.0
C      1  0.3881850000000  0.5239810000000  0.4760770000000 1.0
C      1  0.5514880000000  0.5586440000000  0.4290710000000 1.0
C      1  0.5583320000000  0.4365740000000  0.4508060000000 1.0
C      1  0.4816960000000  0.5776540000000  0.5564300000000 1.0
C      1  0.4424600000000  0.5231090000000  0.4791750000000 1.0
C      1  0.5655670000000  0.4499700000000  0.5217590000000 1.0
C      1  0.4839090000000  0.5691040000000  0.6088270000000 1.0
C      1  0.4457880000000  0.4968780000000  0.3930730000000 1.0
C      1  0.4460580000000  0.5204890000000  0.4341040000000 1.0
C      1  0.4789420000000  0.3883490000000  0.5497420000000 1.0
C      1  0.4878890000000  0.4044350000000  0.4460660000000 1.0
C      1  0.5351090000000  0.4695080000000  0.4133370000000 1.0
C      1  0.5421260000000  0.5935810000000  0.4624240000000 1.0
C      1  0.4500110000000  0.4314970000000  0.4363070000000 1.0
C      1  0.4930980000000  0.3938820000000  0.5060360000000 1.0
C      1  0.5380390000000  0.4610470000000  0.5228620000000 1.0
C      1  0.5714050000000  0.5063100000000  0.4988290000000 1.0
C      1  0.4194070000000  0.4982330000000  0.5790150000000 1.0
C      1  0.5119410000000  0.5759160000000  0.5658620000000 1.0
C      1  0.5835520000000  0.5221130000000  0.4409560000000 1.0
C      1  0.4510300000000  0.5415580000000  0.4560430000000 1.0
C      1  0.5103430000000  0.4591050000000  0.4419720000000 1.0
C      1  0.4397980000000  0.5125500000000  0.5366670000000 1.0
C      1  0.6144100000000  0.4765600000000  0.4925470000000 1.0
C      1  0.5038400000000  0.4396750000000  0.4888240000000 1.0
C      1  0.4801280000000  0.5612080000000  0.4454080000000 1.0
C      1  0.5252160000000  0.4039880000000  0.5427360000000 1.0
C      1  0.5579160000000  0.4107360000000  0.4682620000000 1.0
C      1  0.5021480000000  0.3890970000000  0.5334780000000 1.0
C      1  0.4830020000000  0.4229170000000  0.5737600000000 1.0
C      1  0.5600880000000  0.4895220000000  0.4693050000000 1.0
C      1  0.4936910000000  0.4953300000000  0.3921130000000 1.0
C      1  0.6076260000000  0.4524220000000  0.4751600000000 1.0
C      1  0.5792270000000  0.5362230000000  0.4878820000000 1.0
C      1  0.4988620000000  0.6073820000000  0.4511640000000 1.0
C      1  0.5123830000000  0.4098740000000  0.4881760000000 1.0
C      1  0.4781780000000  0.5644320000000  0.4153370000000 1.0
C      1  0.4608000000000  0.5587030000000  0.5941030000000 1.0
C      1  0.4478220000000  0.6022810000000  0.4962220000000 1.0
C      1  0.4197120000000  0.4255820000000  0.4833390000000 1.0
C      1  0.5398600000000  0.3936540000000  0.4517840000000 1.0
C      1  0.4821030000000  0.5109070000000  0.6168040000000 1.0
C      1  0.4717450000000  0.6056870000000  0.5159060000000 1.0
C      1  0.5971330000000  0.4954790000000  0.5741100000000 1.0
C      1  0.4499200000000  0.4933780000000  0.5134480000000 1.0
C      1  0.4798020000000  0.5882270000000  0.4581070000000 1.0
C      1  0.5958180000000  0.4909210000000  0.5129270000000 1.0
C      1  0.6143950000000  0.5343630000000  0.5024170000000 1.0
C      1  0.5188130000000  0.4607400000000  0.4714970000000 1.0
C      1  0.4723440000000  0.4410190000000  0.4191460000000 1.0
C      1  0.5644220000000  0.4344190000000  0.4226860000000 1.0
C      1  0.4987700000000  0.4893220000000  0.6070000000000 1.0
C      1  0.5397620000000  0.5870270000000  0.5555380000000 1.0
C      1  0.3822540000000  0.4729980000000  0.4947110000000 1.0
C      1  0.4278840000000  0.4582370000000  0.5399640000000 1.0
C      1  0.4128170000000  0.4482200000000  0.4634660000000 1.0
C      1  0.5136680000000  0.5377160000000  0.6003430000000 1.0
C      1  0.4568460000000  0.4458880000000  0.5051800000000 1.0
C      1  0.5792920000000  0.5613300000000  0.5373890000000 1.0
C      1  0.4472860000000  0.4522310000000  0.5619690000000 1.0
C      1  0.5236070000000  0.5130570000000  0.4362380000000 1.0
C      1  0.4643730000000  0.4200910000000  0.4607420000000 1.0
C      1  0.5685280000000  0.4232170000000  0.5608460000000 1.0
C      1  0.4867030000000  0.5100490000000  0.4455300000000 1.0
C      1  0.3996720000000  0.5490060000000  0.4656310000000 1.0
C      1  0.5182270000000  0.4817650000000  0.3936480000000 1.0
C      1  0.5648300000000  0.5773090000000  0.5156560000000 1.0
C      1  0.4276320000000  0.4840630000000  0.4951430000000 1.0
C      1  0.4928030000000  0.5420770000000  0.4670930000000 1.0
C      1  0.5091920000000  0.4951560000000  0.5119660000000 1.0
C      1  0.4253170000000  0.5352190000000  0.5021290000000 1.0
C      1  0.4698670000000  0.4898300000000  0.4286010000000 1.0
C      1  0.5845270000000  0.4705870000000  0.5331790000000 1.0
C      1  0.4807380000000  0.5579710000000  0.4910310000000 1.0
C      1  0.4503340000000  0.5546310000000  0.4061690000000 1.0
C      1  0.4291960000000  0.4371290000000  0.5078620000000 1.0
C      1  0.4422560000000  0.5429040000000  0.5428370000000 1.0
C      1  0.4939710000000  0.5329200000000  0.5669680000000 1.0
C      1  0.5278300000000  0.5732270000000  0.4796230000000 1.0
C      1  0.4127570000000  0.5537600000000  0.5434270000000 1.0
C      1  0.4934470000000  0.5085480000000  0.5516720000000 1.0
C      1  0.5552290000000  0.5203970000000  0.5775580000000 1.0
C      1  0.4263490000000  0.5606050000000  0.4257820000000 1.0
C      1  0.6013110000000  0.5376960000000  0.4564760000000 1.0
C      1  0.4427000000000  0.4926240000000  0.5926080000000 1.0
C      1  0.5604690000000  0.5656530000000  0.5599330000000 1.0
C      1  0.5337540000000  0.5049310000000  0.4658000000000 1.0
C      1  0.5287770000000  0.4928400000000  0.6096630000000 1.0
C      1  0.5674810000000  0.4467410000000  0.4929050000000 1.0
C      1  0.4668260000000  0.4525480000000  0.3928330000000 1.0
C      1  0.5206590000000  0.5489580000000  0.4641890000000 1.0
C      1  0.5132290000000  0.3999900000000  0.4608670000000 1.0
C      1  0.5181530000000  0.4249580000000  0.5912310000000 1.0
C      1  0.4578500000000  0.4045720000000  0.5383990000000 1.0
C      1  0.5413050000000  0.5922880000000  0.5271700000000 1.0
C      1  0.4207160000000  0.5864520000000  0.5040530000000 1.0
C      1  0.4454140000000  0.4067720000000  0.4803580000000 1.0
C      1  0.5396060000000  0.4398410000000  0.4109890000000 1.0
C      1  0.5241260000000  0.5456380000000  0.4328660000000 1.0
C      1  0.4815640000000  0.4631000000000  0.4358870000000 1.0
C      1  0.4156300000000  0.5808790000000  0.5329620000000 1.0
C      1  0.4344320000000  0.4830660000000  0.4158910000000 1.0
C      1  0.4160280000000  0.5030780000000  0.5516910000000 1.0
C      1  0.4107880000000  0.5360070000000  0.4397450000000 1.0
C      1  0.5251230000000  0.6080740000000  0.4457570000000 1.0
C      1  0.5475010000000  0.4057810000000  0.5234410000000 1.0
C      1  0.5658410000000  0.5340530000000  0.4217850000000 1.0
C      1  0.5107290000000  0.4485720000000  0.5164890000000 1.0
C      1  0.5174870000000  0.5481770000000  0.5536030000000 1.0
C      1  0.4997170000000  0.6041390000000  0.5047230000000 1.0
C      1  0.3936280000000  0.5375730000000  0.5284790000000 1.0
C      1  0.4445210000000  0.5399090000000  0.6074040000000 1.0
C      1  0.4626270000000  0.4674950000000  0.5244110000000 1.0
C      1  0.4938940000000  0.4193440000000  0.4207050000000 1.0
C      1  0.5012390000000  0.5465820000000  0.4095090000000 1.0
C      1  0.5890920000000  0.4316040000000  0.4822520000000 1.0
C      1  0.4635200000000  0.4294490000000  0.5544930000000 1.0
C      1  0.5802860000000  0.4767990000000  0.5615780000000 1.0
C      1  0.5335220000000  0.4903890000000  0.5306070000000 1.0
C      1  0.5596480000000  0.4632360000000  0.5775620000000 1.0
C      1  0.4011290000000  0.5023680000000  0.4581140000000 1.0
C      1  0.5117390000000  0.4897370000000  0.4809850000000 1.0
C      1  0.5366420000000  0.5299310000000  0.4794610000000 1.0
C      1  0.5411240000000  0.4111250000000  0.4950460000000 1.0
C      1  0.4021970000000  0.4886340000000  0.5089830000000 1.0
C      1  0.5233350000000  0.6120860000000  0.5178070000000 1.0
C      1  0.5112860000000  0.5684190000000  0.5956310000000 1.0
C      1  0.5189060000000  0.4321490000000  0.4307530000000 1.0
C      1  0.5508190000000  0.4594020000000  0.4711470000000 1.0
C      1  0.4547320000000  0.5818840000000  0.4746550000000 1.0
C      1  0.4973670000000  0.5220270000000  0.5231620000000 1.0
C      1  0.6046480000000  0.4796260000000  0.4493840000000 1.0
C      1  0.4561110000000  0.5245410000000  0.4042270000000 1.0
C      1  0.5170420000000  0.4908740000000  0.5570800000000 1.0
C      1  0.4487750000000  0.5646170000000  0.5203440000000 1.0
C      1  0.3983340000000  0.5198520000000  0.5047900000000 1.0
C      1  0.4555670000000  0.5142570000000  0.6062880000000 1.0
C      1  0.6210890000000  0.4942460000000  0.4700420000000 1.0
C      1  0.4580540000000  0.4702210000000  0.5834110000000 1.0
C      1  0.6190390000000  0.5243240000000  0.4750090000000 1.0
C      1  0.5619790000000  0.5754020000000  0.4510100000000 1.0
C      1  0.5381300000000  0.5201710000000  0.6020450000000 1.0
C      1  0.4069530000000  0.4795300000000  0.5376410000000 1.0
END
