TITL C-950523-3027-723 -1.23506774006021e-06 125000 -706.45473607498 0 0 113 (C1) n - 1
REM
REM in /home/bkarasulu/work/CARBON/AIRSS/Generating-Clusters/EDIP-Nigel-Params/with-SteepDescent/Only-C1/SD-CG/HFTN-CG
REM
REM
REM
REM
REM
REM ./C.cell (11c1c37f851c82e70ff6c80c92926a4b)
REM
REM compiler GCC version 9.2.1 20190827 (Red Hat 9.2.1-1)
REM options -cpp -mtune=generic -march=x86-64 -g -O0 -fpre-include=/usr/include/finclude/math-vector-fortran.h
REM seed -2060030651 -523234700 1483768895 -1762281202 1935382951 -206175461 -2054447382 -283404003 -1062537483 -878465617 1949993315 -1510136629 766292516 1484728271 -2086360706 -489513227 1275680673 -522699946 -1442408931 794306005 2002997307 1847183419 -1416245888 1596913469 -450037563 526071589 -1325668751 -1796501958 -1157416501 1055197687 936224456 -639789943 211008205
REM
CELL 1.54180   50.00000   50.00000   50.00000   90.00000   90.00000   90.00000
LATT -1
SFAC C  
C      1  0.4537030000000  0.4961350000000  0.5938070000000 1.0
C      1  0.5055010000000  0.5710280000000  0.5459050000000 1.0
C      1  0.4990020000000  0.5880230000000  0.5232560000000 1.0
C      1  0.4324940000000  0.4511970000000  0.4683110000000 1.0
C      1  0.5888020000000  0.4817490000000  0.5006780000000 1.0
C      1  0.4581360000000  0.4910880000000  0.4947530000000 1.0
C      1  0.5058700000000  0.4197630000000  0.5401440000000 1.0
C      1  0.5507030000000  0.4999620000000  0.5119930000000 1.0
C      1  0.4544870000000  0.5462520000000  0.4307010000000 1.0
C      1  0.4971090000000  0.4343490000000  0.4292170000000 1.0
C      1  0.4636360000000  0.5317160000000  0.4770950000000 1.0
C      1  0.4676320000000  0.4587050000000  0.5538700000000 1.0
C      1  0.5130750000000  0.4777000000000  0.5398260000000 1.0
C      1  0.4448820000000  0.4763140000000  0.5624390000000 1.0
C      1  0.4961430000000  0.4930720000000  0.4634250000000 1.0
C      1  0.4107810000000  0.5291190000000  0.5220450000000 1.0
C      1  0.4969670000000  0.4642710000000  0.5621600000000 1.0
C      1  0.4363690000000  0.4393070000000  0.5177320000000 1.0
C      1  0.5292490000000  0.4813710000000  0.4280460000000 1.0
C      1  0.4615460000000  0.5301500000000  0.5285980000000 1.0
C      1  0.4857720000000  0.5664650000000  0.5661140000000 1.0
C      1  0.5741170000000  0.4821800000000  0.4524000000000 1.0
C      1  0.4672520000000  0.5022250000000  0.4661950000000 1.0
C      1  0.5511500000000  0.4850700000000  0.5777540000000 1.0
C      1  0.5099350000000  0.4376810000000  0.5151320000000 1.0
C      1  0.4814170000000  0.5790190000000  0.5004110000000 1.0
C      1  0.5011560000000  0.4933210000000  0.5825650000000 1.0
C      1  0.5103130000000  0.4358890000000  0.5651880000000 1.0
C      1  0.4674330000000  0.5120800000000  0.5507370000000 1.0
C      1  0.5250260000000  0.5923420000000  0.5094130000000 1.0
C      1  0.4481140000000  0.5136560000000  0.5720990000000 1.0
C      1  0.4156800000000  0.5037220000000  0.4784420000000 1.0
C      1  0.5135050000000  0.5070750000000  0.5395650000000 1.0
C      1  0.4946410000000  0.5457920000000  0.5841800000000 1.0
C      1  0.4218640000000  0.4795510000000  0.5433900000000 1.0
C      1  0.4778190000000  0.5859680000000  0.4525210000000 1.0
C      1  0.5453840000000  0.5770660000000  0.5238870000000 1.0
C      1  0.5289910000000  0.5288880000000  0.4726290000000 1.0
C      1  0.4198970000000  0.5024710000000  0.4497350000000 1.0
C      1  0.5460770000000  0.5740620000000  0.4646270000000 1.0
C      1  0.4592360000000  0.5685250000000  0.5567230000000 1.0
C      1  0.5743690000000  0.4743550000000  0.5294010000000 1.0
C      1  0.4837590000000  0.5089960000000  0.4135990000000 1.0
C      1  0.4521860000000  0.5772530000000  0.4657250000000 1.0
C      1  0.4490320000000  0.5202350000000  0.5027180000000 1.0
C      1  0.4689780000000  0.4286500000000  0.4382390000000 1.0
C      1  0.5822720000000  0.5530590000000  0.5168980000000 1.0
C      1  0.5855830000000  0.5025940000000  0.4369050000000 1.0
C      1  0.4519760000000  0.4511120000000  0.4457200000000 1.0
C      1  0.5351220000000  0.5211030000000  0.4086760000000 1.0
C      1  0.4951060000000  0.5151220000000  0.5613470000000 1.0
C      1  0.4121950000000  0.5298430000000  0.4932990000000 1.0
C      1  0.5739090000000  0.5314630000000  0.4735160000000 1.0
C      1  0.5807800000000  0.4673770000000  0.4767550000000 1.0
C      1  0.5555000000000  0.4318290000000  0.5487730000000 1.0
C      1  0.5201350000000  0.4196490000000  0.4936130000000 1.0
C      1  0.4804900000000  0.5022580000000  0.6031720000000 1.0
C      1  0.5559650000000  0.4507850000000  0.5282380000000 1.0
C      1  0.4548480000000  0.4738390000000  0.4284250000000 1.0
C      1  0.4810790000000  0.4795260000000  0.4150220000000 1.0
C      1  0.5661950000000  0.4934970000000  0.5527870000000 1.0
C      1  0.5149910000000  0.5060500000000  0.4445880000000 1.0
C      1  0.5149230000000  0.4168110000000  0.4461930000000 1.0
C      1  0.5029320000000  0.5413230000000  0.4560270000000 1.0
C      1  0.4581270000000  0.5202300000000  0.4222860000000 1.0
C      1  0.4645120000000  0.4407480000000  0.5293660000000 1.0
C      1  0.5303000000000  0.5025080000000  0.5889440000000 1.0
C      1  0.4969370000000  0.3956520000000  0.4596680000000 1.0
C      1  0.5322590000000  0.4798670000000  0.4971960000000 1.0
C      1  0.5535090000000  0.5522890000000  0.5109130000000 1.0
C      1  0.4829020000000  0.4807640000000  0.5070530000000 1.0
C      1  0.4834740000000  0.4516260000000  0.5091460000000 1.0
C      1  0.4131760000000  0.5050820000000  0.5359070000000 1.0
C      1  0.5074580000000  0.5654830000000  0.4390620000000 1.0
C      1  0.4182370000000  0.4588110000000  0.5255370000000 1.0
C      1  0.4329690000000  0.5591530000000  0.5117110000000 1.0
C      1  0.4452310000000  0.5518420000000  0.5386010000000 1.0
C      1  0.4481030000000  0.4995940000000  0.4411980000000 1.0
C      1  0.5510660000000  0.4675380000000  0.4438590000000 1.0
C      1  0.4946260000000  0.5869300000000  0.4755550000000 1.0
C      1  0.5259580000000  0.4323070000000  0.4683950000000 1.0
C      1  0.5345540000000  0.5665100000000  0.5488980000000 1.0
C      1  0.4826710000000  0.5305330000000  0.6043550000000 1.0
C      1  0.4771410000000  0.4132600000000  0.5333580000000 1.0
C      1  0.4689980000000  0.4065270000000  0.4576730000000 1.0
C      1  0.4604380000000  0.4139710000000  0.4846170000000 1.0
C      1  0.5354760000000  0.5290630000000  0.5811560000000 1.0
C      1  0.5071030000000  0.5234210000000  0.4069270000000 1.0
C      1  0.5462430000000  0.5350780000000  0.4323480000000 1.0
C      1  0.5394550000000  0.4361240000000  0.5713660000000 1.0
C      1  0.5477190000000  0.4585040000000  0.5853330000000 1.0
C      1  0.5511140000000  0.5488040000000  0.4805050000000 1.0
C      1  0.5024780000000  0.3957360000000  0.4901510000000 1.0
C      1  0.4755980000000  0.3994590000000  0.5056350000000 1.0
C      1  0.5418040000000  0.4939180000000  0.4047520000000 1.0
C      1  0.5116430000000  0.5226380000000  0.4976710000000 1.0
C      1  0.5287910000000  0.4608690000000  0.5202130000000 1.0
C      1  0.4373140000000  0.4310400000000  0.4894580000000 1.0
C      1  0.4147900000000  0.4738140000000  0.4745920000000 1.0
C      1  0.5866620000000  0.5266220000000  0.5236760000000 1.0
C      1  0.5045330000000  0.4629390000000  0.4215500000000 1.0
C      1  0.5492000000000  0.4482160000000  0.4653060000000 1.0
C      1  0.5239460000000  0.5902290000000  0.4792340000000 1.0
C      1  0.5782690000000  0.5106140000000  0.4993480000000 1.0
C      1  0.5367520000000  0.5633670000000  0.4380600000000 1.0
C      1  0.5056430000000  0.4929690000000  0.4914410000000 1.0
C      1  0.5685970000000  0.5218510000000  0.5466700000000 1.0
C      1  0.4897190000000  0.5441460000000  0.4847420000000 1.0
C      1  0.5478190000000  0.5409570000000  0.5588850000000 1.0
C      1  0.5717660000000  0.5258010000000  0.4449100000000 1.0
C      1  0.4513170000000  0.5786200000000  0.4962810000000 1.0
C      1  0.5324740000000  0.5235040000000  0.5213820000000 1.0
C      1  0.4479400000000  0.5494250000000  0.4577600000000 1.0
END
