TITL C-950528-5794-592 -2.81997558289707e-07 125000 -370.084236918336 0 0 63 (C1) n - 1
REM
REM in /home/bkarasulu/work/CARBON/AIRSS/Generating-Clusters/EDIP-Nigel-Params/with-SteepDescent/Only-C1/SD-CG/HFTN-CG
REM
REM
REM
REM
REM
REM ./C.cell (11c1c37f851c82e70ff6c80c92926a4b)
REM
REM compiler GCC version 9.2.1 20190827 (Red Hat 9.2.1-1)
REM options -cpp -mtune=generic -march=x86-64 -g -O0 -fpre-include=/usr/include/finclude/math-vector-fortran.h
REM seed 1779203541 -1777439045 -374669396 -315176849 1981268986 -1261900928 1906432675 1001136089 1949130464 -378426825 -1029898552 -565193121 209239823 934984289 2008999972 -206652178 -764829491 -78585982 2075033698 885377995 794813337 1706777892 -1555928090 334970078 2105767366 331578240 -2136043378 -1200430263 1487705298 -606976008 -159468768 -404319673 -928335237
REM
CELL 1.54180   50.00000   50.00000   50.00000   90.00000   90.00000   90.00000
LATT -1
SFAC C  
C      1  0.5161570000000  0.4865680000000  0.5698520000000 1.0
C      1  0.4552570000000  0.5307060000000  0.5473500000000 1.0
C      1  0.4843130000000  0.5460760000000  0.4974680000000 1.0
C      1  0.5384870000000  0.5157310000000  0.4222920000000 1.0
C      1  0.5737050000000  0.5079450000000  0.4996990000000 1.0
C      1  0.4888230000000  0.4890340000000  0.5594490000000 1.0
C      1  0.5260430000000  0.4588630000000  0.5283870000000 1.0
C      1  0.5125140000000  0.4469330000000  0.4811240000000 1.0
C      1  0.4368800000000  0.5042110000000  0.4670260000000 1.0
C      1  0.4951110000000  0.5178430000000  0.4921260000000 1.0
C      1  0.5689550000000  0.5321130000000  0.4572470000000 1.0
C      1  0.5199960000000  0.4800260000000  0.4473590000000 1.0
C      1  0.4708970000000  0.4667390000000  0.5540030000000 1.0
C      1  0.5381240000000  0.5183330000000  0.5216650000000 1.0
C      1  0.5006330000000  0.5650930000000  0.5185990000000 1.0
C      1  0.4720680000000  0.4816730000000  0.4355420000000 1.0
C      1  0.5766880000000  0.5322620000000  0.4853850000000 1.0
C      1  0.4108420000000  0.4858320000000  0.5093630000000 1.0
C      1  0.4987370000000  0.4713440000000  0.4913620000000 1.0
C      1  0.5194350000000  0.5726350000000  0.4950330000000 1.0
C      1  0.5184250000000  0.4955200000000  0.4228750000000 1.0
C      1  0.4868390000000  0.5288050000000  0.4424900000000 1.0
C      1  0.4469770000000  0.4882380000000  0.4465850000000 1.0
C      1  0.4819560000000  0.4551000000000  0.4380240000000 1.0
C      1  0.4159680000000  0.4611820000000  0.4973260000000 1.0
C      1  0.5016810000000  0.5063900000000  0.5214620000000 1.0
C      1  0.5263200000000  0.5154520000000  0.4849250000000 1.0
C      1  0.4482850000000  0.5195750000000  0.5202700000000 1.0
C      1  0.4487810000000  0.5299730000000  0.4720940000000 1.0
C      1  0.5273160000000  0.5144250000000  0.5676990000000 1.0
C      1  0.5630430000000  0.5543040000000  0.4980170000000 1.0
C      1  0.4229740000000  0.4705810000000  0.5540460000000 1.0
C      1  0.5573940000000  0.4725020000000  0.4761170000000 1.0
C      1  0.5596270000000  0.4841320000000  0.5526550000000 1.0
C      1  0.5060150000000  0.5494140000000  0.4506290000000 1.0
C      1  0.5701900000000  0.4802920000000  0.5005300000000 1.0
C      1  0.4530470000000  0.5569940000000  0.5510440000000 1.0
C      1  0.5354410000000  0.5422500000000  0.4736100000000 1.0
C      1  0.5033930000000  0.4255800000000  0.4997120000000 1.0
C      1  0.5536910000000  0.5110790000000  0.4454810000000 1.0
C      1  0.4381550000000  0.4587690000000  0.4786930000000 1.0
C      1  0.5355830000000  0.4690760000000  0.5555850000000 1.0
C      1  0.4692840000000  0.4957550000000  0.5208540000000 1.0
C      1  0.5058720000000  0.5321140000000  0.5570700000000 1.0
C      1  0.5067740000000  0.4540460000000  0.4512810000000 1.0
C      1  0.4409810000000  0.4458970000000  0.5037620000000 1.0
C      1  0.4749150000000  0.5141130000000  0.4655860000000 1.0
C      1  0.5497920000000  0.5106210000000  0.5489890000000 1.0
C      1  0.5159540000000  0.4818610000000  0.5118790000000 1.0
C      1  0.5134010000000  0.5559970000000  0.5426480000000 1.0
C      1  0.5042330000000  0.4370690000000  0.5261700000000 1.0
C      1  0.5395530000000  0.4935270000000  0.4646140000000 1.0
C      1  0.4713780000000  0.4696620000000  0.5041610000000 1.0
C      1  0.4899240000000  0.5040360000000  0.4251910000000 1.0
C      1  0.5412520000000  0.5485630000000  0.5167070000000 1.0
C      1  0.5505600000000  0.4506120000000  0.5136810000000 1.0
C      1  0.5432450000000  0.4483500000000  0.4852590000000 1.0
C      1  0.4801380000000  0.5177860000000  0.5579670000000 1.0
C      1  0.4217200000000  0.5087230000000  0.5185250000000 1.0
C      1  0.4466940000000  0.4803770000000  0.5481280000000 1.0
C      1  0.4778510000000  0.4466190000000  0.5339340000000 1.0
C      1  0.4541170000000  0.5407350000000  0.4989170000000 1.0
C      1  0.4975980000000  0.5639440000000  0.4744800000000 1.0
END
