TITL C-951344-124-623 -2.14041888850699e-07 125000 -374.69874564608 0 0 62 (C1) n - 1
REM
REM in /home/bkarasulu/work/CARBON/AIRSS/Generating-Clusters/EDIP-Nigel-Params/with-SteepDescent/Only-C1/SD-CG/HFTN-CG
REM
REM
REM
REM
REM
REM ./C.cell (11c1c37f851c82e70ff6c80c92926a4b)
REM
REM compiler GCC version 9.2.1 20190827 (Red Hat 9.2.1-1)
REM options -cpp -mtune=generic -march=x86-64 -g -O0 -fpre-include=/usr/include/finclude/math-vector-fortran.h
REM seed 352049974 -1102507195 -715286761 -185304330 -877413430 343207921 1960692780 -1217966282 1489410818 803180187 1955921135 -1812198905 -1931121004 -1364022579 -420599269 -386035304 -444073646 -1831718260 -1993989807 -1712447845 1293598994 -879539542 -1981362631 1656818405 -218634375 -1692214835 -842630120 1507403513 -1263941488 380039040 -905523738 1096391655 79928977
REM
CELL 1.54180   50.00000   50.00000   50.00000   90.00000   90.00000   90.00000
LATT -1
SFAC C  
C      1  0.4593920000000  0.4747830000000  0.4613940000000 1.0
C      1  0.4996170000000  0.5312540000000  0.4310830000000 1.0
C      1  0.5039650000000  0.4457640000000  0.5594430000000 1.0
C      1  0.5586380000000  0.4509900000000  0.5312250000000 1.0
C      1  0.5071540000000  0.5616170000000  0.5530770000000 1.0
C      1  0.5319780000000  0.5713710000000  0.5083700000000 1.0
C      1  0.5099910000000  0.5193740000000  0.5824260000000 1.0
C      1  0.4635230000000  0.4616970000000  0.5373030000000 1.0
C      1  0.5237100000000  0.5410810000000  0.5431320000000 1.0
C      1  0.4823620000000  0.4868400000000  0.5596710000000 1.0
C      1  0.4819480000000  0.4387270000000  0.5435300000000 1.0
C      1  0.5502220000000  0.4803130000000  0.4837190000000 1.0
C      1  0.5270000000000  0.4901610000000  0.5482730000000 1.0
C      1  0.5217430000000  0.4362280000000  0.4647710000000 1.0
C      1  0.5276930000000  0.5178740000000  0.5605190000000 1.0
C      1  0.4833620000000  0.5124100000000  0.5759330000000 1.0
C      1  0.4440670000000  0.4968480000000  0.4484720000000 1.0
C      1  0.5342510000000  0.4990940000000  0.4282360000000 1.0
C      1  0.4272280000000  0.5053350000000  0.4729100000000 1.0
C      1  0.4645430000000  0.4614750000000  0.5072530000000 1.0
C      1  0.5184890000000  0.5135610000000  0.5089920000000 1.0
C      1  0.4459880000000  0.4674680000000  0.4858930000000 1.0
C      1  0.5131740000000  0.4647950000000  0.5088920000000 1.0
C      1  0.5555120000000  0.5239400000000  0.4766470000000 1.0
C      1  0.5124180000000  0.5714210000000  0.4885670000000 1.0
C      1  0.4893420000000  0.4250390000000  0.5193180000000 1.0
C      1  0.4469550000000  0.5381140000000  0.5111770000000 1.0
C      1  0.4700520000000  0.5007370000000  0.5256850000000 1.0
C      1  0.4824590000000  0.5705020000000  0.4952380000000 1.0
C      1  0.5358950000000  0.5375890000000  0.4587800000000 1.0
C      1  0.5625770000000  0.4534150000000  0.4824750000000 1.0
C      1  0.4226120000000  0.4828820000000  0.4896840000000 1.0
C      1  0.5254050000000  0.4742210000000  0.4374140000000 1.0
C      1  0.4743180000000  0.5625900000000  0.4679030000000 1.0
C      1  0.5666800000000  0.4994460000000  0.4688090000000 1.0
C      1  0.4721400000000  0.5526480000000  0.5170070000000 1.0
C      1  0.5282330000000  0.5263210000000  0.4325630000000 1.0
C      1  0.5431460000000  0.4320790000000  0.4836630000000 1.0
C      1  0.5416000000000  0.5489910000000  0.5217140000000 1.0
C      1  0.5741730000000  0.4738060000000  0.5296550000000 1.0
C      1  0.4584090000000  0.5396750000000  0.4628480000000 1.0
C      1  0.4491020000000  0.5229640000000  0.4851190000000 1.0
C      1  0.5092110000000  0.5458780000000  0.4705470000000 1.0
C      1  0.4709630000000  0.5028380000000  0.4932360000000 1.0
C      1  0.4942210000000  0.4410100000000  0.4714390000000 1.0
C      1  0.4815630000000  0.4580490000000  0.4512200000000 1.0
C      1  0.4672240000000  0.5348140000000  0.5646390000000 1.0
C      1  0.5080320000000  0.4728420000000  0.5647190000000 1.0
C      1  0.4441840000000  0.5168200000000  0.5313340000000 1.0
C      1  0.5536720000000  0.5279420000000  0.5055460000000 1.0
C      1  0.4899030000000  0.4477990000000  0.5006760000000 1.0
C      1  0.4973940000000  0.4959800000000  0.4676890000000 1.0
C      1  0.4993170000000  0.4651390000000  0.4297870000000 1.0
C      1  0.4411630000000  0.5269740000000  0.5571790000000 1.0
C      1  0.5509460000000  0.4861260000000  0.5175530000000 1.0
C      1  0.5223450000000  0.4746650000000  0.4674600000000 1.0
C      1  0.4624380000000  0.5206980000000  0.4397320000000 1.0
C      1  0.5009430000000  0.5204900000000  0.4872470000000 1.0
C      1  0.4811410000000  0.5532940000000  0.5454570000000 1.0
C      1  0.4890640000000  0.5068530000000  0.4404280000000 1.0
C      1  0.5370890000000  0.4456060000000  0.5110990000000 1.0
C      1  0.5081200000000  0.4907430000000  0.5242300000000 1.0
END
