TITL C-950529-3362-200 -8.79059533601164e-07 125000 -530.260044189722 0 0 86 (C1) n - 1
REM
REM in /home/bkarasulu/work/CARBON/AIRSS/Generating-Clusters/EDIP-Nigel-Params/with-SteepDescent/Only-C1/SD-CG/HFTN-CG
REM
REM
REM
REM
REM
REM ./C.cell (11c1c37f851c82e70ff6c80c92926a4b)
REM
REM compiler GCC version 9.2.1 20190827 (Red Hat 9.2.1-1)
REM options -cpp -mtune=generic -march=x86-64 -g -O0 -fpre-include=/usr/include/finclude/math-vector-fortran.h
REM seed 1825264761 1339035425 -682481011 1525203816 -1241482414 1966610808 1541122805 -2099729768 -736435987 -1947588167 -949446631 1772142973 -1928278012 524994351 -230700663 710025077 729207865 1815136482 -1355974429 -14447112 -185606036 743744749 1935520864 -1331396920 898658755 1025982990 838069869 1240476606 -1620990124 -753916216 633379995 446789736 -1563401099
REM
CELL 1.54180   50.00000   50.00000   50.00000   90.00000   90.00000   90.00000
LATT -1
SFAC C  
C      1  0.4800080000000  0.5392820000000  0.5532490000000 1.0
C      1  0.5678820000000  0.5111720000000  0.5530700000000 1.0
C      1  0.4953030000000  0.5748240000000  0.4738600000000 1.0
C      1  0.5271910000000  0.5570770000000  0.5560580000000 1.0
C      1  0.5238230000000  0.5139540000000  0.5181980000000 1.0
C      1  0.4208470000000  0.4931090000000  0.4939690000000 1.0
C      1  0.5381360000000  0.5539210000000  0.4685970000000 1.0
C      1  0.5245350000000  0.4159090000000  0.4590140000000 1.0
C      1  0.5590340000000  0.4479490000000  0.4619580000000 1.0
C      1  0.4874710000000  0.5240690000000  0.5768210000000 1.0
C      1  0.4463550000000  0.5659910000000  0.4806760000000 1.0
C      1  0.4749720000000  0.4262100000000  0.5202220000000 1.0
C      1  0.5174760000000  0.5712460000000  0.5133350000000 1.0
C      1  0.5835050000000  0.4998320000000  0.4807140000000 1.0
C      1  0.4880760000000  0.5693070000000  0.5216760000000 1.0
C      1  0.5579760000000  0.4911860000000  0.4339510000000 1.0
C      1  0.4768890000000  0.4969120000000  0.5821750000000 1.0
C      1  0.5295430000000  0.4321200000000  0.5034540000000 1.0
C      1  0.4671540000000  0.4867500000000  0.4904900000000 1.0
C      1  0.4784340000000  0.5380850000000  0.5091130000000 1.0
C      1  0.5302740000000  0.5391010000000  0.4428200000000 1.0
C      1  0.5161010000000  0.4615190000000  0.4453640000000 1.0
C      1  0.5869030000000  0.4759560000000  0.5265900000000 1.0
C      1  0.4408230000000  0.5518320000000  0.5259010000000 1.0
C      1  0.5145460000000  0.5112860000000  0.4480900000000 1.0
C      1  0.4667380000000  0.4624330000000  0.4383220000000 1.0
C      1  0.4921440000000  0.4364530000000  0.5399330000000 1.0
C      1  0.4145920000000  0.5096010000000  0.5408020000000 1.0
C      1  0.4435420000000  0.4656800000000  0.5640490000000 1.0
C      1  0.5190570000000  0.4441580000000  0.5291880000000 1.0
C      1  0.4323010000000  0.5280370000000  0.4554380000000 1.0
C      1  0.5352290000000  0.5554920000000  0.5289920000000 1.0
C      1  0.4999290000000  0.5582810000000  0.5627120000000 1.0
C      1  0.5518040000000  0.4693350000000  0.5635540000000 1.0
C      1  0.5455830000000  0.4847190000000  0.5061870000000 1.0
C      1  0.4986630000000  0.5811000000000  0.4465730000000 1.0
C      1  0.4951170000000  0.5018860000000  0.4259730000000 1.0
C      1  0.5737900000000  0.4706120000000  0.4492040000000 1.0
C      1  0.4301730000000  0.5493150000000  0.4997980000000 1.0
C      1  0.5148950000000  0.4838690000000  0.5103230000000 1.0
C      1  0.4495650000000  0.4469370000000  0.4820160000000 1.0
C      1  0.5114560000000  0.4284890000000  0.4809780000000 1.0
C      1  0.4254350000000  0.4628240000000  0.5400150000000 1.0
C      1  0.4613840000000  0.5166650000000  0.4931030000000 1.0
C      1  0.4451450000000  0.5073980000000  0.4377350000000 1.0
C      1  0.4345050000000  0.4722390000000  0.4744060000000 1.0
C      1  0.4970630000000  0.4829860000000  0.4858510000000 1.0
C      1  0.4929390000000  0.4715290000000  0.4264780000000 1.0
C      1  0.5053660000000  0.5300000000000  0.4964540000000 1.0
C      1  0.4780080000000  0.4518940000000  0.5609690000000 1.0
C      1  0.4160540000000  0.4870880000000  0.5239100000000 1.0
C      1  0.5882480000000  0.5021710000000  0.5107840000000 1.0
C      1  0.5755770000000  0.5252860000000  0.4667050000000 1.0
C      1  0.5454880000000  0.4513380000000  0.5405350000000 1.0
C      1  0.5571710000000  0.5419030000000  0.5138650000000 1.0
C      1  0.4935490000000  0.4739470000000  0.5714520000000 1.0
C      1  0.4609830000000  0.4972010000000  0.5329570000000 1.0
C      1  0.4659160000000  0.4745200000000  0.5166840000000 1.0
C      1  0.4702690000000  0.5187200000000  0.4258530000000 1.0
C      1  0.4329010000000  0.5217750000000  0.4859990000000 1.0
C      1  0.5179790000000  0.5111920000000  0.5477260000000 1.0
C      1  0.4473780000000  0.4933390000000  0.5750370000000 1.0
C      1  0.5581960000000  0.5413150000000  0.4841320000000 1.0
C      1  0.4512520000000  0.5398980000000  0.5490620000000 1.0
C      1  0.5165050000000  0.4808380000000  0.5536740000000 1.0
C      1  0.5563980000000  0.4419950000000  0.4930770000000 1.0
C      1  0.4422640000000  0.5111870000000  0.5505070000000 1.0
C      1  0.4299640000000  0.4398030000000  0.5249480000000 1.0
C      1  0.5157220000000  0.5581520000000  0.4866330000000 1.0
C      1  0.5326850000000  0.4874640000000  0.4509980000000 1.0
C      1  0.5612280000000  0.5210130000000  0.4402150000000 1.0
C      1  0.5672600000000  0.5172930000000  0.5247040000000 1.0
C      1  0.4500640000000  0.4824560000000  0.4512410000000 1.0
C      1  0.4492780000000  0.5525640000000  0.4532480000000 1.0
C      1  0.4719270000000  0.4450870000000  0.4616020000000 1.0
C      1  0.5778410000000  0.4836380000000  0.5551260000000 1.0
C      1  0.5022500000000  0.5560570000000  0.4344530000000 1.0
C      1  0.5360370000000  0.4379720000000  0.4454750000000 1.0
C      1  0.5009020000000  0.5104340000000  0.4740200000000 1.0
C      1  0.5420130000000  0.5070750000000  0.5666390000000 1.0
C      1  0.4754600000000  0.5437130000000  0.4395840000000 1.0
C      1  0.4994530000000  0.4544420000000  0.4702080000000 1.0
C      1  0.5545330000000  0.4883430000000  0.4780040000000 1.0
C      1  0.4552550000000  0.4458230000000  0.5118060000000 1.0
C      1  0.5613800000000  0.4611730000000  0.5171900000000 1.0
C      1  0.4729390000000  0.5732550000000  0.4935270000000 1.0
END
