TITL C-950536-5891-405 -3.06938497694899e-07 125000 -328.365729444692 0 0 54 (C1) n - 1
REM
REM in /home/bkarasulu/work/CARBON/AIRSS/Generating-Clusters/EDIP-Nigel-Params/with-SteepDescent/Only-C1/SD-CG/HFTN-CG
REM
REM
REM
REM
REM
REM ./C.cell (11c1c37f851c82e70ff6c80c92926a4b)
REM
REM compiler GCC version 9.2.1 20190827 (Red Hat 9.2.1-1)
REM options -cpp -mtune=generic -march=x86-64 -g -O0 -fpre-include=/usr/include/finclude/math-vector-fortran.h
REM seed 1174467882 -1549344058 1259399576 -1827046543 -537532064 741845018 -202166317 -1972498496 1001073823 -1168584755 -778245862 366141866 -1616220057 599733750 385312985 777581557 -487795487 -1327569050 -412514284 303822939 -1465012056 128929249 -748178224 1139927336 -2108150341 1470667606 1465046042 1460910530 841619435 -325950598 -1744173822 1768954275 -294510146
REM
CELL 1.54180   50.00000   50.00000   50.00000   90.00000   90.00000   90.00000
LATT -1
SFAC C  
C      1  0.4325520000000  0.5390160000000  0.4758330000000 1.0
C      1  0.4745460000000  0.5069630000000  0.4910860000000 1.0
C      1  0.5251730000000  0.4776440000000  0.5121050000000 1.0
C      1  0.5484080000000  0.5147380000000  0.4557560000000 1.0
C      1  0.5458540000000  0.4419470000000  0.5368720000000 1.0
C      1  0.4442480000000  0.4982490000000  0.4954140000000 1.0
C      1  0.5350430000000  0.4681530000000  0.5391260000000 1.0
C      1  0.5085830000000  0.4416770000000  0.4472910000000 1.0
C      1  0.5084970000000  0.4860370000000  0.4467150000000 1.0
C      1  0.5547370000000  0.4688930000000  0.4453710000000 1.0
C      1  0.4993980000000  0.5368790000000  0.4504120000000 1.0
C      1  0.5184680000000  0.5644030000000  0.4934030000000 1.0
C      1  0.5384910000000  0.5438340000000  0.4967060000000 1.0
C      1  0.4528880000000  0.4608320000000  0.5171300000000 1.0
C      1  0.4413410000000  0.4838800000000  0.5305100000000 1.0
C      1  0.5525170000000  0.4925570000000  0.5455050000000 1.0
C      1  0.5169990000000  0.5057670000000  0.5159480000000 1.0
C      1  0.4774060000000  0.5319610000000  0.5369290000000 1.0
C      1  0.4985000000000  0.5097430000000  0.5715640000000 1.0
C      1  0.5223550000000  0.5536080000000  0.4566430000000 1.0
C      1  0.4478980000000  0.4914400000000  0.4594970000000 1.0
C      1  0.5001430000000  0.5499460000000  0.5450870000000 1.0
C      1  0.5254330000000  0.4387030000000  0.4696510000000 1.0
C      1  0.4574080000000  0.4886440000000  0.5549630000000 1.0
C      1  0.4886950000000  0.5127580000000  0.5160330000000 1.0
C      1  0.4623990000000  0.4680380000000  0.4690640000000 1.0
C      1  0.4961680000000  0.5653680000000  0.5110300000000 1.0
C      1  0.4683400000000  0.5605040000000  0.5024340000000 1.0
C      1  0.5045840000000  0.4819440000000  0.5679360000000 1.0
C      1  0.5450230000000  0.5394020000000  0.4681510000000 1.0
C      1  0.5131720000000  0.4354700000000  0.4962470000000 1.0
C      1  0.4263170000000  0.5221130000000  0.4973410000000 1.0
C      1  0.4490210000000  0.4553970000000  0.4899580000000 1.0
C      1  0.4923860000000  0.5102370000000  0.4401780000000 1.0
C      1  0.5353860000000  0.5170800000000  0.5364960000000 1.0
C      1  0.5483120000000  0.4576640000000  0.4705790000000 1.0
C      1  0.5735470000000  0.4851130000000  0.5035920000000 1.0
C      1  0.5489460000000  0.4764910000000  0.4932160000000 1.0
C      1  0.5508450000000  0.5370460000000  0.5214900000000 1.0
C      1  0.4634930000000  0.5112580000000  0.4448310000000 1.0
C      1  0.4304790000000  0.5360230000000  0.5210230000000 1.0
C      1  0.4878940000000  0.4801120000000  0.4789490000000 1.0
C      1  0.4732690000000  0.5478120000000  0.4535030000000 1.0
C      1  0.5013110000000  0.4624760000000  0.4315120000000 1.0
C      1  0.5319120000000  0.4299030000000  0.5167630000000 1.0
C      1  0.4547440000000  0.5491150000000  0.5262490000000 1.0
C      1  0.5175580000000  0.5297540000000  0.5581800000000 1.0
C      1  0.4615050000000  0.5416230000000  0.4793400000000 1.0
C      1  0.4807040000000  0.4586570000000  0.5258850000000 1.0
C      1  0.4822760000000  0.4732910000000  0.5520370000000 1.0
C      1  0.5380690000000  0.4916810000000  0.4441790000000 1.0
C      1  0.4701530000000  0.5153220000000  0.5616600000000 1.0
C      1  0.5006560000000  0.4620330000000  0.5027200000000 1.0
C      1  0.5759500000000  0.4907990000000  0.5299090000000 1.0
END
