TITL C-950530-3293-394 -2.84793717717672e-06 125000 -503.279655176764 0 0 81 (C1) n - 1
REM
REM in /home/bkarasulu/work/CARBON/AIRSS/Generating-Clusters/EDIP-Nigel-Params/with-SteepDescent/Only-C1/SD-CG/HFTN-CG
REM
REM
REM
REM
REM
REM ./C.cell (11c1c37f851c82e70ff6c80c92926a4b)
REM
REM compiler GCC version 9.2.1 20190827 (Red Hat 9.2.1-1)
REM options -cpp -mtune=generic -march=x86-64 -g -O0 -fpre-include=/usr/include/finclude/math-vector-fortran.h
REM seed -699118997 88639158 -2039816991 -534430031 -2118848451 -171043481 2104558616 -1716573971 2112578205 -771437721 23174273 1428980127 -887713336 -652064658 1511418716 1061177143 2027003063 791674775 -1110249475 391503924 -1694568479 2094068632 -972497297 1175988645 664615698 280845428 261128495 -871204516 239377538 569983597 502689061 1933642653 -763835926
REM
CELL 1.54180   50.00000   50.00000   50.00000   90.00000   90.00000   90.00000
LATT -1
SFAC C  
C      1  0.4782400000000  0.5661470000000  0.5344030000000 1.0
C      1  0.4355020000000  0.5206240000000  0.4582670000000 1.0
C      1  0.4686610000000  0.4547920000000  0.5694680000000 1.0
C      1  0.4843100000000  0.4287950000000  0.5331580000000 1.0
C      1  0.4910390000000  0.5365770000000  0.4502340000000 1.0
C      1  0.4618980000000  0.4364040000000  0.5486510000000 1.0
C      1  0.4405740000000  0.5482480000000  0.4976670000000 1.0
C      1  0.5252130000000  0.4698680000000  0.4680790000000 1.0
C      1  0.5184150000000  0.5553910000000  0.5600340000000 1.0
C      1  0.5227200000000  0.4281060000000  0.5007550000000 1.0
C      1  0.5275190000000  0.5671420000000  0.4667360000000 1.0
C      1  0.5771990000000  0.4681120000000  0.4791650000000 1.0
C      1  0.5076530000000  0.4336280000000  0.4497330000000 1.0
C      1  0.4660440000000  0.5054390000000  0.5103340000000 1.0
C      1  0.4377420000000  0.5185660000000  0.5050330000000 1.0
C      1  0.4997230000000  0.5147120000000  0.4722060000000 1.0
C      1  0.4444680000000  0.4767510000000  0.4757550000000 1.0
C      1  0.5328260000000  0.5364940000000  0.4980090000000 1.0
C      1  0.4402050000000  0.4864410000000  0.5575610000000 1.0
C      1  0.4712100000000  0.5572280000000  0.4609910000000 1.0
C      1  0.4643430000000  0.5637520000000  0.5077740000000 1.0
C      1  0.4624930000000  0.4816830000000  0.5768510000000 1.0
C      1  0.4813630000000  0.5713750000000  0.4850140000000 1.0
C      1  0.5313430000000  0.5162470000000  0.4763270000000 1.0
C      1  0.5606270000000  0.5314520000000  0.5137140000000 1.0
C      1  0.5766570000000  0.5126160000000  0.4971950000000 1.0
C      1  0.4696440000000  0.5507010000000  0.5580930000000 1.0
C      1  0.5283470000000  0.4315660000000  0.4712050000000 1.0
C      1  0.5166610000000  0.4697100000000  0.5661240000000 1.0
C      1  0.4643530000000  0.5229140000000  0.5506440000000 1.0
C      1  0.4403360000000  0.4473570000000  0.5305610000000 1.0
C      1  0.4995810000000  0.4881580000000  0.5491070000000 1.0
C      1  0.5259110000000  0.4831990000000  0.5134550000000 1.0
C      1  0.4795060000000  0.5189660000000  0.4286050000000 1.0
C      1  0.5186360000000  0.5057440000000  0.5312030000000 1.0
C      1  0.5416210000000  0.4635580000000  0.5299170000000 1.0
C      1  0.5446940000000  0.5136260000000  0.5440810000000 1.0
C      1  0.5488750000000  0.4401160000000  0.5093890000000 1.0
C      1  0.4526190000000  0.4788010000000  0.4466490000000 1.0
C      1  0.5273400000000  0.5041960000000  0.4341680000000 1.0
C      1  0.4876620000000  0.5227530000000  0.4986100000000 1.0
C      1  0.4708020000000  0.4800190000000  0.4925300000000 1.0
C      1  0.4436010000000  0.5476680000000  0.4680000000000 1.0
C      1  0.5748490000000  0.4848070000000  0.5025370000000 1.0
C      1  0.5102100000000  0.5731920000000  0.4894370000000 1.0
C      1  0.4507520000000  0.4755500000000  0.5311040000000 1.0
C      1  0.4929600000000  0.4711810000000  0.4200620000000 1.0
C      1  0.5617920000000  0.5379170000000  0.4534250000000 1.0
C      1  0.5168070000000  0.5515090000000  0.4435030000000 1.0
C      1  0.4525860000000  0.5068100000000  0.4376620000000 1.0
C      1  0.5095570000000  0.5311290000000  0.5163610000000 1.0
C      1  0.4378250000000  0.4472920000000  0.4790410000000 1.0
C      1  0.5393620000000  0.4883150000000  0.4884900000000 1.0
C      1  0.5010500000000  0.5216320000000  0.5828700000000 1.0
C      1  0.4807640000000  0.4272470000000  0.4554740000000 1.0
C      1  0.4208530000000  0.5168900000000  0.5283270000000 1.0
C      1  0.4989330000000  0.4400700000000  0.5123230000000 1.0
C      1  0.4553270000000  0.4338080000000  0.4620480000000 1.0
C      1  0.5417220000000  0.4796810000000  0.4439520000000 1.0
C      1  0.5550120000000  0.4855140000000  0.5511500000000 1.0
C      1  0.4824220000000  0.4703670000000  0.5296320000000 1.0
C      1  0.5566910000000  0.5621180000000  0.4711710000000 1.0
C      1  0.5412570000000  0.4802710000000  0.5754730000000 1.0
C      1  0.5122710000000  0.4511690000000  0.4274590000000 1.0
C      1  0.4814520000000  0.5042680000000  0.5668580000000 1.0
C      1  0.5322130000000  0.5295330000000  0.5672940000000 1.0
C      1  0.5379980000000  0.5322960000000  0.4361260000000 1.0
C      1  0.5201440000000  0.5794150000000  0.5152800000000 1.0
C      1  0.4795040000000  0.4673910000000  0.4465040000000 1.0
C      1  0.5631080000000  0.4437010000000  0.4837550000000 1.0
C      1  0.5694630000000  0.4854720000000  0.4551650000000 1.0
C      1  0.4944240000000  0.4823670000000  0.4696240000000 1.0
C      1  0.5692860000000  0.5129850000000  0.4681260000000 1.0
C      1  0.4365280000000  0.5145000000000  0.5513310000000 1.0
C      1  0.5233090000000  0.4487530000000  0.5483850000000 1.0
C      1  0.5641790000000  0.5588510000000  0.5000430000000 1.0
C      1  0.5012550000000  0.4996500000000  0.4203310000000 1.0
C      1  0.4940050000000  0.5500310000000  0.5765210000000 1.0
C      1  0.5072420000000  0.5588560000000  0.5317810000000 1.0
C      1  0.4371040000000  0.4373040000000  0.5048550000000 1.0
C      1  0.4276070000000  0.5025130000000  0.4810620000000 1.0
END
