TITL C-950521-2237-94 0.192121781950013 125000 -114.524254258225 0 0 21 (C1) n - 1
REM
REM in /home/bkarasulu/work/CARBON/AIRSS/Generating-Clusters/EDIP-Nigel-Params/with-SteepDescent/Only-C1/SD-CG/HFTN-CG
REM
REM
REM
REM
REM
REM ./C.cell (11c1c37f851c82e70ff6c80c92926a4b)
REM
REM compiler GCC version 9.2.1 20190827 (Red Hat 9.2.1-1)
REM options -cpp -mtune=generic -march=x86-64 -g -O0 -fpre-include=/usr/include/finclude/math-vector-fortran.h
REM seed 1746996648 -1423156425 -821744168 -2119130215 869221794 -544220643 -1208760983 -1486789361 842487579 623436825 -1719764884 -1873440181 -212116131 856905392 1859438585 -1952720857 -1002472955 312314679 -114887815 -419407473 -449296635 -1801071264 1036928360 -1390270431 2035886509 -2074380285 1133585204 -1057776446 -2023008951 1540101861 1961535782 929836030 -1516946002
REM
CELL 1.54180   50.00000   50.00000   50.00000   90.00000   90.00000   90.00000
LATT -1
SFAC C  
C      1  0.4596760000000  0.4894920000000  0.5138510000000 1.0
C      1  0.5671170000000  0.4647100000000  0.4632400000000 1.0
C      1  0.4989950000000  0.5426630000000  0.5123880000000 1.0
C      1  0.4675450000000  0.5713450000000  0.5234500000000 1.0
C      1  0.5366170000000  0.4506980000000  0.5245680000000 1.0
C      1  0.5160140000000  0.5624520000000  0.5212910000000 1.0
C      1  0.4515630000000  0.5266770000000  0.5080250000000 1.0
C      1  0.5274890000000  0.4435240000000  0.5486090000000 1.0
C      1  0.4884210000000  0.4637850000000  0.5422550000000 1.0
C      1  0.5303780000000  0.4641320000000  0.5013970000000 1.0
C      1  0.4709330000000  0.5474760000000  0.5082850000000 1.0
C      1  0.4530880000000  0.5044790000000  0.4915110000000 1.0
C      1  0.5034470000000  0.4492260000000  0.5590650000000 1.0
C      1  0.5486590000000  0.4648270000000  0.4810040000000 1.0
C      1  0.4847500000000  0.4770100000000  0.5183580000000 1.0
C      1  0.4976380000000  0.5224690000000  0.4030210000000 1.0
C      1  0.4999280000000  0.5004630000000  0.4500200000000 1.0
C      1  0.5048810000000  0.4766420000000  0.4979130000000 1.0
C      1  0.5001310000000  0.4896620000000  0.4742090000000 1.0
C      1  0.4944110000000  0.5764400000000  0.5312740000000 1.0
C      1  0.4983200000000  0.5118290000000  0.4262620000000 1.0
END
