TITL C-951341-1326-391 -5.23319588741604e-07 125000 -347.483315839209 0 0 58 (C1) n - 1
REM
REM in /home/bkarasulu/work/CARBON/AIRSS/Generating-Clusters/EDIP-Nigel-Params/with-SteepDescent/Only-C1/SD-CG/HFTN-CG
REM
REM
REM
REM
REM
REM ./C.cell (11c1c37f851c82e70ff6c80c92926a4b)
REM
REM compiler GCC version 9.2.1 20190827 (Red Hat 9.2.1-1)
REM options -cpp -mtune=generic -march=x86-64 -g -O0 -fpre-include=/usr/include/finclude/math-vector-fortran.h
REM seed 1197828351 1008229159 -1167431847 321561863 -1284543699 1573033824 100453444 -1285432138 484513696 -1053098723 307208382 -389731474 208083438 -628045267 -626422945 217817310 293695928 1921684349 459384597 73375678 -1663239797 1004565053 -237809201 189822420 1447819968 -864024442 548409217 -1692761985 714700528 -350508203 1416237368 1873350080 92446707
REM
CELL 1.54180   50.00000   50.00000   50.00000   90.00000   90.00000   90.00000
LATT -1
SFAC C  
C      1  0.5309350000000  0.5271310000000  0.4356850000000 1.0
C      1  0.5466450000000  0.5470370000000  0.5184100000000 1.0
C      1  0.4477980000000  0.5525070000000  0.5150250000000 1.0
C      1  0.5108730000000  0.5214170000000  0.4975640000000 1.0
C      1  0.4419620000000  0.5063940000000  0.5137710000000 1.0
C      1  0.5232100000000  0.4693430000000  0.5035180000000 1.0
C      1  0.4387510000000  0.4658890000000  0.4823920000000 1.0
C      1  0.5308600000000  0.5093720000000  0.5430250000000 1.0
C      1  0.4250900000000  0.4862740000000  0.5265250000000 1.0
C      1  0.5527800000000  0.5171770000000  0.4801830000000 1.0
C      1  0.4297300000000  0.5325410000000  0.5141480000000 1.0
C      1  0.4752070000000  0.4543870000000  0.4603160000000 1.0
C      1  0.4501770000000  0.4509390000000  0.5057520000000 1.0
C      1  0.5013230000000  0.4315930000000  0.5094660000000 1.0
C      1  0.5272210000000  0.5007090000000  0.5123830000000 1.0
C      1  0.5220110000000  0.5505260000000  0.5009450000000 1.0
C      1  0.4700440000000  0.5065210000000  0.5302930000000 1.0
C      1  0.5542950000000  0.4887060000000  0.4794890000000 1.0
C      1  0.4632460000000  0.4877190000000  0.4287450000000 1.0
C      1  0.5122430000000  0.5011030000000  0.4728390000000 1.0
C      1  0.5529520000000  0.4943740000000  0.5572080000000 1.0
C      1  0.4852370000000  0.5505200000000  0.5487720000000 1.0
C      1  0.4838010000000  0.4707780000000  0.4370530000000 1.0
C      1  0.5068950000000  0.5137800000000  0.4313520000000 1.0
C      1  0.4466150000000  0.4515490000000  0.4593630000000 1.0
C      1  0.5093590000000  0.4964590000000  0.5600860000000 1.0
C      1  0.4497260000000  0.4947800000000  0.4834380000000 1.0
C      1  0.5094390000000  0.4849040000000  0.4373790000000 1.0
C      1  0.5354970000000  0.5398080000000  0.5449600000000 1.0
C      1  0.4934670000000  0.4789820000000  0.5047070000000 1.0
C      1  0.4885510000000  0.4572230000000  0.5482830000000 1.0
C      1  0.5127740000000  0.5572150000000  0.5503710000000 1.0
C      1  0.5631220000000  0.5254360000000  0.5059970000000 1.0
C      1  0.5375930000000  0.4710820000000  0.5638640000000 1.0
C      1  0.4802750000000  0.4509950000000  0.4982680000000 1.0
C      1  0.4584360000000  0.5125370000000  0.4405350000000 1.0
C      1  0.4830550000000  0.5218380000000  0.5065180000000 1.0
C      1  0.5754130000000  0.5038780000000  0.5204670000000 1.0
C      1  0.5272870000000  0.5587990000000  0.4726560000000 1.0
C      1  0.5563160000000  0.4564690000000  0.5197550000000 1.0
C      1  0.4740500000000  0.5495170000000  0.5057550000000 1.0
C      1  0.4691380000000  0.4763010000000  0.5410430000000 1.0
C      1  0.4439840000000  0.4653820000000  0.5308590000000 1.0
C      1  0.4817990000000  0.4886660000000  0.4773380000000 1.0
C      1  0.4835030000000  0.5270920000000  0.4425800000000 1.0
C      1  0.5364580000000  0.4724930000000  0.4619700000000 1.0
C      1  0.5089930000000  0.4427360000000  0.5358630000000 1.0
C      1  0.4982650000000  0.5648690000000  0.5153220000000 1.0
C      1  0.5657380000000  0.4809330000000  0.5059290000000 1.0
C      1  0.5367460000000  0.4522990000000  0.5416050000000 1.0
C      1  0.4403150000000  0.5118420000000  0.4619090000000 1.0
C      1  0.5390100000000  0.5347360000000  0.4613830000000 1.0
C      1  0.5308000000000  0.4459820000000  0.4709430000000 1.0
C      1  0.4751450000000  0.5240910000000  0.5548420000000 1.0
C      1  0.5243890000000  0.4303120000000  0.4927880000000 1.0
C      1  0.4852770000000  0.5546890000000  0.4461250000000 1.0
C      1  0.5054920000000  0.5681550000000  0.4578830000000 1.0
C      1  0.4906890000000  0.5112120000000  0.5743610000000 1.0
END
