TITL C-951343-2256-732 -4.30233234674067e-06 125000 -267.520766474116 0 0 45 (C1) n - 1
REM
REM in /home/bkarasulu/work/CARBON/AIRSS/Generating-Clusters/EDIP-Nigel-Params/with-SteepDescent/Only-C1/SD-CG/HFTN-CG
REM
REM
REM
REM
REM
REM ./C.cell (11c1c37f851c82e70ff6c80c92926a4b)
REM
REM compiler GCC version 9.2.1 20190827 (Red Hat 9.2.1-1)
REM options -cpp -mtune=generic -march=x86-64 -g -O0 -fpre-include=/usr/include/finclude/math-vector-fortran.h
REM seed -949542687 1792731206 -1772835920 -68909328 -897150134 -1535886908 196565778 -203077203 -1002256670 1325540583 -1014600521 408459313 89084228 -406570249 -520537390 -1743648912 995381185 2019605203 1422298389 1653984142 1985333698 1500763377 454785206 1640597158 -1785552532 -11885657 1275407712 -538237384 -610978649 2037000499 -1234819673 1671699119 201653105
REM
CELL 1.54180   50.00000   50.00000   50.00000   90.00000   90.00000   90.00000
LATT -1
SFAC C  
C      1  0.5248730000000  0.5509610000000  0.4644090000000 1.0
C      1  0.5524410000000  0.5132180000000  0.4794210000000 1.0
C      1  0.4891200000000  0.4421990000000  0.4715330000000 1.0
C      1  0.4648760000000  0.4439820000000  0.5124900000000 1.0
C      1  0.5116560000000  0.4683700000000  0.5557420000000 1.0
C      1  0.5323510000000  0.5239890000000  0.4599530000000 1.0
C      1  0.5165030000000  0.4535280000000  0.4685700000000 1.0
C      1  0.4943400000000  0.5188710000000  0.5603990000000 1.0
C      1  0.4726190000000  0.5351450000000  0.4748320000000 1.0
C      1  0.5136720000000  0.4373180000000  0.5130760000000 1.0
C      1  0.5535930000000  0.4604390000000  0.5436170000000 1.0
C      1  0.4624150000000  0.4925900000000  0.5249070000000 1.0
C      1  0.4967880000000  0.5269650000000  0.5138770000000 1.0
C      1  0.4764720000000  0.4677580000000  0.5221140000000 1.0
C      1  0.5584330000000  0.4838910000000  0.4745750000000 1.0
C      1  0.5307740000000  0.5533880000000  0.5458540000000 1.0
C      1  0.5361440000000  0.4578140000000  0.5639910000000 1.0
C      1  0.4450990000000  0.5138100000000  0.4481630000000 1.0
C      1  0.5517260000000  0.4756800000000  0.5203270000000 1.0
C      1  0.4566000000000  0.4656630000000  0.4385340000000 1.0
C      1  0.5425700000000  0.5307440000000  0.5338450000000 1.0
C      1  0.5196840000000  0.5114480000000  0.5255040000000 1.0
C      1  0.5342950000000  0.4414810000000  0.4900620000000 1.0
C      1  0.4343050000000  0.5312690000000  0.4691840000000 1.0
C      1  0.5014390000000  0.5643890000000  0.5076800000000 1.0
C      1  0.4735700000000  0.5226180000000  0.4455200000000 1.0
C      1  0.5107620000000  0.5048630000000  0.4619310000000 1.0
C      1  0.4362610000000  0.5294690000000  0.4983530000000 1.0
C      1  0.4516200000000  0.5516390000000  0.5087210000000 1.0
C      1  0.5250190000000  0.5533900000000  0.4922370000000 1.0
C      1  0.4924990000000  0.5023700000000  0.4407980000000 1.0
C      1  0.4412400000000  0.4852300000000  0.4510450000000 1.0
C      1  0.4871340000000  0.4313920000000  0.4993410000000 1.0
C      1  0.4422970000000  0.5022680000000  0.5073960000000 1.0
C      1  0.4666100000000  0.4586880000000  0.4634280000000 1.0
C      1  0.5043760000000  0.5618140000000  0.5393790000000 1.0
C      1  0.4741600000000  0.5608410000000  0.4934600000000 1.0
C      1  0.5435900000000  0.5330500000000  0.5031230000000 1.0
C      1  0.4771850000000  0.5126590000000  0.4956290000000 1.0
C      1  0.5058540000000  0.4946780000000  0.5630480000000 1.0
C      1  0.5058290000000  0.4641720000000  0.5266770000000 1.0
C      1  0.5236370000000  0.4842990000000  0.5123490000000 1.0
C      1  0.5210230000000  0.4822450000000  0.4791060000000 1.0
C      1  0.5580220000000  0.4620740000000  0.4950820000000 1.0
C      1  0.4865270000000  0.5373290000000  0.5407180000000 1.0
END
