TITL C-950521-2237-745 -6.19709168376987e-09 125000 -329.018676508117 0 0 54 (C1) n - 1
REM
REM in /home/bkarasulu/work/CARBON/AIRSS/Generating-Clusters/EDIP-Nigel-Params/with-SteepDescent/Only-C1/SD-CG/HFTN-CG
REM
REM
REM
REM
REM
REM ./C.cell (11c1c37f851c82e70ff6c80c92926a4b)
REM
REM compiler GCC version 9.2.1 20190827 (Red Hat 9.2.1-1)
REM options -cpp -mtune=generic -march=x86-64 -g -O0 -fpre-include=/usr/include/finclude/math-vector-fortran.h
REM seed 1976081968 -459198005 -2105178373 -72744132 334716139 -122267241 -133515570 -120945965 874416897 222229115 991896812 2028777630 -1835398045 -1779264135 -1178277291 1257137228 1152516420 -2093869619 563663753 -105582083 1818449645 284484843 1959251246 911559425 553412012 -224558133 242376743 315069647 1238749877 1162754278 2093586232 510260237 -2140275788
REM
CELL 1.54180   50.00000   50.00000   50.00000   90.00000   90.00000   90.00000
LATT -1
SFAC C  
C      1  0.4711850000000  0.5060440000000  0.5724880000000 1.0
C      1  0.5616780000000  0.4891140000000  0.4933200000000 1.0
C      1  0.5347240000000  0.5352110000000  0.5586470000000 1.0
C      1  0.5507750000000  0.4660850000000  0.4814860000000 1.0
C      1  0.4629590000000  0.5354140000000  0.5345550000000 1.0
C      1  0.4664990000000  0.5097620000000  0.4328210000000 1.0
C      1  0.4940150000000  0.5011120000000  0.4921590000000 1.0
C      1  0.4829260000000  0.5614640000000  0.4998160000000 1.0
C      1  0.5404780000000  0.4907060000000  0.4330320000000 1.0
C      1  0.4928660000000  0.4177890000000  0.4819720000000 1.0
C      1  0.4885030000000  0.4920030000000  0.4305170000000 1.0
C      1  0.4616000000000  0.5300390000000  0.5617380000000 1.0
C      1  0.5448770000000  0.4894370000000  0.5620810000000 1.0
C      1  0.4823350000000  0.4529370000000  0.5363060000000 1.0
C      1  0.5288100000000  0.5109100000000  0.5711700000000 1.0
C      1  0.4697380000000  0.4577620000000  0.5621850000000 1.0
C      1  0.4906570000000  0.4700320000000  0.4510090000000 1.0
C      1  0.4542730000000  0.5520690000000  0.4944580000000 1.0
C      1  0.5064440000000  0.5188100000000  0.5131700000000 1.0
C      1  0.5155640000000  0.5063210000000  0.4224790000000 1.0
C      1  0.5350990000000  0.4858440000000  0.5347370000000 1.0
C      1  0.5064980000000  0.5079440000000  0.4674620000000 1.0
C      1  0.5132820000000  0.4515760000000  0.4497920000000 1.0
C      1  0.5396470000000  0.4650320000000  0.4524310000000 1.0
C      1  0.4624920000000  0.4437500000000  0.5141130000000 1.0
C      1  0.4560750000000  0.4921120000000  0.5283900000000 1.0
C      1  0.4850220000000  0.4804520000000  0.5246650000000 1.0
C      1  0.5398900000000  0.4498760000000  0.5012110000000 1.0
C      1  0.4631230000000  0.5033010000000  0.4918520000000 1.0
C      1  0.4755830000000  0.4392220000000  0.4881980000000 1.0
C      1  0.5101940000000  0.4273600000000  0.4634090000000 1.0
C      1  0.4890500000000  0.5420050000000  0.5215000000000 1.0
C      1  0.5513140000000  0.5032240000000  0.5152290000000 1.0
C      1  0.4680980000000  0.5318430000000  0.4501390000000 1.0
C      1  0.5070600000000  0.4981230000000  0.5351040000000 1.0
C      1  0.5433840000000  0.5313970000000  0.4567420000000 1.0
C      1  0.5094460000000  0.4431190000000  0.5368130000000 1.0
C      1  0.5263500000000  0.5688730000000  0.4800040000000 1.0
C      1  0.5416930000000  0.5455270000000  0.4831510000000 1.0
C      1  0.4573350000000  0.4833160000000  0.5588890000000 1.0
C      1  0.5358690000000  0.5292120000000  0.5098800000000 1.0
C      1  0.5068380000000  0.5618980000000  0.5315740000000 1.0
C      1  0.5189820000000  0.5354750000000  0.4352820000000 1.0
C      1  0.5004280000000  0.5040210000000  0.5729110000000 1.0
C      1  0.5003360000000  0.5592570000000  0.4760760000000 1.0
C      1  0.4497860000000  0.4779310000000  0.4811310000000 1.0
C      1  0.4685130000000  0.4591630000000  0.4678460000000 1.0
C      1  0.4418170000000  0.5458560000000  0.5193990000000 1.0
C      1  0.4971080000000  0.5354870000000  0.4575020000000 1.0
C      1  0.5319170000000  0.4565120000000  0.5269910000000 1.0
C      1  0.4532530000000  0.5283830000000  0.4761650000000 1.0
C      1  0.5359290000000  0.5027830000000  0.4620520000000 1.0
C      1  0.5327760000000  0.5485550000000  0.5341560000000 1.0
C      1  0.4449070000000  0.4685510000000  0.5097920000000 1.0
END
