TITL C-951337-3020-55 -1.84523795267872e-06 125000 -321.929213641073 0 0 53 (C1) n - 1
REM
REM in /home/bkarasulu/work/CARBON/AIRSS/Generating-Clusters/EDIP-Nigel-Params/with-SteepDescent/Only-C1/SD-CG/HFTN-CG
REM
REM
REM
REM
REM
REM ./C.cell (11c1c37f851c82e70ff6c80c92926a4b)
REM
REM compiler GCC version 9.2.1 20190827 (Red Hat 9.2.1-1)
REM options -cpp -mtune=generic -march=x86-64 -g -O0 -fpre-include=/usr/include/finclude/math-vector-fortran.h
REM seed 647775827 -1399068086 -1190725529 -461488127 685850524 1294215341 1464749604 1540379099 -252878754 1567119562 -1713883180 1407317362 1306064275 -2109679440 1924912198 -171470116 147337891 -536158209 16280947 1204967948 -1629323253 -309178962 674492589 -1873665072 -1432753187 2126645476 224547252 -516695995 1001770218 1916391457 -818113863 1140407 -204319635
REM
CELL 1.54180   50.00000   50.00000   50.00000   90.00000   90.00000   90.00000
LATT -1
SFAC C  
C      1  0.5610920000000  0.5209490000000  0.5118760000000 1.0
C      1  0.4459920000000  0.4415540000000  0.4878600000000 1.0
C      1  0.5336980000000  0.5608720000000  0.5184870000000 1.0
C      1  0.4798090000000  0.5507260000000  0.5464920000000 1.0
C      1  0.5377890000000  0.4889220000000  0.4719730000000 1.0
C      1  0.4875630000000  0.5042230000000  0.4314640000000 1.0
C      1  0.4390280000000  0.5116520000000  0.5475440000000 1.0
C      1  0.5741980000000  0.4858430000000  0.5029840000000 1.0
C      1  0.4952220000000  0.4482810000000  0.5427650000000 1.0
C      1  0.4444600000000  0.4651880000000  0.5295180000000 1.0
C      1  0.5777680000000  0.5151190000000  0.4670870000000 1.0
C      1  0.4782800000000  0.5446620000000  0.4696920000000 1.0
C      1  0.4540170000000  0.4896530000000  0.5391180000000 1.0
C      1  0.4873960000000  0.5025430000000  0.4793110000000 1.0
C      1  0.4441110000000  0.5388590000000  0.5452780000000 1.0
C      1  0.4824640000000  0.4933550000000  0.5370550000000 1.0
C      1  0.5679800000000  0.4898880000000  0.4754720000000 1.0
C      1  0.4604200000000  0.4919800000000  0.4373500000000 1.0
C      1  0.5238410000000  0.4428420000000  0.4861810000000 1.0
C      1  0.4466570000000  0.5464210000000  0.5170770000000 1.0
C      1  0.4604040000000  0.5208900000000  0.4757780000000 1.0
C      1  0.5169730000000  0.4649440000000  0.4667690000000 1.0
C      1  0.5646040000000  0.5332730000000  0.4843560000000 1.0
C      1  0.4840910000000  0.4385360000000  0.5191800000000 1.0
C      1  0.5018790000000  0.4313500000000  0.4990010000000 1.0
C      1  0.5643410000000  0.4651850000000  0.5431900000000 1.0
C      1  0.4960570000000  0.5270680000000  0.4500370000000 1.0
C      1  0.4880240000000  0.4733880000000  0.4722940000000 1.0
C      1  0.4164070000000  0.5160580000000  0.4885000000000 1.0
C      1  0.4671430000000  0.4662200000000  0.4523040000000 1.0
C      1  0.5345040000000  0.5354870000000  0.4792870000000 1.0
C      1  0.5457550000000  0.5385360000000  0.5307060000000 1.0
C      1  0.5463470000000  0.4471290000000  0.5018910000000 1.0
C      1  0.5040860000000  0.5396570000000  0.5547040000000 1.0
C      1  0.5154150000000  0.4841240000000  0.5702250000000 1.0
C      1  0.5588620000000  0.4879920000000  0.5563920000000 1.0
C      1  0.4917290000000  0.5510930000000  0.4950410000000 1.0
C      1  0.4436320000000  0.5112670000000  0.4534660000000 1.0
C      1  0.4957700000000  0.4739860000000  0.5533770000000 1.0
C      1  0.5324100000000  0.5011810000000  0.4454960000000 1.0
C      1  0.5202950000000  0.5573410000000  0.4940920000000 1.0
C      1  0.4568080000000  0.4464910000000  0.5129400000000 1.0
C      1  0.4743010000000  0.5568250000000  0.5181910000000 1.0
C      1  0.4456900000000  0.4513920000000  0.4628390000000 1.0
C      1  0.5356820000000  0.5015390000000  0.5631640000000 1.0
C      1  0.4416560000000  0.5242070000000  0.4982360000000 1.0
C      1  0.5255020000000  0.5294240000000  0.4513210000000 1.0
C      1  0.5284770000000  0.5083770000000  0.4943290000000 1.0
C      1  0.5004720000000  0.5050830000000  0.5056030000000 1.0
C      1  0.4181600000000  0.5042720000000  0.4637770000000 1.0
C      1  0.5102230000000  0.4860230000000  0.4342510000000 1.0
C      1  0.5648760000000  0.4624990000000  0.5156920000000 1.0
C      1  0.5276390000000  0.5256360000000  0.5489860000000 1.0
END
