TITL C-950529-3362-393 -2.14633797417703e-07 125000 -817.138620635704 0 0 131 (C1) n - 1
REM
REM in /home/bkarasulu/work/CARBON/AIRSS/Generating-Clusters/EDIP-Nigel-Params/with-SteepDescent/Only-C1/SD-CG/HFTN-CG
REM
REM
REM
REM
REM
REM ./C.cell (11c1c37f851c82e70ff6c80c92926a4b)
REM
REM compiler GCC version 9.2.1 20190827 (Red Hat 9.2.1-1)
REM options -cpp -mtune=generic -march=x86-64 -g -O0 -fpre-include=/usr/include/finclude/math-vector-fortran.h
REM seed -826736011 -619719653 1026985968 -842635832 357759403 -1833590805 674498920 -673195677 -430582359 -1126313120 1170312732 712859311 354611928 1970435495 1095680363 1180325655 -1200076435 -1186018871 1578711862 -704286232 284317098 -666793505 1995812941 778355911 1561788882 1962373395 -231189944 630223163 -1066384693 -858344467 -371092355 -507283918 718645688
REM
CELL 1.54180   50.00000   50.00000   50.00000   90.00000   90.00000   90.00000
LATT -1
SFAC C  
C      1  0.4949360000000  0.5874980000000  0.4714810000000 1.0
C      1  0.5102300000000  0.4542440000000  0.4945340000000 1.0
C      1  0.4594600000000  0.4696690000000  0.4176520000000 1.0
C      1  0.4423430000000  0.4417010000000  0.4687740000000 1.0
C      1  0.4634040000000  0.5232290000000  0.4569380000000 1.0
C      1  0.5277470000000  0.4564000000000  0.3959230000000 1.0
C      1  0.4514490000000  0.4268440000000  0.5176510000000 1.0
C      1  0.4774870000000  0.5428920000000  0.4035730000000 1.0
C      1  0.5297610000000  0.5440910000000  0.5595410000000 1.0
C      1  0.5669670000000  0.5725100000000  0.4941770000000 1.0
C      1  0.5377640000000  0.5009050000000  0.5004150000000 1.0
C      1  0.5617070000000  0.5144790000000  0.5812050000000 1.0
C      1  0.5260690000000  0.5257840000000  0.5369390000000 1.0
C      1  0.4062680000000  0.5526170000000  0.5381420000000 1.0
C      1  0.5012250000000  0.6001690000000  0.4953610000000 1.0
C      1  0.4241850000000  0.5719470000000  0.4827130000000 1.0
C      1  0.5270090000000  0.4833160000000  0.5235700000000 1.0
C      1  0.5376520000000  0.4093970000000  0.4886600000000 1.0
C      1  0.5629950000000  0.4250310000000  0.4928450000000 1.0
C      1  0.5839460000000  0.5294270000000  0.4505820000000 1.0
C      1  0.4693100000000  0.5015170000000  0.5403180000000 1.0
C      1  0.4616690000000  0.5262860000000  0.5000860000000 1.0
C      1  0.4826690000000  0.5168580000000  0.4138920000000 1.0
C      1  0.5669950000000  0.5924380000000  0.5138940000000 1.0
C      1  0.5134950000000  0.5669360000000  0.5572880000000 1.0
C      1  0.4591370000000  0.5655380000000  0.4430110000000 1.0
C      1  0.4924010000000  0.3978850000000  0.5072910000000 1.0
C      1  0.5928200000000  0.5064110000000  0.4956360000000 1.0
C      1  0.4786800000000  0.4542190000000  0.4047330000000 1.0
C      1  0.5785390000000  0.4878330000000  0.5385250000000 1.0
C      1  0.5627720000000  0.5471210000000  0.4372750000000 1.0
C      1  0.4881550000000  0.4416730000000  0.4796100000000 1.0
C      1  0.5368640000000  0.4908000000000  0.4288980000000 1.0
C      1  0.5053200000000  0.4513270000000  0.4121360000000 1.0
C      1  0.5574450000000  0.4910420000000  0.5615640000000 1.0
C      1  0.4603670000000  0.5015000000000  0.5867600000000 1.0
C      1  0.5126950000000  0.5585080000000  0.4995810000000 1.0
C      1  0.4150800000000  0.5159820000000  0.4983740000000 1.0
C      1  0.4876870000000  0.4893340000000  0.4719400000000 1.0
C      1  0.4367090000000  0.5131580000000  0.5724530000000 1.0
C      1  0.4691670000000  0.5723690000000  0.4719960000000 1.0
C      1  0.5823880000000  0.4489300000000  0.4497960000000 1.0
C      1  0.4855090000000  0.4627830000000  0.4581540000000 1.0
C      1  0.5219600000000  0.5163000000000  0.4790690000000 1.0
C      1  0.4151360000000  0.5285560000000  0.4493290000000 1.0
C      1  0.4757110000000  0.4872500000000  0.5650120000000 1.0
C      1  0.4960760000000  0.4437710000000  0.5700790000000 1.0
C      1  0.5527380000000  0.4830080000000  0.4807140000000 1.0
C      1  0.4109040000000  0.4528650000000  0.5116220000000 1.0
C      1  0.5504370000000  0.5272460000000  0.5162850000000 1.0
C      1  0.5801140000000  0.4312920000000  0.4714960000000 1.0
C      1  0.5435430000000  0.5335500000000  0.4676970000000 1.0
C      1  0.3978820000000  0.4888870000000  0.4667740000000 1.0
C      1  0.4907730000000  0.5225830000000  0.4423320000000 1.0
C      1  0.4725650000000  0.5450570000000  0.5716700000000 1.0
C      1  0.5853000000000  0.5297560000000  0.4804470000000 1.0
C      1  0.4507040000000  0.4466900000000  0.5416090000000 1.0
C      1  0.4831610000000  0.5623460000000  0.4239530000000 1.0
C      1  0.5702100000000  0.5541240000000  0.5453470000000 1.0
C      1  0.4995420000000  0.5351670000000  0.5204100000000 1.0
C      1  0.4287010000000  0.4653220000000  0.5335870000000 1.0
C      1  0.3930130000000  0.5154890000000  0.4783330000000 1.0
C      1  0.5714650000000  0.5408860000000  0.5725590000000 1.0
C      1  0.5813260000000  0.4995240000000  0.4423480000000 1.0
C      1  0.4563170000000  0.4652510000000  0.4479610000000 1.0
C      1  0.4219950000000  0.4236830000000  0.4765790000000 1.0
C      1  0.4805230000000  0.4039640000000  0.5494600000000 1.0
C      1  0.5281870000000  0.4969790000000  0.5491220000000 1.0
C      1  0.4220250000000  0.5460730000000  0.4973420000000 1.0
C      1  0.4545890000000  0.4721010000000  0.5054650000000 1.0
C      1  0.5449370000000  0.5504680000000  0.4954420000000 1.0
C      1  0.5666890000000  0.4393890000000  0.5179870000000 1.0
C      1  0.5064740000000  0.4907070000000  0.5715690000000 1.0
C      1  0.4954150000000  0.4158420000000  0.4671270000000 1.0
C      1  0.5017560000000  0.5937480000000  0.5224260000000 1.0
C      1  0.5609760000000  0.4421070000000  0.5643770000000 1.0
C      1  0.5038070000000  0.4173900000000  0.5583060000000 1.0
C      1  0.4885570000000  0.5551150000000  0.5469190000000 1.0
C      1  0.4486600000000  0.5836680000000  0.4915680000000 1.0
C      1  0.4367770000000  0.5500260000000  0.5390210000000 1.0
C      1  0.5193500000000  0.4052010000000  0.5119450000000 1.0
C      1  0.4715070000000  0.4571620000000  0.5603210000000 1.0
C      1  0.5263290000000  0.4165500000000  0.5381900000000 1.0
C      1  0.5139240000000  0.5660180000000  0.4657920000000 1.0
C      1  0.4373110000000  0.4919830000000  0.4882750000000 1.0
C      1  0.5235590000000  0.4154450000000  0.4626780000000 1.0
C      1  0.5355370000000  0.5412770000000  0.4256280000000 1.0
C      1  0.4440290000000  0.5418670000000  0.5669290000000 1.0
C      1  0.5574800000000  0.4655850000000  0.5780980000000 1.0
C      1  0.5134640000000  0.4642180000000  0.5824280000000 1.0
C      1  0.5358190000000  0.5317520000000  0.5862450000000 1.0
C      1  0.4638970000000  0.4964060000000  0.4111440000000 1.0
C      1  0.4783960000000  0.4851830000000  0.5179210000000 1.0
C      1  0.5068600000000  0.5039460000000  0.4583220000000 1.0
C      1  0.5361030000000  0.4577240000000  0.4795880000000 1.0
C      1  0.4426770000000  0.5394470000000  0.4427700000000 1.0
C      1  0.5825330000000  0.4796740000000  0.4887830000000 1.0
C      1  0.4069680000000  0.4685280000000  0.4866830000000 1.0
C      1  0.5091970000000  0.4578010000000  0.4397740000000 1.0
C      1  0.4790500000000  0.5465970000000  0.4842840000000 1.0
C      1  0.5254620000000  0.5812560000000  0.5353510000000 1.0
C      1  0.4847110000000  0.5058830000000  0.4989630000000 1.0
C      1  0.5099150000000  0.5130830000000  0.5914180000000 1.0
C      1  0.4483960000000  0.5222330000000  0.5274880000000 1.0
C      1  0.4220580000000  0.4257620000000  0.5050470000000 1.0
C      1  0.4811670000000  0.5238780000000  0.5918020000000 1.0
C      1  0.5528120000000  0.4991250000000  0.4533660000000 1.0
C      1  0.3922560000000  0.5287800000000  0.5420160000000 1.0
C      1  0.5899380000000  0.5434090000000  0.5263930000000 1.0
C      1  0.5555790000000  0.5800660000000  0.5363090000000 1.0
C      1  0.4185980000000  0.4993660000000  0.4471930000000 1.0
C      1  0.4522860000000  0.5758730000000  0.5208360000000 1.0
C      1  0.4455540000000  0.4939930000000  0.4590280000000 1.0
C      1  0.5892610000000  0.5535590000000  0.4975240000000 1.0
C      1  0.5520690000000  0.4305400000000  0.5411630000000 1.0
C      1  0.5859260000000  0.5130990000000  0.5231280000000 1.0
C      1  0.5034870000000  0.4683030000000  0.5188960000000 1.0
C      1  0.4604060000000  0.4446230000000  0.4927160000000 1.0
C      1  0.4700710000000  0.4031740000000  0.5235230000000 1.0
C      1  0.4780880000000  0.5795470000000  0.5334810000000 1.0
C      1  0.4009930000000  0.5619630000000  0.5116710000000 1.0
C      1  0.5470700000000  0.4669840000000  0.4142350000000 1.0
C      1  0.4062970000000  0.5096570000000  0.5271720000000 1.0
C      1  0.5560390000000  0.4463160000000  0.4345230000000 1.0
C      1  0.5372800000000  0.4618570000000  0.5968980000000 1.0
C      1  0.5923800000000  0.4761560000000  0.4587450000000 1.0
C      1  0.5082010000000  0.5505230000000  0.4400430000000 1.0
C      1  0.4259410000000  0.4953580000000  0.5442590000000 1.0
C      1  0.5336460000000  0.5151180000000  0.4149320000000 1.0
C      1  0.5321350000000  0.4436230000000  0.4535120000000 1.0
C      1  0.5805620000000  0.4657550000000  0.5173410000000 1.0
END
