TITL C-950529-3362-111 -6.79013794884729e-06 125000 -176.66916811205 0 0 31 (C1) n - 1
REM
REM in /home/bkarasulu/work/CARBON/AIRSS/Generating-Clusters/EDIP-Nigel-Params/with-SteepDescent/Only-C1/SD-CG/HFTN-CG
REM
REM
REM
REM
REM
REM ./C.cell (11c1c37f851c82e70ff6c80c92926a4b)
REM
REM compiler GCC version 9.2.1 20190827 (Red Hat 9.2.1-1)
REM options -cpp -mtune=generic -march=x86-64 -g -O0 -fpre-include=/usr/include/finclude/math-vector-fortran.h
REM seed -1352297941 1991226650 -1449835508 -196871441 -1708178326 957956912 -99221792 1303301630 1726983124 -382201874 2094931534 1537216579 735193650 830828359 -849639359 -335889385 -907434420 1394813243 832452025 -1758770342 -1512058912 644461708 -1547039566 323403034 -877078670 1663082928 1082422291 -1576831570 2096249989 531970415 -813127409 -1747741686 629387940
REM
CELL 1.54180   50.00000   50.00000   50.00000   90.00000   90.00000   90.00000
LATT -1
SFAC C  
C      1  0.5449760000000  0.5196000000000  0.5111650000000 1.0
C      1  0.5039050000000  0.4589340000000  0.4699290000000 1.0
C      1  0.5036950000000  0.5606520000000  0.5464500000000 1.0
C      1  0.4804520000000  0.4519380000000  0.4567560000000 1.0
C      1  0.4979540000000  0.5569480000000  0.5197960000000 1.0
C      1  0.5088100000000  0.4479610000000  0.5180370000000 1.0
C      1  0.5606200000000  0.5259420000000  0.4895950000000 1.0
C      1  0.5208090000000  0.4736970000000  0.5609020000000 1.0
C      1  0.4773590000000  0.5076900000000  0.4376220000000 1.0
C      1  0.5686440000000  0.5072640000000  0.4707130000000 1.0
C      1  0.4923760000000  0.5420820000000  0.4984790000000 1.0
C      1  0.4925090000000  0.5170600000000  0.4868690000000 1.0
C      1  0.5167780000000  0.4533890000000  0.5432580000000 1.0
C      1  0.4404920000000  0.5123300000000  0.5231720000000 1.0
C      1  0.4390710000000  0.4762440000000  0.4891640000000 1.0
C      1  0.4638310000000  0.5127930000000  0.5379400000000 1.0
C      1  0.4864950000000  0.4958860000000  0.5334560000000 1.0
C      1  0.4747750000000  0.5132550000000  0.4646330000000 1.0
C      1  0.5027770000000  0.5182520000000  0.4381000000000 1.0
C      1  0.5196900000000  0.4784600000000  0.4578230000000 1.0
C      1  0.5252820000000  0.5032460000000  0.4467520000000 1.0
C      1  0.5283120000000  0.4992470000000  0.5196120000000 1.0
C      1  0.5304490000000  0.5617250000000  0.5557240000000 1.0
C      1  0.5007440000000  0.4941560000000  0.5053960000000 1.0
C      1  0.4475440000000  0.4873810000000  0.5138740000000 1.0
C      1  0.4533400000000  0.4555330000000  0.4604080000000 1.0
C      1  0.5490500000000  0.5172890000000  0.4539270000000 1.0
C      1  0.5159190000000  0.5395950000000  0.5613540000000 1.0
C      1  0.4401260000000  0.4490770000000  0.4838910000000 1.0
C      1  0.4989000000000  0.4648710000000  0.4979350000000 1.0
C      1  0.5143160000000  0.4975040000000  0.5472690000000 1.0
END
