TITL C-951348-1603-546 -8.40026140904054e-07 125000 -377.953590695518 0 0 62 (C1) n - 1
REM
REM in /home/bkarasulu/work/CARBON/AIRSS/Generating-Clusters/EDIP-Nigel-Params/with-SteepDescent/Only-C1/SD-CG/HFTN-CG
REM
REM
REM
REM
REM
REM ./C.cell (11c1c37f851c82e70ff6c80c92926a4b)
REM
REM compiler GCC version 9.2.1 20190827 (Red Hat 9.2.1-1)
REM options -cpp -mtune=generic -march=x86-64 -g -O0 -fpre-include=/usr/include/finclude/math-vector-fortran.h
REM seed 829198122 -1037976936 -1827183550 -1009707964 31108910 1972281531 1673523273 -1846637882 140673972 550039019 -207477301 -771692463 -1379901028 -700682273 1887599790 312823510 1939650943 1671816670 -505290560 -846910068 -976973837 884087402 -2082414557 2032585262 282069536 -1581523107 597161958 -1972368777 -1845340530 670630608 630784676 1522040846 868892057
REM
CELL 1.54180   50.00000   50.00000   50.00000   90.00000   90.00000   90.00000
LATT -1
SFAC C  
C      1  0.5311050000000  0.4425440000000  0.5315200000000 1.0
C      1  0.5708510000000  0.4983220000000  0.4795780000000 1.0
C      1  0.4958200000000  0.5149650000000  0.4794530000000 1.0
C      1  0.5195300000000  0.5237800000000  0.4349550000000 1.0
C      1  0.4967760000000  0.5584740000000  0.4661950000000 1.0
C      1  0.4736620000000  0.4619230000000  0.4907710000000 1.0
C      1  0.4572210000000  0.5370050000000  0.4834870000000 1.0
C      1  0.4777190000000  0.5528630000000  0.5294960000000 1.0
C      1  0.5624840000000  0.4769420000000  0.4997600000000 1.0
C      1  0.4854020000000  0.4142570000000  0.5055240000000 1.0
C      1  0.5475620000000  0.5470490000000  0.4743040000000 1.0
C      1  0.4282200000000  0.4870290000000  0.4905840000000 1.0
C      1  0.5035930000000  0.4795790000000  0.5174380000000 1.0
C      1  0.5433770000000  0.5263920000000  0.5550840000000 1.0
C      1  0.5417410000000  0.4541510000000  0.4581160000000 1.0
C      1  0.5601550000000  0.5358850000000  0.5101900000000 1.0
C      1  0.5204060000000  0.5639100000000  0.5341220000000 1.0
C      1  0.4608570000000  0.4205920000000  0.5149790000000 1.0
C      1  0.4974840000000  0.4438070000000  0.4659620000000 1.0
C      1  0.5039240000000  0.4298610000000  0.4914610000000 1.0
C      1  0.4624330000000  0.5348850000000  0.5490930000000 1.0
C      1  0.5518090000000  0.4874950000000  0.5258570000000 1.0
C      1  0.5396280000000  0.4595110000000  0.4872630000000 1.0
C      1  0.5454080000000  0.5284910000000  0.4498380000000 1.0
C      1  0.4741390000000  0.4926470000000  0.4842150000000 1.0
C      1  0.5221060000000  0.5622820000000  0.4825080000000 1.0
C      1  0.4486560000000  0.4920850000000  0.4692120000000 1.0
C      1  0.4543530000000  0.4676110000000  0.4535400000000 1.0
C      1  0.4949360000000  0.5328280000000  0.5067960000000 1.0
C      1  0.5459770000000  0.5014490000000  0.4630720000000 1.0
C      1  0.5270170000000  0.4714160000000  0.5351610000000 1.0
C      1  0.5014890000000  0.5139650000000  0.5532820000000 1.0
C      1  0.4195650000000  0.5112550000000  0.5011770000000 1.0
C      1  0.5189820000000  0.4929000000000  0.4286330000000 1.0
C      1  0.4508560000000  0.4829320000000  0.5364860000000 1.0
C      1  0.5487020000000  0.5165830000000  0.5286690000000 1.0
C      1  0.4680030000000  0.4680170000000  0.5543060000000 1.0
C      1  0.4721080000000  0.5014340000000  0.4224880000000 1.0
C      1  0.5219600000000  0.5019230000000  0.4813510000000 1.0
C      1  0.4912900000000  0.4819080000000  0.4293860000000 1.0
C      1  0.5151110000000  0.4763280000000  0.4902810000000 1.0
C      1  0.4710950000000  0.4978890000000  0.5795280000000 1.0
C      1  0.5187670000000  0.4813790000000  0.5639860000000 1.0
C      1  0.4600080000000  0.5109650000000  0.5294310000000 1.0
C      1  0.4434330000000  0.5251100000000  0.5072580000000 1.0
C      1  0.4792670000000  0.5237700000000  0.5704410000000 1.0
C      1  0.4891310000000  0.4760830000000  0.5728010000000 1.0
C      1  0.5348460000000  0.5531130000000  0.5556250000000 1.0
C      1  0.4812220000000  0.4604560000000  0.4472730000000 1.0
C      1  0.4945420000000  0.5724160000000  0.5404360000000 1.0
C      1  0.4517830000000  0.4426390000000  0.5003360000000 1.0
C      1  0.5421710000000  0.4788260000000  0.4436780000000 1.0
C      1  0.4497480000000  0.5213050000000  0.4593870000000 1.0
C      1  0.4407150000000  0.4688180000000  0.5112980000000 1.0
C      1  0.4726050000000  0.5610420000000  0.4809440000000 1.0
C      1  0.4956060000000  0.5312160000000  0.4528420000000 1.0
C      1  0.5759400000000  0.5253560000000  0.4890580000000 1.0
C      1  0.5300710000000  0.4364850000000  0.5037630000000 1.0
C      1  0.5226310000000  0.5468140000000  0.5092060000000 1.0
C      1  0.4914060000000  0.5077030000000  0.5251150000000 1.0
C      1  0.5328290000000  0.5066740000000  0.5736640000000 1.0
C      1  0.4697690000000  0.5246650000000  0.4383330000000 1.0
END
