TITL C-950521-2237-601 2.41624740779658e-06 125000 -690.150741397562 0 0 112 (C1) n - 1
REM
REM in /home/bkarasulu/work/CARBON/AIRSS/Generating-Clusters/EDIP-Nigel-Params/with-SteepDescent/Only-C1/SD-CG/HFTN-CG
REM
REM
REM
REM
REM
REM ./C.cell (11c1c37f851c82e70ff6c80c92926a4b)
REM
REM compiler GCC version 9.2.1 20190827 (Red Hat 9.2.1-1)
REM options -cpp -mtune=generic -march=x86-64 -g -O0 -fpre-include=/usr/include/finclude/math-vector-fortran.h
REM seed -1457142234 761336176 1161394959 -1001637347 -794756793 793281200 -2003788533 -1771793132 -1203086690 813791370 -833790519 2011568182 -1659458087 2060430797 2112396699 1810084004 1931339817 -283304769 -424308076 -645727840 -416832589 2051964745 -638522610 306928021 -465143452 -1094375511 -104588375 -489963468 -1450306844 984321090 -528585583 -1169283167 739562133
REM
CELL 1.54180   50.00000   50.00000   50.00000   90.00000   90.00000   90.00000
LATT -1
SFAC C  
C      1  0.4769890000000  0.5679220000000  0.5624850000000 1.0
C      1  0.4994500000000  0.5462290000000  0.4348390000000 1.0
C      1  0.4938240000000  0.5901810000000  0.5551990000000 1.0
C      1  0.6026330000000  0.5154230000000  0.5016920000000 1.0
C      1  0.5212990000000  0.5537210000000  0.4721250000000 1.0
C      1  0.5128780000000  0.4007200000000  0.4934700000000 1.0
C      1  0.5835240000000  0.4590190000000  0.5035160000000 1.0
C      1  0.4497620000000  0.4427960000000  0.5486790000000 1.0
C      1  0.4861310000000  0.4709720000000  0.5338460000000 1.0
C      1  0.5581660000000  0.5578970000000  0.5619220000000 1.0
C      1  0.5349560000000  0.5706820000000  0.5764690000000 1.0
C      1  0.4856400000000  0.3938320000000  0.5047500000000 1.0
C      1  0.5353690000000  0.5513760000000  0.4222100000000 1.0
C      1  0.4095940000000  0.5020050000000  0.5387870000000 1.0
C      1  0.5453270000000  0.4368230000000  0.4854370000000 1.0
C      1  0.4777660000000  0.5522860000000  0.4176430000000 1.0
C      1  0.5179690000000  0.4773580000000  0.5748280000000 1.0
C      1  0.5175030000000  0.5479660000000  0.5843000000000 1.0
C      1  0.4330340000000  0.4842550000000  0.5392080000000 1.0
C      1  0.4378900000000  0.4456780000000  0.4601490000000 1.0
C      1  0.5226690000000  0.4276970000000  0.5038850000000 1.0
C      1  0.5142360000000  0.4316730000000  0.5584180000000 1.0
C      1  0.5570870000000  0.5558620000000  0.5070680000000 1.0
C      1  0.4874380000000  0.5510000000000  0.5855680000000 1.0
C      1  0.4798050000000  0.4060490000000  0.5316380000000 1.0
C      1  0.4517590000000  0.5461410000000  0.4179360000000 1.0
C      1  0.4637910000000  0.4060420000000  0.4872520000000 1.0
C      1  0.4539090000000  0.5520310000000  0.4754740000000 1.0
C      1  0.5649110000000  0.5755480000000  0.5396890000000 1.0
C      1  0.4391790000000  0.5239980000000  0.4288530000000 1.0
C      1  0.4962260000000  0.4862350000000  0.4018150000000 1.0
C      1  0.5231490000000  0.5762000000000  0.4307640000000 1.0
C      1  0.4778300000000  0.5188130000000  0.5272110000000 1.0
C      1  0.5025550000000  0.5148400000000  0.4392390000000 1.0
C      1  0.4891720000000  0.5879230000000  0.4683570000000 1.0
C      1  0.6024760000000  0.4973150000000  0.4821030000000 1.0
C      1  0.5548770000000  0.4745390000000  0.4384240000000 1.0
C      1  0.5159970000000  0.5506270000000  0.5210010000000 1.0
C      1  0.5433190000000  0.5073840000000  0.5041780000000 1.0
C      1  0.5576680000000  0.5277550000000  0.5217040000000 1.0
C      1  0.4698020000000  0.4636040000000  0.5592300000000 1.0
C      1  0.5455370000000  0.5836030000000  0.5191720000000 1.0
C      1  0.4525150000000  0.4934670000000  0.5158920000000 1.0
C      1  0.5508340000000  0.5541030000000  0.4767620000000 1.0
C      1  0.4203250000000  0.4935560000000  0.4773060000000 1.0
C      1  0.4578770000000  0.5142380000000  0.5660540000000 1.0
C      1  0.4435210000000  0.4224120000000  0.5030350000000 1.0
C      1  0.4996450000000  0.4992960000000  0.4869430000000 1.0
C      1  0.5154890000000  0.5029430000000  0.4148770000000 1.0
C      1  0.5458180000000  0.4246890000000  0.4580020000000 1.0
C      1  0.5575890000000  0.4811890000000  0.4669930000000 1.0
C      1  0.4640480000000  0.5528790000000  0.5394520000000 1.0
C      1  0.4824780000000  0.4261100000000  0.4738840000000 1.0
C      1  0.4149180000000  0.5439430000000  0.5092400000000 1.0
C      1  0.5709760000000  0.4350870000000  0.4978480000000 1.0
C      1  0.5620500000000  0.5311400000000  0.4613550000000 1.0
C      1  0.5279750000000  0.4444000000000  0.5350890000000 1.0
C      1  0.5211180000000  0.5914640000000  0.5617580000000 1.0
C      1  0.5531420000000  0.5294080000000  0.4321260000000 1.0
C      1  0.4610130000000  0.4695020000000  0.4970530000000 1.0
C      1  0.4989050000000  0.4426050000000  0.4936840000000 1.0
C      1  0.5455430000000  0.4776470000000  0.5629790000000 1.0
C      1  0.5486180000000  0.4454030000000  0.4358400000000 1.0
C      1  0.4242610000000  0.5514690000000  0.4726150000000 1.0
C      1  0.5635320000000  0.5019180000000  0.5623480000000 1.0
C      1  0.5463330000000  0.5089480000000  0.4737130000000 1.0
C      1  0.4288890000000  0.5688700000000  0.5071150000000 1.0
C      1  0.5069920000000  0.5045390000000  0.5795130000000 1.0
C      1  0.5015030000000  0.4526620000000  0.5747260000000 1.0
C      1  0.4758940000000  0.4842400000000  0.4217220000000 1.0
C      1  0.4783450000000  0.4817660000000  0.4750050000000 1.0
C      1  0.5223790000000  0.4840380000000  0.5034770000000 1.0
C      1  0.5203450000000  0.5266130000000  0.5635420000000 1.0
C      1  0.5169470000000  0.5103050000000  0.4653670000000 1.0
C      1  0.4383080000000  0.5095140000000  0.4948330000000 1.0
C      1  0.5453690000000  0.4995980000000  0.4214010000000 1.0
C      1  0.4145970000000  0.4661130000000  0.4834600000000 1.0
C      1  0.5833970000000  0.4951900000000  0.5411150000000 1.0
C      1  0.5020400000000  0.5495820000000  0.4959500000000 1.0
C      1  0.4573980000000  0.5704240000000  0.5155020000000 1.0
C      1  0.4997060000000  0.4093940000000  0.5507400000000 1.0
C      1  0.4785790000000  0.4280490000000  0.4350000000000 1.0
C      1  0.4520880000000  0.4995360000000  0.4229060000000 1.0
C      1  0.5501110000000  0.5282540000000  0.5535890000000 1.0
C      1  0.4657890000000  0.4444390000000  0.4546010000000 1.0
C      1  0.5869510000000  0.5193100000000  0.5243230000000 1.0
C      1  0.5151890000000  0.4592500000000  0.4491030000000 1.0
C      1  0.4216930000000  0.5267220000000  0.5320100000000 1.0
C      1  0.4787820000000  0.4523410000000  0.5129440000000 1.0
C      1  0.4706990000000  0.5684430000000  0.4595300000000 1.0
C      1  0.4845490000000  0.5749270000000  0.4972790000000 1.0
C      1  0.5152620000000  0.4719420000000  0.5309620000000 1.0
C      1  0.5162150000000  0.5792950000000  0.4588260000000 1.0
C      1  0.5347800000000  0.4643080000000  0.4784970000000 1.0
C      1  0.5070220000000  0.4305750000000  0.4380150000000 1.0
C      1  0.4911200000000  0.4797760000000  0.4475450000000 1.0
C      1  0.4264230000000  0.4558730000000  0.5392410000000 1.0
C      1  0.4797000000000  0.5207590000000  0.5849680000000 1.0
C      1  0.4602400000000  0.5252610000000  0.4825080000000 1.0
C      1  0.5030750000000  0.5328890000000  0.5397140000000 1.0
C      1  0.5158000000000  0.5802410000000  0.5251140000000 1.0
C      1  0.4850000000000  0.5233310000000  0.4978980000000 1.0
C      1  0.4435550000000  0.5343320000000  0.5496490000000 1.0
C      1  0.5544770000000  0.4561930000000  0.5444960000000 1.0
C      1  0.5854020000000  0.4755300000000  0.4790870000000 1.0
C      1  0.5715780000000  0.4720610000000  0.5267890000000 1.0
C      1  0.4497180000000  0.4868870000000  0.5639100000000 1.0
C      1  0.4624900000000  0.4296490000000  0.5253880000000 1.0
C      1  0.4380960000000  0.4498310000000  0.4889550000000 1.0
C      1  0.4190190000000  0.5291770000000  0.4509390000000 1.0
C      1  0.4037500000000  0.5072040000000  0.4596170000000 1.0
C      1  0.5191140000000  0.4109310000000  0.4577540000000 1.0
END
