TITL C-951340-9809-181 5.86944613720726e-07 125000 -1101.50030697276 0 0 176 (C1) n - 1
REM
REM in /home/bkarasulu/work/CARBON/AIRSS/Generating-Clusters/EDIP-Nigel-Params/with-SteepDescent/Only-C1/SD-CG/HFTN-CG
REM
REM
REM
REM
REM
REM ./C.cell (11c1c37f851c82e70ff6c80c92926a4b)
REM
REM compiler GCC version 9.2.1 20190827 (Red Hat 9.2.1-1)
REM options -cpp -mtune=generic -march=x86-64 -g -O0 -fpre-include=/usr/include/finclude/math-vector-fortran.h
REM seed 1541018582 1157688915 -1849830951 -160977998 1950935313 -1452769578 688058300 -571593059 -1164209410 -1453302947 1196316854 -1770228773 -476852989 -1407905570 -2074394801 -1555616449 1556781611 -828974176 2014775301 1653501396 2035226150 -1656124555 1890893356 -62531060 -1929532948 -2061946623 1279393878 -1120224598 968853856 2121784793 -1291571282 1157553554 1383055271
REM
CELL 1.54180   50.00000   50.00000   50.00000   90.00000   90.00000   90.00000
LATT -1
SFAC C  
C      1  0.5046860000000  0.4810270000000  0.5094500000000 1.0
C      1  0.5407570000000  0.5002290000000  0.4715010000000 1.0
C      1  0.4348670000000  0.4663540000000  0.4112370000000 1.0
C      1  0.4524350000000  0.5856440000000  0.4703290000000 1.0
C      1  0.5079960000000  0.4785680000000  0.3975530000000 1.0
C      1  0.4508280000000  0.5385770000000  0.4502620000000 1.0
C      1  0.5058920000000  0.4968070000000  0.5628720000000 1.0
C      1  0.4664140000000  0.5940550000000  0.4462500000000 1.0
C      1  0.5085260000000  0.3915170000000  0.5515360000000 1.0
C      1  0.4431120000000  0.6049530000000  0.4887630000000 1.0
C      1  0.4601330000000  0.5178650000000  0.5510900000000 1.0
C      1  0.5316100000000  0.6000970000000  0.4899090000000 1.0
C      1  0.4240310000000  0.5781080000000  0.4684970000000 1.0
C      1  0.4291260000000  0.4937610000000  0.5809680000000 1.0
C      1  0.5277230000000  0.5535720000000  0.5539240000000 1.0
C      1  0.5285520000000  0.5909550000000  0.4171520000000 1.0
C      1  0.5374790000000  0.5832250000000  0.4661390000000 1.0
C      1  0.5716770000000  0.4101300000000  0.5095240000000 1.0
C      1  0.5372710000000  0.4248460000000  0.5767960000000 1.0
C      1  0.5728150000000  0.5257730000000  0.5490890000000 1.0
C      1  0.4646450000000  0.5420920000000  0.4944980000000 1.0
C      1  0.4479400000000  0.5357520000000  0.5956440000000 1.0
C      1  0.4891730000000  0.4031200000000  0.4528950000000 1.0
C      1  0.4322900000000  0.5688350000000  0.4172820000000 1.0
C      1  0.4855960000000  0.5795650000000  0.5530900000000 1.0
C      1  0.5762640000000  0.5813400000000  0.4946850000000 1.0
C      1  0.5543700000000  0.4821920000000  0.4055950000000 1.0
C      1  0.3878610000000  0.4695400000000  0.5192920000000 1.0
C      1  0.5536890000000  0.4046130000000  0.5326320000000 1.0
C      1  0.5205930000000  0.4847540000000  0.4246000000000 1.0
C      1  0.5267490000000  0.5553290000000  0.4733700000000 1.0
C      1  0.4059970000000  0.4725620000000  0.4489750000000 1.0
C      1  0.5553970000000  0.5998140000000  0.5071220000000 1.0
C      1  0.5340120000000  0.4218240000000  0.4487450000000 1.0
C      1  0.5010690000000  0.5025060000000  0.3839060000000 1.0
C      1  0.5221550000000  0.5282560000000  0.5121140000000 1.0
C      1  0.5467850000000  0.4539760000000  0.4802200000000 1.0
C      1  0.5102710000000  0.5830530000000  0.3980690000000 1.0
C      1  0.4932110000000  0.6066700000000  0.5441680000000 1.0
C      1  0.5673690000000  0.5762700000000  0.4654950000000 1.0
C      1  0.4168560000000  0.5597130000000  0.5135740000000 1.0
C      1  0.5027820000000  0.4282510000000  0.5126330000000 1.0
C      1  0.5046100000000  0.5990070000000  0.5016260000000 1.0
C      1  0.4171450000000  0.5528180000000  0.4836780000000 1.0
C      1  0.3825490000000  0.4832290000000  0.4930620000000 1.0
C      1  0.5261100000000  0.3937840000000  0.5271790000000 1.0
C      1  0.5590480000000  0.4197380000000  0.5577770000000 1.0
C      1  0.4799770000000  0.5381870000000  0.4444700000000 1.0
C      1  0.4025730000000  0.4440740000000  0.5137570000000 1.0
C      1  0.5832450000000  0.4390160000000  0.4594330000000 1.0
C      1  0.5541340000000  0.4583110000000  0.4228470000000 1.0
C      1  0.6103870000000  0.5353750000000  0.4798460000000 1.0
C      1  0.5332790000000  0.4731260000000  0.4588360000000 1.0
C      1  0.4944720000000  0.5171340000000  0.4609400000000 1.0
C      1  0.5354170000000  0.5042490000000  0.5700770000000 1.0
C      1  0.5785750000000  0.4420030000000  0.5580160000000 1.0
C      1  0.4813440000000  0.4460930000000  0.5534610000000 1.0
C      1  0.4665240000000  0.4424370000000  0.4425920000000 1.0
C      1  0.5076620000000  0.5696180000000  0.5698900000000 1.0
C      1  0.4496700000000  0.4997590000000  0.4295490000000 1.0
C      1  0.4050190000000  0.4411250000000  0.4848690000000 1.0
C      1  0.4349990000000  0.4535670000000  0.5505250000000 1.0
C      1  0.5042950000000  0.4696800000000  0.4620470000000 1.0
C      1  0.4198080000000  0.4525230000000  0.4328860000000 1.0
C      1  0.5569580000000  0.4277230000000  0.4662820000000 1.0
C      1  0.5384440000000  0.4525340000000  0.5874590000000 1.0
C      1  0.5026520000000  0.4876820000000  0.6053200000000 1.0
C      1  0.4587890000000  0.4833200000000  0.4607210000000 1.0
C      1  0.5651960000000  0.4698460000000  0.5038590000000 1.0
C      1  0.5577030000000  0.4058000000000  0.4855310000000 1.0
C      1  0.5100240000000  0.4634690000000  0.5912170000000 1.0
C      1  0.4709200000000  0.3999000000000  0.5240310000000 1.0
C      1  0.5047430000000  0.5221360000000  0.4039800000000 1.0
C      1  0.4618210000000  0.4548970000000  0.5957790000000 1.0
C      1  0.5818210000000  0.5314050000000  0.4752070000000 1.0
C      1  0.4936970000000  0.5803950000000  0.4454400000000 1.0
C      1  0.4658860000000  0.4651860000000  0.4213210000000 1.0
C      1  0.4455960000000  0.4144530000000  0.5174690000000 1.0
C      1  0.4910840000000  0.4446690000000  0.4690190000000 1.0
C      1  0.4611960000000  0.4659730000000  0.5425560000000 1.0
C      1  0.5061500000000  0.4349670000000  0.5428390000000 1.0
C      1  0.4811400000000  0.3871370000000  0.5466630000000 1.0
C      1  0.5466840000000  0.5963260000000  0.5352350000000 1.0
C      1  0.4099060000000  0.5122990000000  0.5206470000000 1.0
C      1  0.4541960000000  0.5390270000000  0.5255550000000 1.0
C      1  0.5674000000000  0.5380960000000  0.5011260000000 1.0
C      1  0.5386500000000  0.5495240000000  0.5020820000000 1.0
C      1  0.4916580000000  0.5248080000000  0.5585680000000 1.0
C      1  0.5205320000000  0.5953680000000  0.4443320000000 1.0
C      1  0.4070440000000  0.5394400000000  0.5324450000000 1.0
C      1  0.5535860000000  0.5114840000000  0.4119230000000 1.0
C      1  0.5886340000000  0.5575370000000  0.5141010000000 1.0
C      1  0.4821210000000  0.4989180000000  0.5086280000000 1.0
C      1  0.6003970000000  0.5062130000000  0.5153360000000 1.0
C      1  0.4799330000000  0.5286160000000  0.4166110000000 1.0
C      1  0.5981810000000  0.4768840000000  0.4314790000000 1.0
C      1  0.5290780000000  0.4414090000000  0.4282810000000 1.0
C      1  0.4945800000000  0.5450050000000  0.5838100000000 1.0
C      1  0.5200450000000  0.5356970000000  0.5997710000000 1.0
C      1  0.5651850000000  0.4654810000000  0.5716000000000 1.0
C      1  0.3910660000000  0.4636100000000  0.4719080000000 1.0
C      1  0.4836980000000  0.3909890000000  0.4999160000000 1.0
C      1  0.5513670000000  0.4469260000000  0.5241460000000 1.0
C      1  0.4395410000000  0.5115660000000  0.5122130000000 1.0
C      1  0.5524850000000  0.4865750000000  0.5515610000000 1.0
C      1  0.6120010000000  0.5343170000000  0.5076640000000 1.0
C      1  0.5098860000000  0.4164160000000  0.5687210000000 1.0
C      1  0.4607700000000  0.5746150000000  0.5700910000000 1.0
C      1  0.4965380000000  0.5608170000000  0.4713230000000 1.0
C      1  0.5692750000000  0.5005830000000  0.6048880000000 1.0
C      1  0.5974210000000  0.4471550000000  0.4834830000000 1.0
C      1  0.4267570000000  0.4356650000000  0.5286250000000 1.0
C      1  0.5109730000000  0.4175360000000  0.4683320000000 1.0
C      1  0.4541500000000  0.5293390000000  0.4046620000000 1.0
C      1  0.4867460000000  0.4449690000000  0.5833640000000 1.0
C      1  0.4167570000000  0.4759380000000  0.5597130000000 1.0
C      1  0.4850150000000  0.5606260000000  0.5281140000000 1.0
C      1  0.4760850000000  0.6141230000000  0.5223850000000 1.0
C      1  0.5487980000000  0.5664170000000  0.5355720000000 1.0
C      1  0.4671790000000  0.5552710000000  0.5917980000000 1.0
C      1  0.3996830000000  0.4966330000000  0.4343600000000 1.0
C      1  0.4695020000000  0.4008920000000  0.4766800000000 1.0
C      1  0.4003560000000  0.4888270000000  0.5381200000000 1.0
C      1  0.5831750000000  0.4883110000000  0.5834570000000 1.0
C      1  0.5900690000000  0.4476930000000  0.5328800000000 1.0
C      1  0.4371770000000  0.5681720000000  0.5540160000000 1.0
C      1  0.4219950000000  0.4953770000000  0.4144450000000 1.0
C      1  0.5026080000000  0.4347000000000  0.4139670000000 1.0
C      1  0.4972790000000  0.5689100000000  0.4181050000000 1.0
C      1  0.4805360000000  0.4196200000000  0.4293390000000 1.0
C      1  0.4404250000000  0.5340470000000  0.4788510000000 1.0
C      1  0.5250230000000  0.5222780000000  0.4557850000000 1.0
C      1  0.4682410000000  0.4876600000000  0.5618230000000 1.0
C      1  0.4519100000000  0.5992690000000  0.5150020000000 1.0
C      1  0.4379760000000  0.4355730000000  0.4483450000000 1.0
C      1  0.5888000000000  0.5008390000000  0.4431930000000 1.0
C      1  0.4371960000000  0.5229350000000  0.5723580000000 1.0
C      1  0.5206040000000  0.5090410000000  0.6141320000000 1.0
C      1  0.4545620000000  0.4650470000000  0.4849280000000 1.0
C      1  0.5294700000000  0.4556650000000  0.5455970000000 1.0
C      1  0.3952620000000  0.5100650000000  0.4948010000000 1.0
C      1  0.5937030000000  0.5078450000000  0.5622270000000 1.0
C      1  0.5901860000000  0.4332710000000  0.5085780000000 1.0
C      1  0.5417180000000  0.4939820000000  0.5979750000000 1.0
C      1  0.5332590000000  0.4307000000000  0.5035740000000 1.0
C      1  0.4855550000000  0.5758210000000  0.4978760000000 1.0
C      1  0.4863530000000  0.4894950000000  0.4519940000000 1.0
C      1  0.5758940000000  0.5020300000000  0.4700240000000 1.0
C      1  0.5724060000000  0.5492240000000  0.4534910000000 1.0
C      1  0.5720570000000  0.5151040000000  0.5209610000000 1.0
C      1  0.4849490000000  0.5214930000000  0.4895840000000 1.0
C      1  0.5382220000000  0.5341350000000  0.5747890000000 1.0
C      1  0.4345290000000  0.4392440000000  0.4770940000000 1.0
C      1  0.5067260000000  0.5395550000000  0.5356690000000 1.0
C      1  0.5129110000000  0.3928580000000  0.4985790000000 1.0
C      1  0.5113950000000  0.4788400000000  0.5385010000000 1.0
C      1  0.4564330000000  0.4839200000000  0.5121090000000 1.0
C      1  0.4202710000000  0.5442750000000  0.5586660000000 1.0
C      1  0.5910080000000  0.4839670000000  0.4911680000000 1.0
C      1  0.5762450000000  0.5552870000000  0.5423920000000 1.0
C      1  0.5757520000000  0.5222080000000  0.4282270000000 1.0
C      1  0.5527970000000  0.4923950000000  0.5193300000000 1.0
C      1  0.3951300000000  0.5208070000000  0.4485540000000 1.0
C      1  0.4458190000000  0.4148250000000  0.4886140000000 1.0
C      1  0.4882020000000  0.4519400000000  0.4991280000000 1.0
C      1  0.4350710000000  0.5782440000000  0.5272340000000 1.0
C      1  0.4362460000000  0.5417180000000  0.4240580000000 1.0
C      1  0.4879860000000  0.4577310000000  0.4011430000000 1.0
C      1  0.4564500000000  0.4820390000000  0.5888440000000 1.0
C      1  0.4495280000000  0.5884360000000  0.4245620000000 1.0
C      1  0.5789550000000  0.4578920000000  0.4381640000000 1.0
C      1  0.5292020000000  0.5005980000000  0.5021520000000 1.0
C      1  0.6091200000000  0.4960270000000  0.5412210000000 1.0
C      1  0.5263450000000  0.5147960000000  0.4241360000000 1.0
C      1  0.5214210000000  0.6083370000000  0.5410160000000 1.0
C      1  0.3963140000000  0.5313830000000  0.4746750000000 1.0
END
