TITL C-951334-9093-253 -1.32952679774962e-06 125000 -408.520952911796 0 0 68 (C1) n - 1
REM
REM in /home/bkarasulu/work/CARBON/AIRSS/Generating-Clusters/EDIP-Nigel-Params/with-SteepDescent/Only-C1/SD-CG/HFTN-CG
REM
REM
REM
REM
REM
REM ./C.cell (11c1c37f851c82e70ff6c80c92926a4b)
REM
REM compiler GCC version 9.2.1 20190827 (Red Hat 9.2.1-1)
REM options -cpp -mtune=generic -march=x86-64 -g -O0 -fpre-include=/usr/include/finclude/math-vector-fortran.h
REM seed -350283410 249199130 1460197083 1413885997 -1674121963 156208073 -572927852 1427636192 865742057 1641844967 777125642 1201366234 -2298199 1649333786 -1128340571 -711901324 49804193 464561773 759539771 -1878885465 1809655189 -674368428 1781188925 -1213972395 1457273287 -369358662 1879487491 1904406408 -72623289 1989279771 -1239475890 810921322 601618906
REM
CELL 1.54180   50.00000   50.00000   50.00000   90.00000   90.00000   90.00000
LATT -1
SFAC C  
C      1  0.4533950000000  0.4407600000000  0.5405980000000 1.0
C      1  0.5160730000000  0.4543510000000  0.5195760000000 1.0
C      1  0.5379820000000  0.4685070000000  0.5604140000000 1.0
C      1  0.5590500000000  0.5182230000000  0.4994200000000 1.0
C      1  0.5567660000000  0.4878950000000  0.4625840000000 1.0
C      1  0.5227450000000  0.4848760000000  0.4808390000000 1.0
C      1  0.5139590000000  0.5344720000000  0.4644150000000 1.0
C      1  0.5241360000000  0.5437210000000  0.5301560000000 1.0
C      1  0.5597880000000  0.4658220000000  0.5082800000000 1.0
C      1  0.5542960000000  0.5390480000000  0.4794400000000 1.0
C      1  0.4958060000000  0.5041010000000  0.5144580000000 1.0
C      1  0.5532330000000  0.5143680000000  0.5731680000000 1.0
C      1  0.4709430000000  0.5235530000000  0.4685580000000 1.0
C      1  0.5183860000000  0.4863180000000  0.5712140000000 1.0
C      1  0.5512140000000  0.4413660000000  0.4915970000000 1.0
C      1  0.4833790000000  0.4530020000000  0.5618730000000 1.0
C      1  0.4897570000000  0.4786360000000  0.5737510000000 1.0
C      1  0.5374310000000  0.5607260000000  0.4880300000000 1.0
C      1  0.5530080000000  0.4414400000000  0.4634250000000 1.0
C      1  0.4899200000000  0.5487560000000  0.4306030000000 1.0
C      1  0.4704750000000  0.4952250000000  0.5306290000000 1.0
C      1  0.4620130000000  0.5240870000000  0.5716560000000 1.0
C      1  0.5132740000000  0.4936750000000  0.4550270000000 1.0
C      1  0.4383190000000  0.5311660000000  0.5286330000000 1.0
C      1  0.5393190000000  0.4679920000000  0.5317310000000 1.0
C      1  0.4548750000000  0.4749820000000  0.4435250000000 1.0
C      1  0.4934190000000  0.5782690000000  0.4705610000000 1.0
C      1  0.5586660000000  0.5268430000000  0.5265000000000 1.0
C      1  0.5275340000000  0.4676680000000  0.4298960000000 1.0
C      1  0.5116980000000  0.5323830000000  0.5869290000000 1.0
C      1  0.4647680000000  0.5702730000000  0.4679420000000 1.0
C      1  0.5028650000000  0.5225240000000  0.4233510000000 1.0
C      1  0.5321730000000  0.5178380000000  0.4311490000000 1.0
C      1  0.4977120000000  0.4415460000000  0.5395910000000 1.0
C      1  0.4799050000000  0.5598260000000  0.5431350000000 1.0
C      1  0.4775330000000  0.4739170000000  0.4231960000000 1.0
C      1  0.5007620000000  0.4572180000000  0.4337870000000 1.0
C      1  0.4244360000000  0.5064920000000  0.5327440000000 1.0
C      1  0.4403080000000  0.5397020000000  0.5007090000000 1.0
C      1  0.5257840000000  0.4320240000000  0.5026080000000 1.0
C      1  0.4568040000000  0.5427600000000  0.5497710000000 1.0
C      1  0.4757070000000  0.4271120000000  0.5266680000000 1.0
C      1  0.5006180000000  0.5582430000000  0.5224340000000 1.0
C      1  0.4694240000000  0.4974770000000  0.5611440000000 1.0
C      1  0.4962030000000  0.4454130000000  0.4597570000000 1.0
C      1  0.5654120000000  0.4905730000000  0.4904280000000 1.0
C      1  0.4446950000000  0.5178120000000  0.4813580000000 1.0
C      1  0.4932700000000  0.5288890000000  0.4906780000000 1.0
C      1  0.5465650000000  0.5092140000000  0.5456290000000 1.0
C      1  0.5158880000000  0.5164730000000  0.5387830000000 1.0
C      1  0.5080640000000  0.5624360000000  0.4497520000000 1.0
C      1  0.5029100000000  0.4756170000000  0.5002550000000 1.0
C      1  0.4522600000000  0.5638440000000  0.4925570000000 1.0
C      1  0.4813060000000  0.4571700000000  0.4831910000000 1.0
C      1  0.4823940000000  0.4991520000000  0.4544570000000 1.0
C      1  0.4778310000000  0.4287430000000  0.4965120000000 1.0
C      1  0.4556130000000  0.4697720000000  0.4726560000000 1.0
C      1  0.5502230000000  0.5303230000000  0.4513670000000 1.0
C      1  0.5090030000000  0.5657240000000  0.4941270000000 1.0
C      1  0.4864450000000  0.5007000000000  0.4134260000000 1.0
C      1  0.4423870000000  0.4899240000000  0.4903660000000 1.0
C      1  0.4980110000000  0.5309890000000  0.5614630000000 1.0
C      1  0.5282630000000  0.5097720000000  0.5855920000000 1.0
C      1  0.5048450000000  0.4194610000000  0.4867540000000 1.0
C      1  0.4431010000000  0.4875570000000  0.5203150000000 1.0
C      1  0.5509710000000  0.4641780000000  0.4471540000000 1.0
C      1  0.4382200000000  0.4604140000000  0.5284310000000 1.0
C      1  0.4664640000000  0.5466670000000  0.4492780000000 1.0
END
