TITL C-950521-2237-617 -3.02938417357429e-06 125000 -699.713617495768 0 0 113 (C1) n - 1
REM
REM in /home/bkarasulu/work/CARBON/AIRSS/Generating-Clusters/EDIP-Nigel-Params/with-SteepDescent/Only-C1/SD-CG/HFTN-CG
REM
REM
REM
REM
REM
REM ./C.cell (11c1c37f851c82e70ff6c80c92926a4b)
REM
REM compiler GCC version 9.2.1 20190827 (Red Hat 9.2.1-1)
REM options -cpp -mtune=generic -march=x86-64 -g -O0 -fpre-include=/usr/include/finclude/math-vector-fortran.h
REM seed 667941673 1607021426 332407421 -336462514 -631929824 -984839629 -1639807809 -873108703 2105155128 -820553947 -1979740224 -684745810 237179060 -1295228061 996329747 -899596773 -1084275140 -896283134 466594476 419728306 -1139087960 -318901312 1340219164 2071688850 843766968 -712477296 -1494994724 573771433 1836728339 326148851 1647778820 -1459172710 37532659
REM
CELL 1.54180   50.00000   50.00000   50.00000   90.00000   90.00000   90.00000
LATT -1
SFAC C  
C      1  0.5203070000000  0.5311560000000  0.5765660000000 1.0
C      1  0.5847620000000  0.5138400000000  0.4770750000000 1.0
C      1  0.5342030000000  0.4334790000000  0.4879580000000 1.0
C      1  0.5286180000000  0.5127320000000  0.5959110000000 1.0
C      1  0.5170500000000  0.4159840000000  0.5043970000000 1.0
C      1  0.4567590000000  0.5292120000000  0.4276090000000 1.0
C      1  0.5404530000000  0.5981730000000  0.5106050000000 1.0
C      1  0.5007370000000  0.4591080000000  0.4103630000000 1.0
C      1  0.4922140000000  0.4101610000000  0.4891600000000 1.0
C      1  0.5929120000000  0.4438700000000  0.4559990000000 1.0
C      1  0.4879520000000  0.4700170000000  0.5257910000000 1.0
C      1  0.5126550000000  0.4333680000000  0.5546290000000 1.0
C      1  0.5933230000000  0.4657580000000  0.4731570000000 1.0
C      1  0.5264220000000  0.4518810000000  0.4369320000000 1.0
C      1  0.5551760000000  0.4589710000000  0.4310060000000 1.0
C      1  0.4483940000000  0.5018910000000  0.4186840000000 1.0
C      1  0.5138400000000  0.5278010000000  0.5387450000000 1.0
C      1  0.4632010000000  0.5658790000000  0.5162380000000 1.0
C      1  0.4854540000000  0.4460850000000  0.5030780000000 1.0
C      1  0.4447980000000  0.5411260000000  0.5481260000000 1.0
C      1  0.4500560000000  0.4970150000000  0.5436870000000 1.0
C      1  0.5557000000000  0.5360430000000  0.4409830000000 1.0
C      1  0.5297760000000  0.4573760000000  0.5522240000000 1.0
C      1  0.5816560000000  0.5377670000000  0.5236600000000 1.0
C      1  0.4567250000000  0.4759870000000  0.4324220000000 1.0
C      1  0.5743960000000  0.4396670000000  0.4370940000000 1.0
C      1  0.4744050000000  0.4517760000000  0.4215430000000 1.0
C      1  0.4565450000000  0.5767940000000  0.4616210000000 1.0
C      1  0.4450450000000  0.5645090000000  0.5629660000000 1.0
C      1  0.4771520000000  0.5348970000000  0.4750110000000 1.0
C      1  0.4323960000000  0.4907560000000  0.5677340000000 1.0
C      1  0.4655100000000  0.5198050000000  0.5480350000000 1.0
C      1  0.5846430000000  0.4601690000000  0.5003160000000 1.0
C      1  0.4956460000000  0.4200870000000  0.4613270000000 1.0
C      1  0.5511190000000  0.4547120000000  0.5312540000000 1.0
C      1  0.5342770000000  0.5048000000000  0.5368580000000 1.0
C      1  0.4398350000000  0.4392060000000  0.4879510000000 1.0
C      1  0.5758490000000  0.5626940000000  0.5081100000000 1.0
C      1  0.4112800000000  0.5139200000000  0.5321590000000 1.0
C      1  0.4386540000000  0.5561980000000  0.4702040000000 1.0
C      1  0.4670630000000  0.4206710000000  0.5541650000000 1.0
C      1  0.5479680000000  0.5763990000000  0.4669190000000 1.0
C      1  0.4859330000000  0.4369300000000  0.5666110000000 1.0
C      1  0.5634830000000  0.4878030000000  0.5649740000000 1.0
C      1  0.5684230000000  0.4765190000000  0.5385210000000 1.0
C      1  0.5240490000000  0.4923580000000  0.4686360000000 1.0
C      1  0.5472620000000  0.5095910000000  0.4308410000000 1.0
C      1  0.4604280000000  0.4257950000000  0.5048950000000 1.0
C      1  0.4099390000000  0.5223120000000  0.4881310000000 1.0
C      1  0.5051040000000  0.5729770000000  0.4550100000000 1.0
C      1  0.4876050000000  0.4611270000000  0.4747210000000 1.0
C      1  0.5742080000000  0.5374260000000  0.4637880000000 1.0
C      1  0.4213750000000  0.5315100000000  0.5118120000000 1.0
C      1  0.5218250000000  0.5392310000000  0.5098830000000 1.0
C      1  0.4401560000000  0.4549120000000  0.5331860000000 1.0
C      1  0.4727430000000  0.4362510000000  0.4483200000000 1.0
C      1  0.5737410000000  0.4878800000000  0.4671170000000 1.0
C      1  0.5587870000000  0.5806420000000  0.5248010000000 1.0
C      1  0.4472590000000  0.5138310000000  0.4809370000000 1.0
C      1  0.4933540000000  0.5612880000000  0.5580770000000 1.0
C      1  0.5632970000000  0.4864860000000  0.4387710000000 1.0
C      1  0.5593020000000  0.5164080000000  0.5641990000000 1.0
C      1  0.5206980000000  0.4349390000000  0.4614570000000 1.0
C      1  0.5419480000000  0.4700200000000  0.5778050000000 1.0
C      1  0.4783260000000  0.5199520000000  0.4477940000000 1.0
C      1  0.5039760000000  0.4899860000000  0.4154640000000 1.0
C      1  0.4024690000000  0.4863040000000  0.5316810000000 1.0
C      1  0.4546110000000  0.4834950000000  0.5858850000000 1.0
C      1  0.5669810000000  0.5595330000000  0.4803670000000 1.0
C      1  0.4868730000000  0.5188010000000  0.5271520000000 1.0
C      1  0.5126490000000  0.4804890000000  0.5437300000000 1.0
C      1  0.4675750000000  0.5719340000000  0.5463430000000 1.0
C      1  0.4407200000000  0.5518030000000  0.5008880000000 1.0
C      1  0.4358500000000  0.4651110000000  0.5031910000000 1.0
C      1  0.3997350000000  0.4955950000000  0.4833170000000 1.0
C      1  0.4984780000000  0.4873050000000  0.5708450000000 1.0
C      1  0.4071910000000  0.4873200000000  0.4564430000000 1.0
C      1  0.5109550000000  0.5558900000000  0.4333070000000 1.0
C      1  0.4326740000000  0.5373840000000  0.4464430000000 1.0
C      1  0.5471870000000  0.5092890000000  0.5075600000000 1.0
C      1  0.4755110000000  0.4663600000000  0.5716460000000 1.0
C      1  0.5033640000000  0.4836060000000  0.4865580000000 1.0
C      1  0.4721080000000  0.4883440000000  0.4560210000000 1.0
C      1  0.4816800000000  0.5662270000000  0.4719840000000 1.0
C      1  0.4576410000000  0.4879910000000  0.4931300000000 1.0
C      1  0.5156430000000  0.4167740000000  0.5323790000000 1.0
C      1  0.4854520000000  0.5751170000000  0.4999630000000 1.0
C      1  0.4774510000000  0.5130760000000  0.5748640000000 1.0
C      1  0.5206270000000  0.4862140000000  0.5912740000000 1.0
C      1  0.5617120000000  0.5383600000000  0.5453200000000 1.0
C      1  0.5474640000000  0.5644610000000  0.5465860000000 1.0
C      1  0.4843070000000  0.4936370000000  0.5081850000000 1.0
C      1  0.5075630000000  0.5266800000000  0.4388500000000 1.0
C      1  0.4327090000000  0.4626570000000  0.4450450000000 1.0
C      1  0.5044220000000  0.5275570000000  0.4876520000000 1.0
C      1  0.5136820000000  0.5705020000000  0.5096250000000 1.0
C      1  0.4497030000000  0.4262150000000  0.5332800000000 1.0
C      1  0.4641280000000  0.4706170000000  0.5431910000000 1.0
C      1  0.5196920000000  0.5695840000000  0.5514300000000 1.0
C      1  0.5262320000000  0.5074240000000  0.4111210000000 1.0
C      1  0.5483740000000  0.4850100000000  0.4860440000000 1.0
C      1  0.5524560000000  0.4552000000000  0.5008000000000 1.0
C      1  0.4316790000000  0.5056780000000  0.4537400000000 1.0
C      1  0.4443500000000  0.4397450000000  0.4590200000000 1.0
C      1  0.4936790000000  0.5387960000000  0.5768210000000 1.0
C      1  0.5214490000000  0.5211230000000  0.4649940000000 1.0
C      1  0.5401070000000  0.5628020000000  0.4401010000000 1.0
C      1  0.4171600000000  0.4688090000000  0.5518210000000 1.0
C      1  0.5881120000000  0.4848480000000  0.5184720000000 1.0
C      1  0.5785160000000  0.5125120000000  0.5070310000000 1.0
C      1  0.5318850000000  0.5924260000000  0.4841470000000 1.0
C      1  0.5121090000000  0.4781400000000  0.4435690000000 1.0
C      1  0.4069390000000  0.4753410000000  0.5041630000000 1.0
END
