TITL C-951348-1603-73 -2.83411095434883e-06 125000 -398.828779807851 0 0 66 (C1) n - 1
REM
REM in /home/bkarasulu/work/CARBON/AIRSS/Generating-Clusters/EDIP-Nigel-Params/with-SteepDescent/Only-C1/SD-CG/HFTN-CG
REM
REM
REM
REM
REM
REM ./C.cell (11c1c37f851c82e70ff6c80c92926a4b)
REM
REM compiler GCC version 9.2.1 20190827 (Red Hat 9.2.1-1)
REM options -cpp -mtune=generic -march=x86-64 -g -O0 -fpre-include=/usr/include/finclude/math-vector-fortran.h
REM seed -795928125 -658696590 -321972012 2023382398 548006840 447444927 -1596761634 554352325 1091970356 -300554529 715956723 -740660381 -425717150 -204931129 1541288498 -167995312 -1909195308 -102704277 1482633136 1079877995 1520172782 -2132162768 1828024934 884093647 667554442 -1837454485 490598745 1091529631 -684012037 1638850104 1642308108 1178767856 -156238602
REM
CELL 1.54180   50.00000   50.00000   50.00000   90.00000   90.00000   90.00000
LATT -1
SFAC C  
C      1  0.4600170000000  0.4850720000000  0.4410140000000 1.0
C      1  0.5549550000000  0.5402000000000  0.5094780000000 1.0
C      1  0.5589550000000  0.4670400000000  0.4922110000000 1.0
C      1  0.5259320000000  0.5700940000000  0.4817840000000 1.0
C      1  0.5591710000000  0.5168710000000  0.4923160000000 1.0
C      1  0.4181870000000  0.4945000000000  0.4762550000000 1.0
C      1  0.5325850000000  0.5326110000000  0.4473220000000 1.0
C      1  0.5032900000000  0.4961900000000  0.4742390000000 1.0
C      1  0.5116510000000  0.4439730000000  0.5703130000000 1.0
C      1  0.5227760000000  0.5491930000000  0.5473020000000 1.0
C      1  0.4768720000000  0.4467660000000  0.4552190000000 1.0
C      1  0.5523470000000  0.4673690000000  0.5485150000000 1.0
C      1  0.4403000000000  0.4810280000000  0.5273630000000 1.0
C      1  0.5062980000000  0.5089630000000  0.5396630000000 1.0
C      1  0.4333560000000  0.5187550000000  0.4782700000000 1.0
C      1  0.4790730000000  0.4335690000000  0.5013960000000 1.0
C      1  0.5253520000000  0.4259160000000  0.4564270000000 1.0
C      1  0.4710880000000  0.5582140000000  0.4774200000000 1.0
C      1  0.4625210000000  0.5120330000000  0.4806120000000 1.0
C      1  0.4384730000000  0.5105570000000  0.5274890000000 1.0
C      1  0.4743240000000  0.4631550000000  0.5053570000000 1.0
C      1  0.4796420000000  0.5521570000000  0.5557830000000 1.0
C      1  0.4570840000000  0.4672030000000  0.4644330000000 1.0
C      1  0.5717100000000  0.4688590000000  0.4674450000000 1.0
C      1  0.4839080000000  0.4372020000000  0.5330700000000 1.0
C      1  0.4438010000000  0.5553530000000  0.5129680000000 1.0
C      1  0.5425470000000  0.5319190000000  0.5347950000000 1.0
C      1  0.5087370000000  0.4905000000000  0.4439330000000 1.0
C      1  0.5145900000000  0.5465650000000  0.4671210000000 1.0
C      1  0.4355080000000  0.4627940000000  0.5060830000000 1.0
C      1  0.5403560000000  0.4890890000000  0.5689820000000 1.0
C      1  0.5028970000000  0.4760650000000  0.4959970000000 1.0
C      1  0.5311180000000  0.4545180000000  0.5299750000000 1.0
C      1  0.4863260000000  0.4744490000000  0.4323080000000 1.0
C      1  0.5122320000000  0.4358660000000  0.5431200000000 1.0
C      1  0.5524100000000  0.5143650000000  0.4625950000000 1.0
C      1  0.5051690000000  0.5241850000000  0.4855590000000 1.0
C      1  0.4785260000000  0.5320950000000  0.4950440000000 1.0
C      1  0.4891870000000  0.5558170000000  0.4534440000000 1.0
C      1  0.5056640000000  0.5856110000000  0.4930860000000 1.0
C      1  0.5476150000000  0.5640490000000  0.4974350000000 1.0
C      1  0.4990430000000  0.5637390000000  0.5337700000000 1.0
C      1  0.4656310000000  0.5722370000000  0.5189740000000 1.0
C      1  0.4950930000000  0.4673620000000  0.5689700000000 1.0
C      1  0.5339180000000  0.4522640000000  0.4983790000000 1.0
C      1  0.5564310000000  0.4867560000000  0.4523460000000 1.0
C      1  0.4318340000000  0.4699360000000  0.4790060000000 1.0
C      1  0.5562360000000  0.5113450000000  0.5517190000000 1.0
C      1  0.5336470000000  0.4748960000000  0.4393230000000 1.0
C      1  0.5286680000000  0.4270870000000  0.4843340000000 1.0
C      1  0.5105670000000  0.5178560000000  0.4314640000000 1.0
C      1  0.4778320000000  0.5814770000000  0.4942140000000 1.0
C      1  0.4601170000000  0.5139200000000  0.4499930000000 1.0
C      1  0.5204980000000  0.4899990000000  0.5174320000000 1.0
C      1  0.4913050000000  0.4291760000000  0.4744200000000 1.0
C      1  0.5042090000000  0.5366220000000  0.5665670000000 1.0
C      1  0.4756650000000  0.4634300000000  0.5469740000000 1.0
C      1  0.4317140000000  0.5303490000000  0.5066370000000 1.0
C      1  0.5531030000000  0.4917760000000  0.5082790000000 1.0
C      1  0.4833800000000  0.5318070000000  0.4364740000000 1.0
C      1  0.4483680000000  0.4692980000000  0.5514620000000 1.0
C      1  0.5676760000000  0.4896610000000  0.5343490000000 1.0
C      1  0.4557550000000  0.5233980000000  0.5465040000000 1.0
C      1  0.4803550000000  0.5246940000000  0.5284120000000 1.0
C      1  0.5321390000000  0.4471190000000  0.4403350000000 1.0
C      1  0.5102650000000  0.4930660000000  0.5665250000000 1.0
END
