TITL C-951342-2639-116 -9.31981553334787e-07 125000 -487.226048437337 0 0 79 (C1) n - 1
REM
REM in /home/bkarasulu/work/CARBON/AIRSS/Generating-Clusters/EDIP-Nigel-Params/with-SteepDescent/Only-C1/SD-CG/HFTN-CG
REM
REM
REM
REM
REM
REM ./C.cell (11c1c37f851c82e70ff6c80c92926a4b)
REM
REM compiler GCC version 9.2.1 20190827 (Red Hat 9.2.1-1)
REM options -cpp -mtune=generic -march=x86-64 -g -O0 -fpre-include=/usr/include/finclude/math-vector-fortran.h
REM seed 477562761 110512661 2035231919 477936783 397444791 -287178831 927465033 969347522 608149865 1135036389 -453676181 113585987 1753709453 2085095922 -1894317578 -2104794627 -1958795573 1352895547 -1358361046 -1294537172 76835782 -1735116076 306339060 -619457296 -635510450 889406495 1196549139 358405706 -1159186615 1989020893 -1089699480 -762903862 -1001120557
REM
CELL 1.54180   50.00000   50.00000   50.00000   90.00000   90.00000   90.00000
LATT -1
SFAC C  
C      1  0.4999180000000  0.5331850000000  0.5082190000000 1.0
C      1  0.4451170000000  0.5001890000000  0.5584200000000 1.0
C      1  0.5426380000000  0.5640840000000  0.5268100000000 1.0
C      1  0.5043750000000  0.5165040000000  0.4014470000000 1.0
C      1  0.5368160000000  0.5112450000000  0.4376900000000 1.0
C      1  0.5689880000000  0.4827320000000  0.4723050000000 1.0
C      1  0.4647020000000  0.4351810000000  0.5287750000000 1.0
C      1  0.4524300000000  0.4737890000000  0.4649620000000 1.0
C      1  0.4943620000000  0.4597130000000  0.4386910000000 1.0
C      1  0.4221640000000  0.5044360000000  0.4579700000000 1.0
C      1  0.5315650000000  0.4527670000000  0.5585750000000 1.0
C      1  0.5707440000000  0.5093810000000  0.4848900000000 1.0
C      1  0.5403950000000  0.4185620000000  0.4962490000000 1.0
C      1  0.5817510000000  0.5082310000000  0.5126860000000 1.0
C      1  0.4836320000000  0.5244970000000  0.4184030000000 1.0
C      1  0.4669130000000  0.4680480000000  0.4393790000000 1.0
C      1  0.4934810000000  0.5708010000000  0.5159940000000 1.0
C      1  0.5583700000000  0.4386060000000  0.5039040000000 1.0
C      1  0.5028200000000  0.4538690000000  0.5549960000000 1.0
C      1  0.4432740000000  0.5184030000000  0.4448710000000 1.0
C      1  0.4560070000000  0.4731260000000  0.5620630000000 1.0
C      1  0.5128030000000  0.4167400000000  0.5006420000000 1.0
C      1  0.4939890000000  0.4319700000000  0.4837040000000 1.0
C      1  0.5119950000000  0.5726980000000  0.4932060000000 1.0
C      1  0.4433530000000  0.4521020000000  0.4834870000000 1.0
C      1  0.4801020000000  0.5148920000000  0.5237380000000 1.0
C      1  0.5353570000000  0.4528860000000  0.4629160000000 1.0
C      1  0.4472060000000  0.4534130000000  0.5429480000000 1.0
C      1  0.5328320000000  0.5387750000000  0.4506660000000 1.0
C      1  0.5290530000000  0.5193600000000  0.5134080000000 1.0
C      1  0.5048530000000  0.5508180000000  0.4551060000000 1.0
C      1  0.4095850000000  0.5201360000000  0.4994280000000 1.0
C      1  0.4899270000000  0.4303560000000  0.5431910000000 1.0
C      1  0.4893940000000  0.5346850000000  0.4774210000000 1.0
C      1  0.4611260000000  0.5476380000000  0.4783940000000 1.0
C      1  0.4384150000000  0.4849060000000  0.5235830000000 1.0
C      1  0.4242300000000  0.4724940000000  0.4991520000000 1.0
C      1  0.4907760000000  0.5029220000000  0.5713470000000 1.0
C      1  0.4941950000000  0.5602690000000  0.5710700000000 1.0
C      1  0.5585440000000  0.4432150000000  0.5325490000000 1.0
C      1  0.5404530000000  0.5042500000000  0.5605610000000 1.0
C      1  0.4851210000000  0.4739600000000  0.5680770000000 1.0
C      1  0.4126500000000  0.4967630000000  0.4835790000000 1.0
C      1  0.5155220000000  0.5436400000000  0.5642300000000 1.0
C      1  0.5225740000000  0.4919310000000  0.5220390000000 1.0
C      1  0.4696990000000  0.4438090000000  0.4994200000000 1.0
C      1  0.5181290000000  0.4914390000000  0.4719560000000 1.0
C      1  0.5836920000000  0.4842590000000  0.5264630000000 1.0
C      1  0.5060970000000  0.5776150000000  0.4660910000000 1.0
C      1  0.5498440000000  0.4861920000000  0.4491620000000 1.0
C      1  0.4874100000000  0.5512170000000  0.4298670000000 1.0
C      1  0.4459750000000  0.5549760000000  0.5124640000000 1.0
C      1  0.5496280000000  0.4756740000000  0.5616570000000 1.0
C      1  0.4466340000000  0.5469430000000  0.4525860000000 1.0
C      1  0.5532660000000  0.4603990000000  0.4848660000000 1.0
C      1  0.4701070000000  0.5576310000000  0.5285760000000 1.0
C      1  0.5487400000000  0.5407860000000  0.4763410000000 1.0
C      1  0.4838570000000  0.4712960000000  0.5020150000000 1.0
C      1  0.4885010000000  0.5062150000000  0.4668730000000 1.0
C      1  0.5713860000000  0.4663530000000  0.5440100000000 1.0
C      1  0.5165840000000  0.5159570000000  0.5724160000000 1.0
C      1  0.5202660000000  0.4996650000000  0.4165430000000 1.0
C      1  0.5067650000000  0.4495840000000  0.4629650000000 1.0
C      1  0.5646970000000  0.5269380000000  0.5249940000000 1.0
C      1  0.5393780000000  0.5132500000000  0.4863200000000 1.0
C      1  0.5144760000000  0.4747500000000  0.4980700000000 1.0
C      1  0.5412710000000  0.5520210000000  0.5529070000000 1.0
C      1  0.5053060000000  0.4135750000000  0.5272010000000 1.0
C      1  0.5576500000000  0.5269250000000  0.5526640000000 1.0
C      1  0.4717290000000  0.5488500000000  0.5579160000000 1.0
C      1  0.5111500000000  0.4734810000000  0.4208990000000 1.0
C      1  0.4618360000000  0.5618780000000  0.4342340000000 1.0
C      1  0.4711450000000  0.5058150000000  0.4396180000000 1.0
C      1  0.4666730000000  0.5190840000000  0.5657690000000 1.0
C      1  0.5382080000000  0.5618830000000  0.4984070000000 1.0
C      1  0.4933080000000  0.4885320000000  0.5296870000000 1.0
C      1  0.4556960000000  0.5057960000000  0.5086790000000 1.0
C      1  0.4690820000000  0.4906290000000  0.4841950000000 1.0
C      1  0.4372990000000  0.5284120000000  0.5024290000000 1.0
END
