TITL C-951338-5626-137 -7.52665353730963e-06 125000 -187.227265220774 0 0 32 (C1) n - 1
REM
REM in /home/bkarasulu/work/CARBON/AIRSS/Generating-Clusters/EDIP-Nigel-Params/with-SteepDescent/Only-C1/SD-CG/HFTN-CG
REM
REM
REM
REM
REM
REM ./C.cell (11c1c37f851c82e70ff6c80c92926a4b)
REM
REM compiler GCC version 9.2.1 20190827 (Red Hat 9.2.1-1)
REM options -cpp -mtune=generic -march=x86-64 -g -O0 -fpre-include=/usr/include/finclude/math-vector-fortran.h
REM seed -1963489394 -962327986 426361301 -938854025 297760219 -2097619980 -296898075 1354878150 -1601940343 609603868 -531833928 1563953874 2118977790 -843222201 -708120832 567161128 1137897420 794757332 -1436280166 -271538061 -1986096983 782342374 -1412621929 83008817 70419746 1274878620 -172428853 -237227929 -1738169416 -1362482936 -212461933 -1984538267 -1485553410
REM
CELL 1.54180   50.00000   50.00000   50.00000   90.00000   90.00000   90.00000
LATT -1
SFAC C  
C      1  0.5166350000000  0.4450200000000  0.5592270000000 1.0
C      1  0.4990330000000  0.5080340000000  0.4858270000000 1.0
C      1  0.4517410000000  0.4588850000000  0.4878470000000 1.0
C      1  0.4811900000000  0.4704460000000  0.4471750000000 1.0
C      1  0.5074270000000  0.4646370000000  0.4501030000000 1.0
C      1  0.4698220000000  0.5037940000000  0.4810390000000 1.0
C      1  0.5247240000000  0.5579500000000  0.4638010000000 1.0
C      1  0.4534630000000  0.5045160000000  0.5062030000000 1.0
C      1  0.5324850000000  0.5629600000000  0.4390190000000 1.0
C      1  0.4628730000000  0.5368350000000  0.5248760000000 1.0
C      1  0.5005750000000  0.5692120000000  0.4727080000000 1.0
C      1  0.4710810000000  0.4585620000000  0.5219880000000 1.0
C      1  0.5200890000000  0.4582500000000  0.5365670000000 1.0
C      1  0.5411450000000  0.4824250000000  0.5056980000000 1.0
C      1  0.4464840000000  0.4764530000000  0.5132610000000 1.0
C      1  0.5122700000000  0.4817030000000  0.4967700000000 1.0
C      1  0.5178150000000  0.5172920000000  0.5403140000000 1.0
C      1  0.5430660000000  0.5458800000000  0.4812050000000 1.0
C      1  0.5057660000000  0.5363800000000  0.4967130000000 1.0
C      1  0.5487780000000  0.5331720000000  0.5057780000000 1.0
C      1  0.4815990000000  0.5502150000000  0.5078640000000 1.0
C      1  0.4701020000000  0.5135420000000  0.5396970000000 1.0
C      1  0.4983590000000  0.4745810000000  0.5242790000000 1.0
C      1  0.5553060000000  0.5061760000000  0.5046330000000 1.0
C      1  0.5114010000000  0.4585480000000  0.4772230000000 1.0
C      1  0.4781850000000  0.5700890000000  0.4888850000000 1.0
C      1  0.4726710000000  0.4379150000000  0.4989400000000 1.0
C      1  0.4633330000000  0.4783370000000  0.4673740000000 1.0
C      1  0.5242500000000  0.5363910000000  0.5209170000000 1.0
C      1  0.4955990000000  0.5001990000000  0.5404890000000 1.0
C      1  0.5454900000000  0.4650870000000  0.5272680000000 1.0
C      1  0.4972430000000  0.4365130000000  0.4863130000000 1.0
END
