TITL C-950522-5749-155 -8.41152990130865e-07 125000 -915.754131710819 0 0 147 (C1) n - 1
REM
REM in /home/bkarasulu/work/CARBON/AIRSS/Generating-Clusters/EDIP-Nigel-Params/with-SteepDescent/Only-C1/SD-CG/HFTN-CG
REM
REM
REM
REM
REM
REM ./C.cell (11c1c37f851c82e70ff6c80c92926a4b)
REM
REM compiler GCC version 9.2.1 20190827 (Red Hat 9.2.1-1)
REM options -cpp -mtune=generic -march=x86-64 -g -O0 -fpre-include=/usr/include/finclude/math-vector-fortran.h
REM seed -1187885825 932634351 1976570849 -2010888838 -639014883 1663865947 1131079721 -416503091 -576706279 -662493419 922615296 -59381741 -716898388 -411018483 1475413321 -1789331165 1644266306 -1076975223 1556066249 -989515609 -711976181 -1367271609 -1087316754 1552615181 -1895907773 1924035765 1348059579 -249802021 447321078 585419314 1874231028 2037857299 -1919690337
REM
CELL 1.54180   50.00000   50.00000   50.00000   90.00000   90.00000   90.00000
LATT -1
SFAC C  
C      1  0.4794770000000  0.5042880000000  0.4976250000000 1.0
C      1  0.5730830000000  0.4416170000000  0.5266670000000 1.0
C      1  0.5231590000000  0.5018280000000  0.4958110000000 1.0
C      1  0.5932220000000  0.4444560000000  0.4807120000000 1.0
C      1  0.5270860000000  0.5118510000000  0.5656730000000 1.0
C      1  0.4656170000000  0.5967110000000  0.4448450000000 1.0
C      1  0.5317860000000  0.5840250000000  0.4870520000000 1.0
C      1  0.5167410000000  0.4821140000000  0.5281000000000 1.0
C      1  0.5885580000000  0.5089190000000  0.4670330000000 1.0
C      1  0.5384330000000  0.3988940000000  0.4572570000000 1.0
C      1  0.4737780000000  0.5347600000000  0.5945320000000 1.0
C      1  0.4384790000000  0.4807200000000  0.4262090000000 1.0
C      1  0.4686410000000  0.5866580000000  0.5127590000000 1.0
C      1  0.5016430000000  0.5537080000000  0.4274950000000 1.0
C      1  0.5255610000000  0.5595140000000  0.5777420000000 1.0
C      1  0.4460320000000  0.5011630000000  0.4648720000000 1.0
C      1  0.5097140000000  0.6142160000000  0.5200570000000 1.0
C      1  0.4931550000000  0.4665160000000  0.4737820000000 1.0
C      1  0.5356130000000  0.5561080000000  0.5261910000000 1.0
C      1  0.4476590000000  0.5247550000000  0.5872390000000 1.0
C      1  0.4116060000000  0.5156130000000  0.4531890000000 1.0
C      1  0.4706260000000  0.4809290000000  0.5961390000000 1.0
C      1  0.4119400000000  0.5506480000000  0.4933920000000 1.0
C      1  0.5047500000000  0.4300050000000  0.4937130000000 1.0
C      1  0.4253280000000  0.5207680000000  0.5403460000000 1.0
C      1  0.5443380000000  0.5366710000000  0.5722740000000 1.0
C      1  0.5705080000000  0.4478810000000  0.5562440000000 1.0
C      1  0.5778410000000  0.4843180000000  0.4258700000000 1.0
C      1  0.4115260000000  0.4735540000000  0.5125410000000 1.0
C      1  0.4433730000000  0.4946120000000  0.5430550000000 1.0
C      1  0.5310510000000  0.4874180000000  0.4485400000000 1.0
C      1  0.4826720000000  0.5506420000000  0.4069560000000 1.0
C      1  0.5187400000000  0.5316100000000  0.4905760000000 1.0
C      1  0.5338410000000  0.5053700000000  0.4139130000000 1.0
C      1  0.4843390000000  0.4437180000000  0.4366760000000 1.0
C      1  0.5041900000000  0.5559140000000  0.5265340000000 1.0
C      1  0.4643590000000  0.4117430000000  0.4680930000000 1.0
C      1  0.4398190000000  0.4843280000000  0.5146320000000 1.0
C      1  0.4636060000000  0.4800620000000  0.4106060000000 1.0
C      1  0.5163520000000  0.4035970000000  0.5569450000000 1.0
C      1  0.5410300000000  0.4925870000000  0.5449210000000 1.0
C      1  0.4111960000000  0.5250510000000  0.5123730000000 1.0
C      1  0.4702950000000  0.4144990000000  0.5701280000000 1.0
C      1  0.5370730000000  0.4260750000000  0.4953360000000 1.0
C      1  0.4031270000000  0.4942770000000  0.4717290000000 1.0
C      1  0.5787330000000  0.4218020000000  0.4729770000000 1.0
C      1  0.4825990000000  0.5695070000000  0.5683930000000 1.0
C      1  0.6006560000000  0.5247800000000  0.5405000000000 1.0
C      1  0.4591100000000  0.4335220000000  0.4473350000000 1.0
C      1  0.5562920000000  0.4710640000000  0.4922430000000 1.0
C      1  0.4908780000000  0.5200600000000  0.5228280000000 1.0
C      1  0.4661240000000  0.5283440000000  0.4049960000000 1.0
C      1  0.4997520000000  0.4198840000000  0.5761740000000 1.0
C      1  0.4745220000000  0.4636600000000  0.5722030000000 1.0
C      1  0.4993220000000  0.5792230000000  0.5471000000000 1.0
C      1  0.5749050000000  0.5572920000000  0.4749030000000 1.0
C      1  0.5110680000000  0.4897030000000  0.4701310000000 1.0
C      1  0.5366210000000  0.4711380000000  0.5883130000000 1.0
C      1  0.4362170000000  0.5671280000000  0.5512180000000 1.0
C      1  0.5042350000000  0.5341960000000  0.4488930000000 1.0
C      1  0.4671520000000  0.5331370000000  0.5328900000000 1.0
C      1  0.5888880000000  0.4976430000000  0.5371730000000 1.0
C      1  0.4520990000000  0.5406570000000  0.5090790000000 1.0
C      1  0.5611740000000  0.5064650000000  0.5260020000000 1.0
C      1  0.4243920000000  0.5065700000000  0.4265630000000 1.0
C      1  0.5110370000000  0.4530660000000  0.5387990000000 1.0
C      1  0.5491110000000  0.5112710000000  0.4596600000000 1.0
C      1  0.4832780000000  0.4739870000000  0.5005420000000 1.0
C      1  0.4132050000000  0.4530610000000  0.4900350000000 1.0
C      1  0.4961380000000  0.5512560000000  0.5856040000000 1.0
C      1  0.4300000000000  0.4577610000000  0.4438850000000 1.0
C      1  0.5810800000000  0.4600160000000  0.5035170000000 1.0
C      1  0.5980260000000  0.4840090000000  0.5122890000000 1.0
C      1  0.4795350000000  0.5035470000000  0.4063030000000 1.0
C      1  0.5099630000000  0.4386500000000  0.4507220000000 1.0
C      1  0.5705260000000  0.5408970000000  0.5579240000000 1.0
C      1  0.5369000000000  0.4607150000000  0.4132190000000 1.0
C      1  0.4544800000000  0.4403610000000  0.5720810000000 1.0
C      1  0.4769370000000  0.6005760000000  0.4701900000000 1.0
C      1  0.5936000000000  0.4859390000000  0.4487450000000 1.0
C      1  0.4274170000000  0.5386780000000  0.5652170000000 1.0
C      1  0.5538550000000  0.4099770000000  0.4771680000000 1.0
C      1  0.4698580000000  0.3989340000000  0.5426680000000 1.0
C      1  0.4807330000000  0.5271840000000  0.4663980000000 1.0
C      1  0.5548680000000  0.4840330000000  0.4097750000000 1.0
C      1  0.5976850000000  0.5080900000000  0.4950800000000 1.0
C      1  0.4265310000000  0.4780710000000  0.5614550000000 1.0
C      1  0.4572030000000  0.4615820000000  0.5067560000000 1.0
C      1  0.4552230000000  0.5996800000000  0.4900330000000 1.0
C      1  0.5598350000000  0.5370940000000  0.5307780000000 1.0
C      1  0.5555230000000  0.5789580000000  0.4658310000000 1.0
C      1  0.4246470000000  0.5775700000000  0.4997310000000 1.0
C      1  0.4476740000000  0.5765530000000  0.4426550000000 1.0
C      1  0.5340680000000  0.6015340000000  0.5126380000000 1.0
C      1  0.4461130000000  0.4165620000000  0.4907590000000 1.0
C      1  0.4981110000000  0.4036760000000  0.5340870000000 1.0
C      1  0.4387750000000  0.5281120000000  0.4132880000000 1.0
C      1  0.5077630000000  0.4990830000000  0.3988430000000 1.0
C      1  0.4103680000000  0.4617650000000  0.5416740000000 1.0
C      1  0.4461220000000  0.4959890000000  0.5897070000000 1.0
C      1  0.5431440000000  0.4138980000000  0.5495380000000 1.0
C      1  0.4870220000000  0.6024590000000  0.5318890000000 1.0
C      1  0.5540570000000  0.4998820000000  0.4932180000000 1.0
C      1  0.4003880000000  0.4995620000000  0.5007640000000 1.0
C      1  0.5017080000000  0.5835710000000  0.4777380000000 1.0
C      1  0.5514070000000  0.4703440000000  0.5625180000000 1.0
C      1  0.4423370000000  0.5523630000000  0.4560840000000 1.0
C      1  0.5436340000000  0.5725510000000  0.4414450000000 1.0
C      1  0.4355540000000  0.4420860000000  0.5486900000000 1.0
C      1  0.4609760000000  0.4420680000000  0.5284670000000 1.0
C      1  0.5992900000000  0.5323530000000  0.5115350000000 1.0
C      1  0.5355340000000  0.4562070000000  0.4432550000000 1.0
C      1  0.4436120000000  0.5689860000000  0.5201750000000 1.0
C      1  0.5024620000000  0.4506680000000  0.5685430000000 1.0
C      1  0.4950760000000  0.4321380000000  0.5231440000000 1.0
C      1  0.4544250000000  0.4143460000000  0.5200510000000 1.0
C      1  0.4892390000000  0.5677310000000  0.5002970000000 1.0
C      1  0.5371630000000  0.5546840000000  0.4971630000000 1.0
C      1  0.4481040000000  0.5072170000000  0.4954240000000 1.0
C      1  0.5711230000000  0.5341770000000  0.4313950000000 1.0
C      1  0.5307530000000  0.5368910000000  0.4623420000000 1.0
C      1  0.4618040000000  0.4715840000000  0.4623700000000 1.0
C      1  0.4725230000000  0.5471680000000  0.4880780000000 1.0
C      1  0.5265810000000  0.5847990000000  0.5593830000000 1.0
C      1  0.4933150000000  0.4072250000000  0.4767350000000 1.0
C      1  0.4842720000000  0.4597630000000  0.4132030000000 1.0
C      1  0.5124270000000  0.4084220000000  0.4536530000000 1.0
C      1  0.4152220000000  0.5445250000000  0.4640720000000 1.0
C      1  0.5615190000000  0.4235650000000  0.5694780000000 1.0
C      1  0.4626700000000  0.5515670000000  0.5563460000000 1.0
C      1  0.4082310000000  0.4658650000000  0.4642650000000 1.0
C      1  0.4721000000000  0.4847890000000  0.5503280000000 1.0
C      1  0.5453940000000  0.5322760000000  0.4204820000000 1.0
C      1  0.5489280000000  0.4260740000000  0.5232130000000 1.0
C      1  0.5304800000000  0.5574690000000  0.4218220000000 1.0
C      1  0.5197680000000  0.4486290000000  0.5932460000000 1.0
C      1  0.4419540000000  0.4462420000000  0.4848110000000 1.0
C      1  0.5438410000000  0.5838260000000  0.5348350000000 1.0
C      1  0.4973110000000  0.5000880000000  0.5430700000000 1.0
C      1  0.4563920000000  0.5268410000000  0.4479420000000 1.0
C      1  0.6008090000000  0.4618430000000  0.4604580000000 1.0
C      1  0.5843390000000  0.5363470000000  0.4559600000000 1.0
C      1  0.5211580000000  0.4962080000000  0.5903870000000 1.0
C      1  0.5343480000000  0.4543880000000  0.4819940000000 1.0
C      1  0.5808790000000  0.5532750000000  0.5032860000000 1.0
C      1  0.5100570000000  0.4695050000000  0.4018830000000 1.0
C      1  0.4947810000000  0.4948120000000  0.6006830000000 1.0
END
