TITL C-951343-2256-713 -2.6101634902228e-06 125000 -442.790679041852 0 0 73 (C1) n - 1
REM
REM in /home/bkarasulu/work/CARBON/AIRSS/Generating-Clusters/EDIP-Nigel-Params/with-SteepDescent/Only-C1/SD-CG/HFTN-CG
REM
REM
REM
REM
REM
REM ./C.cell (11c1c37f851c82e70ff6c80c92926a4b)
REM
REM compiler GCC version 9.2.1 20190827 (Red Hat 9.2.1-1)
REM options -cpp -mtune=generic -march=x86-64 -g -O0 -fpre-include=/usr/include/finclude/math-vector-fortran.h
REM seed 1321962065 -1040862013 302000862 -277140752 1919351489 -1398069833 -1202480470 -1426784642 -1205713556 -1568165008 1185343565 -1617473117 -853637514 -1471857108 -2130282933 -337919931 1870210926 -136201218 -2076838711 2012135893 904426437 -1230023626 2062963503 1135779374 -1048690731 408502909 -1779365998 816321823 -914207778 380518235 -657813711 -72588206 -894529977
REM
CELL 1.54180   50.00000   50.00000   50.00000   90.00000   90.00000   90.00000
LATT -1
SFAC C  
C      1  0.4763110000000  0.4070280000000  0.5349590000000 1.0
C      1  0.5031230000000  0.4772670000000  0.4267020000000 1.0
C      1  0.5091240000000  0.5782330000000  0.4920000000000 1.0
C      1  0.5200770000000  0.5818560000000  0.5178210000000 1.0
C      1  0.5724020000000  0.4590620000000  0.4804240000000 1.0
C      1  0.4799520000000  0.4616580000000  0.4734800000000 1.0
C      1  0.5086950000000  0.5314210000000  0.5166970000000 1.0
C      1  0.4750470000000  0.4668880000000  0.5614790000000 1.0
C      1  0.4346770000000  0.4741380000000  0.4892260000000 1.0
C      1  0.4961960000000  0.4872030000000  0.5649400000000 1.0
C      1  0.4429250000000  0.5166570000000  0.4428540000000 1.0
C      1  0.5591580000000  0.4478030000000  0.4579920000000 1.0
C      1  0.5276040000000  0.4974860000000  0.4899550000000 1.0
C      1  0.4667410000000  0.4332890000000  0.5336470000000 1.0
C      1  0.4613350000000  0.4631000000000  0.4498530000000 1.0
C      1  0.4432810000000  0.4498930000000  0.5303430000000 1.0
C      1  0.4291850000000  0.4524190000000  0.5062700000000 1.0
C      1  0.4816900000000  0.5640290000000  0.4925400000000 1.0
C      1  0.4342000000000  0.5538900000000  0.5197400000000 1.0
C      1  0.4634880000000  0.5067550000000  0.4267100000000 1.0
C      1  0.5508550000000  0.5484220000000  0.5386180000000 1.0
C      1  0.4336000000000  0.4945170000000  0.5467300000000 1.0
C      1  0.5172550000000  0.5710910000000  0.5639780000000 1.0
C      1  0.4467620000000  0.5609860000000  0.5430480000000 1.0
C      1  0.5626000000000  0.5027330000000  0.4572530000000 1.0
C      1  0.4814300000000  0.4950090000000  0.5206070000000 1.0
C      1  0.4733090000000  0.4799980000000  0.4275850000000 1.0
C      1  0.4661970000000  0.5178450000000  0.5051110000000 1.0
C      1  0.4333530000000  0.4721230000000  0.4593900000000 1.0
C      1  0.5620260000000  0.4749970000000  0.5242400000000 1.0
C      1  0.5050160000000  0.4816870000000  0.5041110000000 1.0
C      1  0.5220880000000  0.4837750000000  0.5766740000000 1.0
C      1  0.5158300000000  0.4529140000000  0.4344790000000 1.0
C      1  0.4243690000000  0.4959450000000  0.4466610000000 1.0
C      1  0.5587830000000  0.4971550000000  0.5048330000000 1.0
C      1  0.5337630000000  0.5269310000000  0.5525340000000 1.0
C      1  0.4282650000000  0.5366070000000  0.4855750000000 1.0
C      1  0.4947210000000  0.5095930000000  0.5452890000000 1.0
C      1  0.4852390000000  0.5350280000000  0.5601410000000 1.0
C      1  0.5012390000000  0.5363310000000  0.4643010000000 1.0
C      1  0.5506920000000  0.5455680000000  0.4362930000000 1.0
C      1  0.5138970000000  0.4567470000000  0.5131910000000 1.0
C      1  0.5306160000000  0.5678950000000  0.4732940000000 1.0
C      1  0.5260440000000  0.5578980000000  0.4446710000000 1.0
C      1  0.4636260000000  0.4815580000000  0.4900000000000 1.0
C      1  0.5755440000000  0.4894080000000  0.4808460000000 1.0
C      1  0.5288650000000  0.4151040000000  0.4927080000000 1.0
C      1  0.5485310000000  0.4755870000000  0.5494020000000 1.0
C      1  0.5009260000000  0.4131160000000  0.4917800000000 1.0
C      1  0.5343090000000  0.4382190000000  0.5077190000000 1.0
C      1  0.4733820000000  0.5533170000000  0.5405370000000 1.0
C      1  0.5441980000000  0.5431910000000  0.4841700000000 1.0
C      1  0.4498230000000  0.5322240000000  0.4666650000000 1.0
C      1  0.5051000000000  0.5260810000000  0.4373580000000 1.0
C      1  0.5615650000000  0.4505420000000  0.5076110000000 1.0
C      1  0.5195850000000  0.5262070000000  0.4898560000000 1.0
C      1  0.5596040000000  0.5325370000000  0.4598140000000 1.0
C      1  0.4213850000000  0.5086720000000  0.5274320000000 1.0
C      1  0.4819850000000  0.4388610000000  0.5567970000000 1.0
C      1  0.5169090000000  0.5003200000000  0.4378910000000 1.0
C      1  0.4516860000000  0.4736470000000  0.5445150000000 1.0
C      1  0.4821140000000  0.5426860000000  0.5139210000000 1.0
C      1  0.4889780000000  0.3982610000000  0.5122320000000 1.0
C      1  0.4372360000000  0.5265150000000  0.5112170000000 1.0
C      1  0.5133440000000  0.5431860000000  0.5676670000000 1.0
C      1  0.5330610000000  0.5729390000000  0.5409390000000 1.0
C      1  0.5350240000000  0.4903360000000  0.4594110000000 1.0
C      1  0.5426020000000  0.5003950000000  0.5637810000000 1.0
C      1  0.5355580000000  0.4614470000000  0.4527350000000 1.0
C      1  0.4870060000000  0.4359280000000  0.4829770000000 1.0
C      1  0.4742410000000  0.5496000000000  0.4675170000000 1.0
C      1  0.5609580000000  0.5467260000000  0.5086960000000 1.0
C      1  0.5696920000000  0.5215190000000  0.5175700000000 1.0
END
