TITL C-951347-9520-76 6.12883463826878e-07 125000 -688.349940484513 0 0 110 (C1) n - 1
REM
REM in /home/bkarasulu/work/CARBON/AIRSS/Generating-Clusters/EDIP-Nigel-Params/with-SteepDescent/Only-C1/SD-CG/HFTN-CG
REM
REM
REM
REM
REM
REM ./C.cell (11c1c37f851c82e70ff6c80c92926a4b)
REM
REM compiler GCC version 9.2.1 20190827 (Red Hat 9.2.1-1)
REM options -cpp -mtune=generic -march=x86-64 -g -O0 -fpre-include=/usr/include/finclude/math-vector-fortran.h
REM seed 1240039523 -397759678 -2131665988 248826972 -1013021996 -2109081577 26851035 -1450462147 1438415109 -1865005282 -208334024 -750195748 -407846484 1497413710 627699195 -2038172602 -1927396590 -1519229407 -169924736 -1619725837 252707709 -344285432 -1729768756 460645856 513842795 1226732768 -1875322966 1897231577 951267795 -1180913259 31511538 603363171 1701226433
REM
CELL 1.54180   50.00000   50.00000   50.00000   90.00000   90.00000   90.00000
LATT -1
SFAC C  
C      1  0.4107790000000  0.4859450000000  0.5175410000000 1.0
C      1  0.5813920000000  0.5561750000000  0.4897690000000 1.0
C      1  0.5069280000000  0.4132610000000  0.5223500000000 1.0
C      1  0.5144200000000  0.4745710000000  0.4116730000000 1.0
C      1  0.4252840000000  0.4886770000000  0.5425940000000 1.0
C      1  0.5081020000000  0.5405660000000  0.5729940000000 1.0
C      1  0.5617180000000  0.5552420000000  0.5365840000000 1.0
C      1  0.4730730000000  0.5034180000000  0.5119120000000 1.0
C      1  0.5117290000000  0.5871250000000  0.4897680000000 1.0
C      1  0.4934300000000  0.5705060000000  0.5182040000000 1.0
C      1  0.5796320000000  0.5130790000000  0.5221500000000 1.0
C      1  0.4528410000000  0.4963760000000  0.5904870000000 1.0
C      1  0.5182920000000  0.4248550000000  0.4406490000000 1.0
C      1  0.5072510000000  0.5468650000000  0.4277480000000 1.0
C      1  0.4147140000000  0.5093340000000  0.5016400000000 1.0
C      1  0.5872360000000  0.4726000000000  0.4650550000000 1.0
C      1  0.4649210000000  0.5577850000000  0.5516510000000 1.0
C      1  0.5986240000000  0.5420040000000  0.4708770000000 1.0
C      1  0.5055920000000  0.5798130000000  0.5431100000000 1.0
C      1  0.5122720000000  0.4276720000000  0.4682710000000 1.0
C      1  0.4670760000000  0.5075740000000  0.4159160000000 1.0
C      1  0.4927820000000  0.4857320000000  0.4613890000000 1.0
C      1  0.5626650000000  0.5830300000000  0.5393040000000 1.0
C      1  0.4385430000000  0.4462200000000  0.5718230000000 1.0
C      1  0.4301760000000  0.4613680000000  0.4741100000000 1.0
C      1  0.4059260000000  0.5075120000000  0.4748320000000 1.0
C      1  0.5325890000000  0.4611230000000  0.4992070000000 1.0
C      1  0.4452120000000  0.4886070000000  0.4219860000000 1.0
C      1  0.5743770000000  0.4867200000000  0.5086130000000 1.0
C      1  0.5265750000000  0.5041400000000  0.5399730000000 1.0
C      1  0.5254910000000  0.5054640000000  0.5106250000000 1.0
C      1  0.5399700000000  0.4343420000000  0.5568260000000 1.0
C      1  0.5412860000000  0.4799080000000  0.4241410000000 1.0
C      1  0.4850660000000  0.4589540000000  0.4464020000000 1.0
C      1  0.4286980000000  0.4594420000000  0.5488190000000 1.0
C      1  0.5507710000000  0.5939790000000  0.5179240000000 1.0
C      1  0.5361870000000  0.5400640000000  0.5749720000000 1.0
C      1  0.4646220000000  0.5209560000000  0.5828710000000 1.0
C      1  0.5412940000000  0.4603710000000  0.4493600000000 1.0
C      1  0.4902150000000  0.5351230000000  0.4860850000000 1.0
C      1  0.4374130000000  0.5636800000000  0.4797610000000 1.0
C      1  0.5678740000000  0.5179030000000  0.4729010000000 1.0
C      1  0.5397280000000  0.4795070000000  0.4740950000000 1.0
C      1  0.5606270000000  0.5325360000000  0.4377330000000 1.0
C      1  0.5208830000000  0.5551370000000  0.4529870000000 1.0
C      1  0.5085410000000  0.4507960000000  0.4304200000000 1.0
C      1  0.4606350000000  0.5284320000000  0.5538920000000 1.0
C      1  0.4791890000000  0.5540030000000  0.4324410000000 1.0
C      1  0.5591360000000  0.5704790000000  0.4757400000000 1.0
C      1  0.4262510000000  0.5027910000000  0.4413820000000 1.0
C      1  0.5827520000000  0.4462330000000  0.4687620000000 1.0
C      1  0.4624550000000  0.5681420000000  0.5235900000000 1.0
C      1  0.4132130000000  0.4834380000000  0.4606060000000 1.0
C      1  0.5696040000000  0.5103580000000  0.5499210000000 1.0
C      1  0.4925940000000  0.5631880000000  0.5618000000000 1.0
C      1  0.4780690000000  0.5743480000000  0.4539420000000 1.0
C      1  0.4639270000000  0.5196010000000  0.4855360000000 1.0
C      1  0.5473230000000  0.4736850000000  0.5754390000000 1.0
C      1  0.5191030000000  0.4690590000000  0.5835790000000 1.0
C      1  0.5131460000000  0.4492310000000  0.5601550000000 1.0
C      1  0.5571550000000  0.4370240000000  0.4636150000000 1.0
C      1  0.4116460000000  0.4596310000000  0.5044800000000 1.0
C      1  0.5018350000000  0.4671810000000  0.5380640000000 1.0
C      1  0.5025090000000  0.4645420000000  0.5086600000000 1.0
C      1  0.4531350000000  0.4612190000000  0.4270250000000 1.0
C      1  0.5370020000000  0.5090120000000  0.4336970000000 1.0
C      1  0.4765600000000  0.4490440000000  0.4978970000000 1.0
C      1  0.5054320000000  0.5788340000000  0.4631160000000 1.0
C      1  0.4377850000000  0.4217530000000  0.5186220000000 1.0
C      1  0.4961200000000  0.4991960000000  0.4143690000000 1.0
C      1  0.4266360000000  0.5311930000000  0.5172570000000 1.0
C      1  0.4593510000000  0.5328700000000  0.4300000000000 1.0
C      1  0.4559280000000  0.4712950000000  0.4866860000000 1.0
C      1  0.4647630000000  0.4271080000000  0.4557990000000 1.0
C      1  0.4343160000000  0.5181830000000  0.5425650000000 1.0
C      1  0.5326940000000  0.4160650000000  0.5115920000000 1.0
C      1  0.4727190000000  0.4775370000000  0.5847000000000 1.0
C      1  0.4551570000000  0.5816630000000  0.4682090000000 1.0
C      1  0.4431420000000  0.4452560000000  0.4496950000000 1.0
C      1  0.5355740000000  0.5311890000000  0.4993210000000 1.0
C      1  0.5153250000000  0.5205950000000  0.4173740000000 1.0
C      1  0.5403920000000  0.5853660000000  0.4937600000000 1.0
C      1  0.4842920000000  0.4293160000000  0.4767260000000 1.0
C      1  0.5008080000000  0.4948120000000  0.5485430000000 1.0
C      1  0.5683490000000  0.4889560000000  0.4795990000000 1.0
C      1  0.5590940000000  0.4479690000000  0.5726430000000 1.0
C      1  0.5495510000000  0.4879470000000  0.5483080000000 1.0
C      1  0.4985310000000  0.4911390000000  0.5789670000000 1.0
C      1  0.5214760000000  0.5033870000000  0.4608630000000 1.0
C      1  0.4833230000000  0.4185660000000  0.5373870000000 1.0
C      1  0.4207520000000  0.4426570000000  0.5261510000000 1.0
C      1  0.5879060000000  0.5243920000000  0.4503760000000 1.0
C      1  0.4876760000000  0.4335060000000  0.5635070000000 1.0
C      1  0.5548730000000  0.4692090000000  0.5227370000000 1.0
C      1  0.5496060000000  0.5585130000000  0.4499390000000 1.0
C      1  0.4636660000000  0.4330320000000  0.5206320000000 1.0
C      1  0.5173450000000  0.5316740000000  0.4735310000000 1.0
C      1  0.4938400000000  0.5202790000000  0.5880820000000 1.0
C      1  0.4659050000000  0.4936360000000  0.4697190000000 1.0
C      1  0.4234770000000  0.5481870000000  0.4613270000000 1.0
C      1  0.4443130000000  0.5521180000000  0.5057000000000 1.0
C      1  0.5660390000000  0.5391780000000  0.5115610000000 1.0
C      1  0.4989180000000  0.4924060000000  0.4988780000000 1.0
C      1  0.5353140000000  0.4330000000000  0.4866160000000 1.0
C      1  0.4419420000000  0.5271370000000  0.4543500000000 1.0
C      1  0.4999590000000  0.5403810000000  0.5143140000000 1.0
C      1  0.4835310000000  0.5177760000000  0.5350240000000 1.0
C      1  0.5486380000000  0.4260180000000  0.5317790000000 1.0
C      1  0.5596520000000  0.5375360000000  0.5593860000000 1.0
C      1  0.4658360000000  0.4524740000000  0.5719680000000 1.0
END
