TITL C-951344-124-218 -8.2358156399338e-07 125000 -343.838527012614 0 0 57 (C1) n - 1
REM
REM in /home/bkarasulu/work/CARBON/AIRSS/Generating-Clusters/EDIP-Nigel-Params/with-SteepDescent/Only-C1/SD-CG/HFTN-CG
REM
REM
REM
REM
REM
REM ./C.cell (11c1c37f851c82e70ff6c80c92926a4b)
REM
REM compiler GCC version 9.2.1 20190827 (Red Hat 9.2.1-1)
REM options -cpp -mtune=generic -march=x86-64 -g -O0 -fpre-include=/usr/include/finclude/math-vector-fortran.h
REM seed -1886898368 1456123606 -600817725 -1241589020 2048317861 -261776845 -1835889003 -1555758723 -1020372283 1687822587 968174536 -1204595797 1607166429 -940312950 -1646211372 -793451872 505308917 -2045939696 -829729991 1085516518 -22470462 -1697928336 1974070411 471186687 2087003313 481314912 1894844996 -1770124639 -894223002 713975585 358245158 1494664483 1182004793
REM
CELL 1.54180   50.00000   50.00000   50.00000   90.00000   90.00000   90.00000
LATT -1
SFAC C  
C      1  0.5197970000000  0.5568010000000  0.5368340000000 1.0
C      1  0.5365970000000  0.5175530000000  0.4675530000000 1.0
C      1  0.4607670000000  0.5312490000000  0.4510620000000 1.0
C      1  0.5626180000000  0.5252830000000  0.4806050000000 1.0
C      1  0.4698950000000  0.4818820000000  0.5523590000000 1.0
C      1  0.5154110000000  0.4595190000000  0.4357340000000 1.0
C      1  0.5212400000000  0.5710360000000  0.4900160000000 1.0
C      1  0.5075930000000  0.5114800000000  0.5307130000000 1.0
C      1  0.5103300000000  0.4355750000000  0.5286450000000 1.0
C      1  0.5453970000000  0.4968520000000  0.4468340000000 1.0
C      1  0.5052530000000  0.5344530000000  0.4320390000000 1.0
C      1  0.5233930000000  0.4740280000000  0.5563940000000 1.0
C      1  0.4393730000000  0.4605290000000  0.5222030000000 1.0
C      1  0.5184690000000  0.4464800000000  0.5532020000000 1.0
C      1  0.5519580000000  0.4858400000000  0.5577690000000 1.0
C      1  0.5245090000000  0.5411740000000  0.4531630000000 1.0
C      1  0.5072620000000  0.4605790000000  0.4636490000000 1.0
C      1  0.4437580000000  0.4922880000000  0.5603440000000 1.0
C      1  0.4379120000000  0.5192350000000  0.5460810000000 1.0
C      1  0.5302520000000  0.4709130000000  0.4809500000000 1.0
C      1  0.4237970000000  0.5217990000000  0.4801390000000 1.0
C      1  0.4231330000000  0.4781480000000  0.5407920000000 1.0
C      1  0.4592980000000  0.5236780000000  0.5245580000000 1.0
C      1  0.4676400000000  0.5604590000000  0.5272010000000 1.0
C      1  0.5673430000000  0.4943330000000  0.5149260000000 1.0
C      1  0.4359940000000  0.5449510000000  0.4881070000000 1.0
C      1  0.4985940000000  0.4339390000000  0.4723320000000 1.0
C      1  0.4193740000000  0.5053730000000  0.5259940000000 1.0
C      1  0.4596220000000  0.5461520000000  0.5030450000000 1.0
C      1  0.5228090000000  0.4863190000000  0.4306960000000 1.0
C      1  0.4670220000000  0.4606600000000  0.5332250000000 1.0
C      1  0.5670910000000  0.4727370000000  0.5343120000000 1.0
C      1  0.5000660000000  0.5051910000000  0.4288880000000 1.0
C      1  0.5317340000000  0.5548360000000  0.5101300000000 1.0
C      1  0.5500450000000  0.5180580000000  0.5530960000000 1.0
C      1  0.4933630000000  0.5660660000000  0.5356050000000 1.0
C      1  0.4311870000000  0.5022210000000  0.4992310000000 1.0
C      1  0.5587700000000  0.4474100000000  0.5256370000000 1.0
C      1  0.4751500000000  0.4958260000000  0.4422550000000 1.0
C      1  0.4875380000000  0.4490100000000  0.5161030000000 1.0
C      1  0.5730000000000  0.4963180000000  0.4858290000000 1.0
C      1  0.4805380000000  0.5010860000000  0.5214660000000 1.0
C      1  0.4505330000000  0.5101330000000  0.4368670000000 1.0
C      1  0.5653190000000  0.5204540000000  0.5273660000000 1.0
C      1  0.5212520000000  0.4976830000000  0.4914220000000 1.0
C      1  0.4820530000000  0.5486560000000  0.4438120000000 1.0
C      1  0.5362330000000  0.4341200000000  0.5176750000000 1.0
C      1  0.5263380000000  0.4893910000000  0.5289120000000 1.0
C      1  0.4386520000000  0.4733830000000  0.4954230000000 1.0
C      1  0.5566920000000  0.4773160000000  0.4671690000000 1.0
C      1  0.4775610000000  0.4403480000000  0.4900820000000 1.0
C      1  0.4601980000000  0.4617140000000  0.4776840000000 1.0
C      1  0.4910640000000  0.4987400000000  0.4913820000000 1.0
C      1  0.5088530000000  0.5608760000000  0.4674470000000 1.0
C      1  0.5212140000000  0.5298080000000  0.5498170000000 1.0
C      1  0.4822180000000  0.4803840000000  0.4686790000000 1.0
C      1  0.5569270000000  0.5396700000000  0.5065450000000 1.0
END
