TITL C-950523-3027-340 -4.40739609155374e-07 125000 -1130.36274575941 0 0 177 (C1) n - 1
REM
REM in /home/bkarasulu/work/CARBON/AIRSS/Generating-Clusters/EDIP-Nigel-Params/with-SteepDescent/Only-C1/SD-CG/HFTN-CG
REM
REM
REM
REM
REM
REM ./C.cell (11c1c37f851c82e70ff6c80c92926a4b)
REM
REM compiler GCC version 9.2.1 20190827 (Red Hat 9.2.1-1)
REM options -cpp -mtune=generic -march=x86-64 -g -O0 -fpre-include=/usr/include/finclude/math-vector-fortran.h
REM seed 466685614 672287401 -774082698 -996864516 -1952404270 -1810404438 -803697816 883240150 -1490153702 -2046265360 -1529641424 2114502582 -163098870 156573583 255309742 1541169405 -188247014 -1741877707 150246397 2090610351 2107697373 39672868 321748218 1505362371 767023800 -459478184 -168327635 1693274651 199699586 -1968873461 -1850243815 -279802417 1614189900
REM
CELL 1.54180   50.00000   50.00000   50.00000   90.00000   90.00000   90.00000
LATT -1
SFAC C  
C      1  0.5447960000000  0.5403690000000  0.4282970000000 1.0
C      1  0.4312870000000  0.4833520000000  0.4997160000000 1.0
C      1  0.5288170000000  0.5943830000000  0.5129710000000 1.0
C      1  0.4708320000000  0.3911300000000  0.5071310000000 1.0
C      1  0.5816340000000  0.4999370000000  0.5066180000000 1.0
C      1  0.4881920000000  0.3931830000000  0.4840000000000 1.0
C      1  0.4955400000000  0.4660500000000  0.5339360000000 1.0
C      1  0.5438950000000  0.4744220000000  0.3907380000000 1.0
C      1  0.4394030000000  0.5258040000000  0.5021670000000 1.0
C      1  0.4909910000000  0.5617940000000  0.5733390000000 1.0
C      1  0.5050590000000  0.5173730000000  0.4299180000000 1.0
C      1  0.4490360000000  0.4923920000000  0.4280790000000 1.0
C      1  0.5495660000000  0.5824300000000  0.4590430000000 1.0
C      1  0.5389380000000  0.5279050000000  0.5340530000000 1.0
C      1  0.4447550000000  0.4093230000000  0.4725180000000 1.0
C      1  0.4573960000000  0.4716480000000  0.5621460000000 1.0
C      1  0.4191380000000  0.4727650000000  0.4722970000000 1.0
C      1  0.5247510000000  0.4543220000000  0.6053870000000 1.0
C      1  0.5698410000000  0.4712320000000  0.4015380000000 1.0
C      1  0.4259230000000  0.5114980000000  0.4229730000000 1.0
C      1  0.5246860000000  0.4757320000000  0.4911970000000 1.0
C      1  0.3963800000000  0.5535610000000  0.5106080000000 1.0
C      1  0.5851200000000  0.5312980000000  0.5561000000000 1.0
C      1  0.4017150000000  0.4939530000000  0.5581990000000 1.0
C      1  0.5086800000000  0.4133780000000  0.5683920000000 1.0
C      1  0.5420350000000  0.5495580000000  0.5725330000000 1.0
C      1  0.5023850000000  0.4008990000000  0.5422540000000 1.0
C      1  0.5573290000000  0.5865230000000  0.5091280000000 1.0
C      1  0.5599350000000  0.4379980000000  0.4485200000000 1.0
C      1  0.4389820000000  0.5820990000000  0.4692590000000 1.0
C      1  0.4688960000000  0.5881710000000  0.5381380000000 1.0
C      1  0.5428400000000  0.4218830000000  0.5395040000000 1.0
C      1  0.5611140000000  0.5274860000000  0.5711230000000 1.0
C      1  0.5109770000000  0.5512740000000  0.4667920000000 1.0
C      1  0.4431710000000  0.5525460000000  0.5896190000000 1.0
C      1  0.4510700000000  0.4528720000000  0.5359350000000 1.0
C      1  0.4246730000000  0.4615550000000  0.5236430000000 1.0
C      1  0.4867790000000  0.4640480000000  0.5624850000000 1.0
C      1  0.6010970000000  0.4540030000000  0.5119610000000 1.0
C      1  0.4805110000000  0.5571900000000  0.4008250000000 1.0
C      1  0.5596830000000  0.5648040000000  0.4373530000000 1.0
C      1  0.5082810000000  0.4985650000000  0.4054940000000 1.0
C      1  0.4964710000000  0.4481780000000  0.6023260000000 1.0
C      1  0.4115240000000  0.5790560000000  0.5164570000000 1.0
C      1  0.5891360000000  0.4717050000000  0.4631160000000 1.0
C      1  0.4980090000000  0.5112220000000  0.5610000000000 1.0
C      1  0.5559190000000  0.5126520000000  0.4605890000000 1.0
C      1  0.4185130000000  0.4200170000000  0.4634870000000 1.0
C      1  0.5984890000000  0.4776020000000  0.4917850000000 1.0
C      1  0.4773430000000  0.4701510000000  0.6076900000000 1.0
C      1  0.4648260000000  0.5743970000000  0.4184090000000 1.0
C      1  0.5149890000000  0.5443220000000  0.5843740000000 1.0
C      1  0.4960500000000  0.4568200000000  0.3997210000000 1.0
C      1  0.5366290000000  0.4222760000000  0.5687970000000 1.0
C      1  0.4533860000000  0.5112210000000  0.5257430000000 1.0
C      1  0.5004500000000  0.4961200000000  0.5336840000000 1.0
C      1  0.6090460000000  0.5447620000000  0.5177000000000 1.0
C      1  0.4648220000000  0.5344750000000  0.4576880000000 1.0
C      1  0.4500580000000  0.5648910000000  0.5423450000000 1.0
C      1  0.5241750000000  0.4573550000000  0.4024690000000 1.0
C      1  0.5520200000000  0.4671710000000  0.5015800000000 1.0
C      1  0.6172430000000  0.5167450000000  0.5243010000000 1.0
C      1  0.5757630000000  0.4811510000000  0.5806680000000 1.0
C      1  0.5492380000000  0.4925540000000  0.5469240000000 1.0
C      1  0.4883770000000  0.4199860000000  0.4402130000000 1.0
C      1  0.5357210000000  0.5014570000000  0.6047830000000 1.0
C      1  0.4081600000000  0.4695620000000  0.5459600000000 1.0
C      1  0.3990600000000  0.4945200000000  0.4638450000000 1.0
C      1  0.5987570000000  0.5082270000000  0.5459550000000 1.0
C      1  0.4351330000000  0.4470440000000  0.4326860000000 1.0
C      1  0.5676070000000  0.4796100000000  0.5252790000000 1.0
C      1  0.4789190000000  0.4792280000000  0.3880020000000 1.0
C      1  0.3961720000000  0.4946260000000  0.5114740000000 1.0
C      1  0.4074920000000  0.5170720000000  0.4458760000000 1.0
C      1  0.4212250000000  0.5754710000000  0.5455160000000 1.0
C      1  0.3923850000000  0.5095350000000  0.5355410000000 1.0
C      1  0.4892000000000  0.4303880000000  0.5806730000000 1.0
C      1  0.4933540000000  0.4738210000000  0.4533400000000 1.0
C      1  0.5265560000000  0.3988840000000  0.5244090000000 1.0
C      1  0.5166370000000  0.4179180000000  0.4452990000000 1.0
C      1  0.5216930000000  0.5155090000000  0.4571010000000 1.0
C      1  0.4824090000000  0.5116040000000  0.5160620000000 1.0
C      1  0.4063410000000  0.5529750000000  0.5577240000000 1.0
C      1  0.5668450000000  0.5793260000000  0.4821530000000 1.0
C      1  0.4499630000000  0.5025250000000  0.5544560000000 1.0
C      1  0.4243430000000  0.5081620000000  0.5724700000000 1.0
C      1  0.4806190000000  0.5561820000000  0.4715440000000 1.0
C      1  0.4047050000000  0.5352660000000  0.4880340000000 1.0
C      1  0.5419480000000  0.4607330000000  0.4536600000000 1.0
C      1  0.5313230000000  0.4777820000000  0.6188600000000 1.0
C      1  0.5308830000000  0.4701560000000  0.5602360000000 1.0
C      1  0.4432340000000  0.3972250000000  0.4988900000000 1.0
C      1  0.5951170000000  0.4822520000000  0.5589150000000 1.0
C      1  0.4797890000000  0.4123640000000  0.5258480000000 1.0
C      1  0.4739530000000  0.5184970000000  0.4330400000000 1.0
C      1  0.4631720000000  0.5495130000000  0.5684850000000 1.0
C      1  0.5062100000000  0.4928530000000  0.4731730000000 1.0
C      1  0.4726700000000  0.4586010000000  0.5162920000000 1.0
C      1  0.4072650000000  0.5438230000000  0.4594730000000 1.0
C      1  0.5688710000000  0.4551020000000  0.5882530000000 1.0
C      1  0.5612570000000  0.5153430000000  0.4901060000000 1.0
C      1  0.4090180000000  0.4425530000000  0.4807960000000 1.0
C      1  0.4725800000000  0.4058960000000  0.4614920000000 1.0
C      1  0.4611670000000  0.5997810000000  0.5109580000000 1.0
C      1  0.5083480000000  0.5594970000000  0.4012460000000 1.0
C      1  0.5307790000000  0.4092380000000  0.4695530000000 1.0
C      1  0.4678320000000  0.4633570000000  0.4652760000000 1.0
C      1  0.4948800000000  0.5807780000000  0.5508070000000 1.0
C      1  0.5266260000000  0.4472620000000  0.5291870000000 1.0
C      1  0.5211350000000  0.5836880000000  0.5394580000000 1.0
C      1  0.4170890000000  0.4259100000000  0.4360670000000 1.0
C      1  0.4681680000000  0.5299450000000  0.4036670000000 1.0
C      1  0.3909920000000  0.5089590000000  0.4878550000000 1.0
C      1  0.5142360000000  0.4057840000000  0.4948680000000 1.0
C      1  0.5065080000000  0.4341480000000  0.5054590000000 1.0
C      1  0.5866490000000  0.5513640000000  0.5354610000000 1.0
C      1  0.5709400000000  0.4916220000000  0.4212050000000 1.0
C      1  0.4383390000000  0.5611450000000  0.4238430000000 1.0
C      1  0.6063810000000  0.5455520000000  0.4888110000000 1.0
C      1  0.4374780000000  0.5350490000000  0.4082940000000 1.0
C      1  0.4374320000000  0.5805890000000  0.4997950000000 1.0
C      1  0.4379890000000  0.4958010000000  0.5979570000000 1.0
C      1  0.5435860000000  0.5699680000000  0.5514400000000 1.0
C      1  0.5552650000000  0.5158260000000  0.4120910000000 1.0
C      1  0.5841200000000  0.5271430000000  0.4438160000000 1.0
C      1  0.6191780000000  0.5227520000000  0.4759970000000 1.0
C      1  0.5863260000000  0.5564260000000  0.4455070000000 1.0
C      1  0.5142870000000  0.4556520000000  0.4396180000000 1.0
C      1  0.4212630000000  0.5381460000000  0.5780180000000 1.0
C      1  0.5112680000000  0.5409900000000  0.5434710000000 1.0
C      1  0.4558900000000  0.5161150000000  0.4780080000000 1.0
C      1  0.6197930000000  0.5018220000000  0.4972310000000 1.0
C      1  0.5283480000000  0.5004770000000  0.5275870000000 1.0
C      1  0.4535700000000  0.4757220000000  0.4028530000000 1.0
C      1  0.5913560000000  0.5655440000000  0.4734750000000 1.0
C      1  0.4629270000000  0.5135320000000  0.5983000000000 1.0
C      1  0.5666060000000  0.5726300000000  0.5338130000000 1.0
C      1  0.5566900000000  0.4380120000000  0.4980220000000 1.0
C      1  0.5413980000000  0.4495630000000  0.5812010000000 1.0
C      1  0.5111720000000  0.5960190000000  0.4888100000000 1.0
C      1  0.5170140000000  0.4497420000000  0.4816580000000 1.0
C      1  0.4814710000000  0.6015730000000  0.4881930000000 1.0
C      1  0.4804070000000  0.4383790000000  0.4168290000000 1.0
C      1  0.5643360000000  0.4845630000000  0.4501250000000 1.0
C      1  0.5163170000000  0.5444610000000  0.4236600000000 1.0
C      1  0.3990440000000  0.5376230000000  0.5347090000000 1.0
C      1  0.4776700000000  0.5557270000000  0.5014350000000 1.0
C      1  0.4296560000000  0.5606720000000  0.4519480000000 1.0
C      1  0.4967660000000  0.5385360000000  0.5144550000000 1.0
C      1  0.5938510000000  0.4568300000000  0.5423620000000 1.0
C      1  0.5354070000000  0.5022410000000  0.3938280000000 1.0
C      1  0.5820620000000  0.4300290000000  0.5097090000000 1.0
C      1  0.5181500000000  0.5389900000000  0.4938500000000 1.0
C      1  0.4634380000000  0.4749150000000  0.4928920000000 1.0
C      1  0.6089750000000  0.5157900000000  0.4509350000000 1.0
C      1  0.5126820000000  0.5187800000000  0.6019330000000 1.0
C      1  0.4424710000000  0.4699500000000  0.4505170000000 1.0
C      1  0.4792280000000  0.5004710000000  0.4890700000000 1.0
C      1  0.4509470000000  0.4693320000000  0.5925820000000 1.0
C      1  0.4504900000000  0.5542940000000  0.5109840000000 1.0
C      1  0.4527610000000  0.4469590000000  0.4102580000000 1.0
C      1  0.4871570000000  0.5000440000000  0.6076750000000 1.0
C      1  0.5590560000000  0.5041860000000  0.5877390000000 1.0
C      1  0.4693140000000  0.5193650000000  0.5694590000000 1.0
C      1  0.5862980000000  0.4435650000000  0.4574330000000 1.0
C      1  0.4784730000000  0.5915940000000  0.4386370000000 1.0
C      1  0.4690360000000  0.5849250000000  0.4656890000000 1.0
C      1  0.5056820000000  0.4841780000000  0.5770710000000 1.0
C      1  0.5730290000000  0.4246460000000  0.5367740000000 1.0
C      1  0.5581030000000  0.4212890000000  0.4728450000000 1.0
C      1  0.5065500000000  0.5932620000000  0.4395270000000 1.0
C      1  0.5444940000000  0.5344040000000  0.5044650000000 1.0
C      1  0.4309060000000  0.4139960000000  0.5202050000000 1.0
C      1  0.4143280000000  0.4374390000000  0.5100300000000 1.0
C      1  0.5201700000000  0.5819030000000  0.4629220000000 1.0
C      1  0.4856150000000  0.5094420000000  0.3873760000000 1.0
C      1  0.4534420000000  0.4229510000000  0.5385030000000 1.0
END
