TITL C-950533-5798-102 1.78598299569804e-06 125000 -226.230286277944 0 0 38 (C1) n - 1
REM
REM in /home/bkarasulu/work/CARBON/AIRSS/Generating-Clusters/EDIP-Nigel-Params/with-SteepDescent/Only-C1/SD-CG/HFTN-CG
REM
REM
REM
REM
REM
REM ./C.cell (11c1c37f851c82e70ff6c80c92926a4b)
REM
REM compiler GCC version 9.2.1 20190827 (Red Hat 9.2.1-1)
REM options -cpp -mtune=generic -march=x86-64 -g -O0 -fpre-include=/usr/include/finclude/math-vector-fortran.h
REM seed -896820915 1511244432 83253293 1385673665 -1802664295 451962840 2065488833 -1577093012 -1011770568 -1190759739 1071586852 712024019 -974624859 -1172913313 -231895043 -1686627093 -675886621 -2076835623 410854743 -290432616 -1155102177 -972067154 -1840418261 -976406983 -345995509 -1488056940 -1205310091 13663247 -915099439 1223268504 -218148048 -1023390818 19301750
REM
CELL 1.54180   50.00000   50.00000   50.00000   90.00000   90.00000   90.00000
LATT -1
SFAC C  
C      1  0.5574600000000  0.4877120000000  0.4704980000000 1.0
C      1  0.4784630000000  0.4546350000000  0.4999100000000 1.0
C      1  0.4949550000000  0.4731180000000  0.4582350000000 1.0
C      1  0.4724880000000  0.5221130000000  0.4543400000000 1.0
C      1  0.5564650000000  0.5255910000000  0.5225750000000 1.0
C      1  0.5180120000000  0.4909580000000  0.5251780000000 1.0
C      1  0.5718050000000  0.5033140000000  0.5155160000000 1.0
C      1  0.4396560000000  0.5096080000000  0.4855900000000 1.0
C      1  0.5533750000000  0.5441160000000  0.5016290000000 1.0
C      1  0.4654010000000  0.5038440000000  0.5130720000000 1.0
C      1  0.5136510000000  0.5374570000000  0.4759240000000 1.0
C      1  0.4531030000000  0.5031160000000  0.4612940000000 1.0
C      1  0.5373650000000  0.4707550000000  0.5123960000000 1.0
C      1  0.4537730000000  0.4625820000000  0.4874710000000 1.0
C      1  0.4987520000000  0.5314580000000  0.5019900000000 1.0
C      1  0.4461260000000  0.5339940000000  0.4982200000000 1.0
C      1  0.4746650000000  0.4630700000000  0.5277400000000 1.0
C      1  0.4893030000000  0.4931010000000  0.5650700000000 1.0
C      1  0.4623650000000  0.4752750000000  0.4620000000000 1.0
C      1  0.4455700000000  0.4696310000000  0.5250250000000 1.0
C      1  0.4968820000000  0.4781170000000  0.5426430000000 1.0
C      1  0.4721510000000  0.5429340000000  0.5006330000000 1.0
C      1  0.5554810000000  0.5150340000000  0.4638260000000 1.0
C      1  0.5305160000000  0.5179720000000  0.5347240000000 1.0
C      1  0.4368690000000  0.4926530000000  0.5393300000000 1.0
C      1  0.4974960000000  0.4988210000000  0.5032050000000 1.0
C      1  0.5102770000000  0.5386140000000  0.5293060000000 1.0
C      1  0.5002550000000  0.4698050000000  0.4879800000000 1.0
C      1  0.5610820000000  0.4825490000000  0.4998180000000 1.0
C      1  0.5431610000000  0.5369990000000  0.4764390000000 1.0
C      1  0.5432570000000  0.4686860000000  0.4551280000000 1.0
C      1  0.4904140000000  0.5373230000000  0.5491040000000 1.0
C      1  0.5099280000000  0.4972390000000  0.4480410000000 1.0
C      1  0.4757420000000  0.5172460000000  0.5618490000000 1.0
C      1  0.5245370000000  0.4545210000000  0.4935830000000 1.0
C      1  0.5188200000000  0.4597670000000  0.4451290000000 1.0
C      1  0.4500120000000  0.5125080000000  0.5527670000000 1.0
C      1  0.5003690000000  0.5237660000000  0.4528220000000 1.0
END
