TITL C-951338-5626-545 0.032310985235446 125000 -21.8093223674307 0 0 5 (D(inf)h) n - 1
REM
REM in /home/bkarasulu/work/CARBON/AIRSS/Generating-Clusters/EDIP-Nigel-Params/with-SteepDescent/Only-C1/SD-CG/HFTN-CG
REM
REM
REM
REM
REM
REM ./C.cell (11c1c37f851c82e70ff6c80c92926a4b)
REM
REM compiler GCC version 9.2.1 20190827 (Red Hat 9.2.1-1)
REM options -cpp -mtune=generic -march=x86-64 -g -O0 -fpre-include=/usr/include/finclude/math-vector-fortran.h
REM seed -1194876714 -794985649 261023581 2130761539 1328998276 499073385 1995928283 -2010451130 -347793202 -1962319211 425728186 481023364 -986112236 1241360250 -2087392839 363224795 -165036076 1363064997 1735934532 -1959732780 397961024 -1640502405 1737918562 1166466411 1134702941 -849683644 -1910523540 -649979462 -1615624645 -750213589 -147299366 -1618607952 -673195460
REM
CELL 1.54180   50.00000   50.00000   50.00000   90.00000   90.00000   90.00000
LATT -1
SFAC C  
C      1  0.5230650000000  0.4872600000000  0.4986240000000 1.0
C      1  0.5454170000000  0.4749140000000  0.4972900000000 1.0
C      1  0.5000000000000  0.5000000000000  0.5000000000000 1.0
C      1  0.4545830000000  0.5250860000000  0.5027100000000 1.0
C      1  0.4769350000000  0.5127400000000  0.5013760000000 1.0
END
