TITL C-951339-9237-620 -6.85611850304722e-06 125000 -1203.41045881347 0 0 194 (C1) n - 1
REM
REM in /home/bkarasulu/work/CARBON/AIRSS/Generating-Clusters/EDIP-Nigel-Params/with-SteepDescent/Only-C1/SD-CG/HFTN-CG
REM
REM
REM
REM
REM
REM ./C.cell (11c1c37f851c82e70ff6c80c92926a4b)
REM
REM compiler GCC version 9.2.1 20190827 (Red Hat 9.2.1-1)
REM options -cpp -mtune=generic -march=x86-64 -g -O0 -fpre-include=/usr/include/finclude/math-vector-fortran.h
REM seed -620967190 -932595777 -2127884454 1865288762 -459704167 -182883600 778796139 1152792987 -1460311778 267535091 -1726196118 480856255 483427176 -1769873234 369436150 1601340460 251319319 1775373459 -1685078102 -1935048186 1919371393 -1097341676 -2132084409 760842171 692818992 -1919825651 -725306194 274270883 2019964855 728505585 1812833747 386694377 -1831969659
REM
CELL 1.54180   50.00000   50.00000   50.00000   90.00000   90.00000   90.00000
LATT -1
SFAC C  
C      1  0.4583790000000  0.6279490000000  0.4839310000000 1.0
C      1  0.4908950000000  0.4924010000000  0.5345910000000 1.0
C      1  0.4460390000000  0.4603190000000  0.4767110000000 1.0
C      1  0.5207660000000  0.5931850000000  0.5684440000000 1.0
C      1  0.4788650000000  0.4228780000000  0.4763980000000 1.0
C      1  0.4591800000000  0.5800460000000  0.5299190000000 1.0
C      1  0.4765270000000  0.4829670000000  0.5611670000000 1.0
C      1  0.4759990000000  0.5709470000000  0.5055400000000 1.0
C      1  0.4652390000000  0.4473090000000  0.4537170000000 1.0
C      1  0.5312270000000  0.5722600000000  0.3904980000000 1.0
C      1  0.5814980000000  0.4817790000000  0.5700480000000 1.0
C      1  0.3985730000000  0.4630580000000  0.5182040000000 1.0
C      1  0.5613160000000  0.5384260000000  0.4084380000000 1.0
C      1  0.5393360000000  0.5219630000000  0.4214070000000 1.0
C      1  0.4497000000000  0.5611260000000  0.5847280000000 1.0
C      1  0.4230640000000  0.4454120000000  0.4931060000000 1.0
C      1  0.4377480000000  0.5137030000000  0.5641140000000 1.0
C      1  0.3806760000000  0.4726120000000  0.5397620000000 1.0
C      1  0.5229070000000  0.5587960000000  0.4862650000000 1.0
C      1  0.6112480000000  0.5116930000000  0.4714340000000 1.0
C      1  0.5007630000000  0.4644230000000  0.6106770000000 1.0
C      1  0.4073000000000  0.5228250000000  0.5269940000000 1.0
C      1  0.5012370000000  0.5855990000000  0.4939870000000 1.0
C      1  0.5504230000000  0.5111960000000  0.5591400000000 1.0
C      1  0.4709230000000  0.5952070000000  0.4517560000000 1.0
C      1  0.5662600000000  0.4263240000000  0.5544950000000 1.0
C      1  0.6129260000000  0.5070140000000  0.5228850000000 1.0
C      1  0.4628000000000  0.5392270000000  0.6026250000000 1.0
C      1  0.4426930000000  0.4483490000000  0.5832040000000 1.0
C      1  0.4224690000000  0.5583750000000  0.5561400000000 1.0
C      1  0.4447750000000  0.4869490000000  0.5509300000000 1.0
C      1  0.5084100000000  0.5564580000000  0.5448870000000 1.0
C      1  0.6137760000000  0.5369280000000  0.4598510000000 1.0
C      1  0.5529920000000  0.5380120000000  0.5209680000000 1.0
C      1  0.4972980000000  0.5375520000000  0.5249210000000 1.0
C      1  0.4474370000000  0.5365860000000  0.4930760000000 1.0
C      1  0.5790850000000  0.5551290000000  0.5874360000000 1.0
C      1  0.4604020000000  0.5711340000000  0.4354270000000 1.0
C      1  0.5968890000000  0.5633420000000  0.5054660000000 1.0
C      1  0.4369940000000  0.5232930000000  0.4085730000000 1.0
C      1  0.5540530000000  0.4379740000000  0.5788370000000 1.0
C      1  0.5580480000000  0.4011410000000  0.5454290000000 1.0
C      1  0.5289680000000  0.5369490000000  0.4652790000000 1.0
C      1  0.5374440000000  0.6086670000000  0.5171450000000 1.0
C      1  0.4424880000000  0.3951860000000  0.4602630000000 1.0
C      1  0.5311460000000  0.3943020000000  0.5429680000000 1.0
C      1  0.4941270000000  0.5460130000000  0.6090970000000 1.0
C      1  0.5838980000000  0.5400270000000  0.5198350000000 1.0
C      1  0.5398760000000  0.5515160000000  0.5465960000000 1.0
C      1  0.5978400000000  0.4627020000000  0.4955850000000 1.0
C      1  0.4397480000000  0.3945020000000  0.4892010000000 1.0
C      1  0.5141520000000  0.4067630000000  0.5630250000000 1.0
C      1  0.5880370000000  0.5011180000000  0.4277120000000 1.0
C      1  0.4658010000000  0.4298430000000  0.4033030000000 1.0
C      1  0.5857550000000  0.5302630000000  0.4224750000000 1.0
C      1  0.5720710000000  0.4548040000000  0.4201200000000 1.0
C      1  0.4993250000000  0.4436840000000  0.4803440000000 1.0
C      1  0.5352850000000  0.5741040000000  0.5843540000000 1.0
C      1  0.5474100000000  0.4996610000000  0.4432220000000 1.0
C      1  0.4742070000000  0.4814440000000  0.3871930000000 1.0
C      1  0.4766440000000  0.4921250000000  0.4795840000000 1.0
C      1  0.5271320000000  0.5049600000000  0.4010390000000 1.0
C      1  0.4041050000000  0.5172130000000  0.4437010000000 1.0
C      1  0.4784630000000  0.5538950000000  0.4158670000000 1.0
C      1  0.4476400000000  0.4483650000000  0.4132540000000 1.0
C      1  0.6013720000000  0.4912470000000  0.4526070000000 1.0
C      1  0.5883330000000  0.5779510000000  0.4801070000000 1.0
C      1  0.5233960000000  0.4802390000000  0.4423390000000 1.0
C      1  0.4572630000000  0.5619710000000  0.4859080000000 1.0
C      1  0.5977750000000  0.5244780000000  0.5435430000000 1.0
C      1  0.5775860000000  0.5693260000000  0.4529890000000 1.0
C      1  0.4130630000000  0.5717120000000  0.5291980000000 1.0
C      1  0.4090690000000  0.5481850000000  0.5120640000000 1.0
C      1  0.4813630000000  0.4682450000000  0.5190510000000 1.0
C      1  0.4861750000000  0.4534250000000  0.5645030000000 1.0
C      1  0.5874940000000  0.4376350000000  0.5088190000000 1.0
C      1  0.5210760000000  0.4445860000000  0.5267330000000 1.0
C      1  0.4121470000000  0.4964960000000  0.4890230000000 1.0
C      1  0.5717320000000  0.4822320000000  0.4113900000000 1.0
C      1  0.5194120000000  0.5388850000000  0.4381640000000 1.0
C      1  0.4264870000000  0.5068270000000  0.5905370000000 1.0
C      1  0.5615630000000  0.4066990000000  0.4746890000000 1.0
C      1  0.5243720000000  0.4807380000000  0.4982920000000 1.0
C      1  0.4299760000000  0.4944750000000  0.4097210000000 1.0
C      1  0.4104070000000  0.4896780000000  0.4320430000000 1.0
C      1  0.5475970000000  0.4850600000000  0.3916890000000 1.0
C      1  0.4651360000000  0.5303120000000  0.5565840000000 1.0
C      1  0.4762250000000  0.5182280000000  0.5301540000000 1.0
C      1  0.4296760000000  0.4663830000000  0.5668280000000 1.0
C      1  0.4865340000000  0.3963280000000  0.4650360000000 1.0
C      1  0.5769110000000  0.5278070000000  0.5924070000000 1.0
C      1  0.3998670000000  0.5198470000000  0.4729840000000 1.0
C      1  0.5257290000000  0.4284630000000  0.5821420000000 1.0
C      1  0.4899780000000  0.5312520000000  0.4342210000000 1.0
C      1  0.5115590000000  0.6005290000000  0.5180420000000 1.0
C      1  0.4372730000000  0.5841950000000  0.4852650000000 1.0
C      1  0.5784580000000  0.4154310000000  0.4949930000000 1.0
C      1  0.3916630000000  0.4747190000000  0.4924930000000 1.0
C      1  0.5790850000000  0.5118620000000  0.5670050000000 1.0
C      1  0.5456760000000  0.5614580000000  0.5042450000000 1.0
C      1  0.3879040000000  0.4798900000000  0.5663330000000 1.0
C      1  0.4146260000000  0.5297540000000  0.5543910000000 1.0
C      1  0.5959340000000  0.4644650000000  0.4641160000000 1.0
C      1  0.5551880000000  0.5677510000000  0.4064940000000 1.0
C      1  0.4276630000000  0.4412850000000  0.4328230000000 1.0
C      1  0.5166670000000  0.3898480000000  0.5184720000000 1.0
C      1  0.5088260000000  0.5011090000000  0.5737580000000 1.0
C      1  0.5470800000000  0.5069490000000  0.5309830000000 1.0
C      1  0.4297100000000  0.5315380000000  0.4363140000000 1.0
C      1  0.4659500000000  0.4352710000000  0.5777050000000 1.0
C      1  0.5771670000000  0.4873190000000  0.4974370000000 1.0
C      1  0.5100230000000  0.4543800000000  0.5833540000000 1.0
C      1  0.4106450000000  0.4808950000000  0.5835790000000 1.0
C      1  0.4552130000000  0.4326480000000  0.5202050000000 1.0
C      1  0.5321200000000  0.4589100000000  0.3903810000000 1.0
C      1  0.4322040000000  0.5612570000000  0.4413010000000 1.0
C      1  0.5507030000000  0.4899900000000  0.4810580000000 1.0
C      1  0.4490990000000  0.5154580000000  0.4547700000000 1.0
C      1  0.5630050000000  0.5746470000000  0.5753340000000 1.0
C      1  0.4634500000000  0.5318090000000  0.3984920000000 1.0
C      1  0.5205310000000  0.4961770000000  0.5234410000000 1.0
C      1  0.4505260000000  0.6065070000000  0.4702200000000 1.0
C      1  0.4406190000000  0.4187930000000  0.5406660000000 1.0
C      1  0.5447840000000  0.4158050000000  0.4279340000000 1.0
C      1  0.5562360000000  0.5807110000000  0.4344220000000 1.0
C      1  0.4293580000000  0.5009030000000  0.5177660000000 1.0
C      1  0.5472900000000  0.4909390000000  0.6090590000000 1.0
C      1  0.5353770000000  0.4532600000000  0.5041140000000 1.0
C      1  0.5521460000000  0.5206540000000  0.6061710000000 1.0
C      1  0.5459570000000  0.4429890000000  0.4134540000000 1.0
C      1  0.4906650000000  0.5192390000000  0.4792520000000 1.0
C      1  0.5817150000000  0.4429490000000  0.5368270000000 1.0
C      1  0.3638460000000  0.4928050000000  0.5295650000000 1.0
C      1  0.4337170000000  0.4877370000000  0.4694570000000 1.0
C      1  0.5257670000000  0.4506540000000  0.4459140000000 1.0
C      1  0.5325750000000  0.4065050000000  0.4810290000000 1.0
C      1  0.5859060000000  0.4718280000000  0.5416140000000 1.0
C      1  0.5054120000000  0.5712460000000  0.4042690000000 1.0
C      1  0.4887050000000  0.3954020000000  0.5220180000000 1.0
C      1  0.4503250000000  0.4748910000000  0.4031260000000 1.0
C      1  0.4837440000000  0.5022680000000  0.4242890000000 1.0
C      1  0.5559900000000  0.4704920000000  0.5841560000000 1.0
C      1  0.5950460000000  0.5485770000000  0.4428960000000 1.0
C      1  0.4338110000000  0.4185740000000  0.4476330000000 1.0
C      1  0.5191000000000  0.5678610000000  0.4312650000000 1.0
C      1  0.5205620000000  0.4858560000000  0.6223690000000 1.0
C      1  0.4748850000000  0.5315890000000  0.4589240000000 1.0
C      1  0.4784150000000  0.5100240000000  0.3865810000000 1.0
C      1  0.5270630000000  0.4761700000000  0.5726920000000 1.0
C      1  0.4254300000000  0.4157250000000  0.5050580000000 1.0
C      1  0.5667060000000  0.4860290000000  0.5240290000000 1.0
C      1  0.5219810000000  0.5910820000000  0.4491990000000 1.0
C      1  0.4943280000000  0.4708770000000  0.4926890000000 1.0
C      1  0.4939800000000  0.4469790000000  0.5351980000000 1.0
C      1  0.4756080000000  0.5926260000000  0.5515740000000 1.0
C      1  0.5960920000000  0.5111690000000  0.4973460000000 1.0
C      1  0.4987980000000  0.5981780000000  0.4654020000000 1.0
C      1  0.5011570000000  0.4646000000000  0.3964970000000 1.0
C      1  0.4910230000000  0.4399960000000  0.4096440000000 1.0
C      1  0.5781430000000  0.5965290000000  0.5003470000000 1.0
C      1  0.4513800000000  0.5106740000000  0.6063950000000 1.0
C      1  0.3988300000000  0.4531980000000  0.4729240000000 1.0
C      1  0.5282270000000  0.4375390000000  0.4785980000000 1.0
C      1  0.5164380000000  0.4087280000000  0.4346530000000 1.0
C      1  0.5088390000000  0.4874020000000  0.4170230000000 1.0
C      1  0.4129040000000  0.4629570000000  0.4473290000000 1.0
C      1  0.4892250000000  0.5047430000000  0.5974960000000 1.0
C      1  0.4997710000000  0.5414450000000  0.4976630000000 1.0
C      1  0.4745250000000  0.5766760000000  0.5770170000000 1.0
C      1  0.5058530000000  0.5116930000000  0.6217430000000 1.0
C      1  0.5044410000000  0.5878330000000  0.5445730000000 1.0
C      1  0.5268350000000  0.5256860000000  0.5709110000000 1.0
C      1  0.4177460000000  0.5695570000000  0.4669240000000 1.0
C      1  0.4559580000000  0.5128680000000  0.5064720000000 1.0
C      1  0.5561560000000  0.5871420000000  0.5173180000000 1.0
C      1  0.4610980000000  0.4122400000000  0.5607330000000 1.0
C      1  0.4874620000000  0.4056520000000  0.5493050000000 1.0
C      1  0.5493620000000  0.5171730000000  0.4684630000000 1.0
C      1  0.4691160000000  0.4118180000000  0.5038220000000 1.0
C      1  0.5650320000000  0.5802780000000  0.5462200000000 1.0
C      1  0.5260410000000  0.5455490000000  0.5958650000000 1.0
C      1  0.4508600000000  0.5558270000000  0.5463130000000 1.0
C      1  0.5609210000000  0.4243680000000  0.4517090000000 1.0
C      1  0.4052960000000  0.5472850000000  0.4830760000000 1.0
C      1  0.4985800000000  0.4353190000000  0.4374860000000 1.0
C      1  0.4751390000000  0.4798690000000  0.6053400000000 1.0
C      1  0.4662320000000  0.3832710000000  0.4502780000000 1.0
C      1  0.4712310000000  0.4833650000000  0.4488240000000 1.0
C      1  0.5153630000000  0.3927980000000  0.4596960000000 1.0
C      1  0.4327040000000  0.5903520000000  0.5167590000000 1.0
C      1  0.6114300000000  0.4784840000000  0.5277080000000 1.0
C      1  0.4903150000000  0.5503620000000  0.5705430000000 1.0
C      1  0.3800000000000  0.5142190000000  0.5254270000000 1.0
C      1  0.5800720000000  0.4463910000000  0.4468920000000 1.0
END
