TITL C-951344-124-298 -1.71520094805006e-06 125000 -1188.84525902583 0 0 189 (C1) n - 1
REM
REM in /home/bkarasulu/work/CARBON/AIRSS/Generating-Clusters/EDIP-Nigel-Params/with-SteepDescent/Only-C1/SD-CG/HFTN-CG
REM
REM
REM
REM
REM
REM ./C.cell (11c1c37f851c82e70ff6c80c92926a4b)
REM
REM compiler GCC version 9.2.1 20190827 (Red Hat 9.2.1-1)
REM options -cpp -mtune=generic -march=x86-64 -g -O0 -fpre-include=/usr/include/finclude/math-vector-fortran.h
REM seed 1169846443 -1009133160 342039749 -1856076777 -2145896559 -297893467 -1090335449 357841736 719063425 1730821615 -1138909256 1914955496 -477569369 1481587472 -966103715 1777667817 1714592835 1892337895 -643063057 -1370924395 -378650865 207924631 2088112808 -1072587469 -617995893 -574313366 132260979 -1475458008 -918032969 720063701 -302252788 494265225 -373484553
REM
CELL 1.54180   50.00000   50.00000   50.00000   90.00000   90.00000   90.00000
LATT -1
SFAC C  
C      1  0.4498360000000  0.4328110000000  0.5349320000000 1.0
C      1  0.4761260000000  0.5482070000000  0.5680910000000 1.0
C      1  0.6090370000000  0.4945740000000  0.5342060000000 1.0
C      1  0.5038100000000  0.3864410000000  0.4675640000000 1.0
C      1  0.4811490000000  0.3758800000000  0.5100780000000 1.0
C      1  0.4584800000000  0.4753250000000  0.4011830000000 1.0
C      1  0.4939880000000  0.5477370000000  0.3875340000000 1.0
C      1  0.4013360000000  0.4758190000000  0.5632590000000 1.0
C      1  0.4716120000000  0.4489550000000  0.4037530000000 1.0
C      1  0.5991670000000  0.4674260000000  0.5372540000000 1.0
C      1  0.4795890000000  0.4859690000000  0.4981050000000 1.0
C      1  0.5234850000000  0.6041490000000  0.4613770000000 1.0
C      1  0.4522530000000  0.4286730000000  0.4141610000000 1.0
C      1  0.4237200000000  0.5317800000000  0.4333530000000 1.0
C      1  0.5918940000000  0.5363890000000  0.5466570000000 1.0
C      1  0.4104020000000  0.5479400000000  0.4952430000000 1.0
C      1  0.5696380000000  0.5063160000000  0.4276420000000 1.0
C      1  0.5337720000000  0.6009200000000  0.5098840000000 1.0
C      1  0.4185380000000  0.5548380000000  0.5565490000000 1.0
C      1  0.5034130000000  0.5112730000000  0.5254080000000 1.0
C      1  0.5206800000000  0.4098580000000  0.5317600000000 1.0
C      1  0.5520440000000  0.5047280000000  0.4500900000000 1.0
C      1  0.4897620000000  0.5874000000000  0.5021970000000 1.0
C      1  0.4995920000000  0.5332240000000  0.4229830000000 1.0
C      1  0.4886480000000  0.6012500000000  0.4342710000000 1.0
C      1  0.4321020000000  0.5129550000000  0.4130750000000 1.0
C      1  0.4751690000000  0.4244910000000  0.5923520000000 1.0
C      1  0.5008850000000  0.5617800000000  0.5195400000000 1.0
C      1  0.4128460000000  0.4419670000000  0.5078360000000 1.0
C      1  0.5671110000000  0.5232280000000  0.5919690000000 1.0
C      1  0.4795890000000  0.4279620000000  0.4869190000000 1.0
C      1  0.5872590000000  0.5535030000000  0.4969090000000 1.0
C      1  0.5658500000000  0.5300090000000  0.3837280000000 1.0
C      1  0.6120890000000  0.4901980000000  0.4822090000000 1.0
C      1  0.4968540000000  0.4493930000000  0.4196390000000 1.0
C      1  0.5688110000000  0.4198350000000  0.5431730000000 1.0
C      1  0.4525750000000  0.5991850000000  0.5312430000000 1.0
C      1  0.4486450000000  0.5322210000000  0.6025140000000 1.0
C      1  0.4996420000000  0.4784620000000  0.4799910000000 1.0
C      1  0.5182210000000  0.4300190000000  0.4567330000000 1.0
C      1  0.4113440000000  0.4788270000000  0.5891510000000 1.0
C      1  0.4426200000000  0.5993530000000  0.4435790000000 1.0
C      1  0.5537130000000  0.3973230000000  0.4601160000000 1.0
C      1  0.4706950000000  0.5190900000000  0.6151130000000 1.0
C      1  0.4385320000000  0.5713040000000  0.5722290000000 1.0
C      1  0.4610220000000  0.4065620000000  0.5422810000000 1.0
C      1  0.5892990000000  0.4581550000000  0.5634940000000 1.0
C      1  0.4409510000000  0.4379420000000  0.4628930000000 1.0
C      1  0.5260650000000  0.5484810000000  0.4860050000000 1.0
C      1  0.5854670000000  0.5495910000000  0.4423580000000 1.0
C      1  0.4273260000000  0.4424750000000  0.4373950000000 1.0
C      1  0.5480740000000  0.4017660000000  0.4891000000000 1.0
C      1  0.5211000000000  0.4592290000000  0.5284560000000 1.0
C      1  0.4784480000000  0.6084540000000  0.5213550000000 1.0
C      1  0.5037530000000  0.5542750000000  0.4675270000000 1.0
C      1  0.5452970000000  0.4644200000000  0.4853440000000 1.0
C      1  0.5050230000000  0.3778570000000  0.4954640000000 1.0
C      1  0.4975160000000  0.6110030000000  0.5434720000000 1.0
C      1  0.5016040000000  0.4589460000000  0.6171190000000 1.0
C      1  0.4019750000000  0.5271600000000  0.4513640000000 1.0
C      1  0.4956300000000  0.5079230000000  0.6041620000000 1.0
C      1  0.6104160000000  0.5079140000000  0.5059570000000 1.0
C      1  0.4671740000000  0.5463230000000  0.3970590000000 1.0
C      1  0.5053380000000  0.5533860000000  0.5755540000000 1.0
C      1  0.5344780000000  0.5900100000000  0.5629220000000 1.0
C      1  0.6012440000000  0.5125410000000  0.5568700000000 1.0
C      1  0.4567660000000  0.5639310000000  0.4170230000000 1.0
C      1  0.3854030000000  0.5365140000000  0.5005140000000 1.0
C      1  0.4437430000000  0.4048520000000  0.4986690000000 1.0
C      1  0.5132540000000  0.6043760000000  0.4892370000000 1.0
C      1  0.5500850000000  0.5973050000000  0.4523000000000 1.0
C      1  0.4285890000000  0.4264650000000  0.4877310000000 1.0
C      1  0.5072540000000  0.4636690000000  0.5742800000000 1.0
C      1  0.3954990000000  0.4643070000000  0.5084020000000 1.0
C      1  0.4529290000000  0.5541600000000  0.4675570000000 1.0
C      1  0.5842930000000  0.5044050000000  0.5793440000000 1.0
C      1  0.4823660000000  0.6185690000000  0.4564190000000 1.0
C      1  0.5225600000000  0.5179510000000  0.4069290000000 1.0
C      1  0.5519690000000  0.4384260000000  0.5881080000000 1.0
C      1  0.4632030000000  0.5914680000000  0.4233190000000 1.0
C      1  0.3942920000000  0.5034200000000  0.4664400000000 1.0
C      1  0.4590050000000  0.5874580000000  0.5572940000000 1.0
C      1  0.4032730000000  0.5693270000000  0.5378200000000 1.0
C      1  0.4837310000000  0.4664460000000  0.5199330000000 1.0
C      1  0.5825890000000  0.5621330000000  0.4690350000000 1.0
C      1  0.5575240000000  0.5734010000000  0.5636710000000 1.0
C      1  0.4925070000000  0.4425190000000  0.5560390000000 1.0
C      1  0.5209640000000  0.5524370000000  0.5432770000000 1.0
C      1  0.4845640000000  0.3827530000000  0.4465960000000 1.0
C      1  0.4623150000000  0.4018770000000  0.4197300000000 1.0
C      1  0.4919760000000  0.5349420000000  0.5107060000000 1.0
C      1  0.5355190000000  0.5208160000000  0.4877930000000 1.0
C      1  0.5970480000000  0.4513830000000  0.5134130000000 1.0
C      1  0.5093850000000  0.5238080000000  0.3810720000000 1.0
C      1  0.5788270000000  0.4292560000000  0.5178530000000 1.0
C      1  0.5812200000000  0.4762690000000  0.5844650000000 1.0
C      1  0.5527110000000  0.5241290000000  0.4088570000000 1.0
C      1  0.4640620000000  0.5313690000000  0.5042420000000 1.0
C      1  0.5569350000000  0.4977100000000  0.5228790000000 1.0
C      1  0.4267490000000  0.5764920000000  0.4498150000000 1.0
C      1  0.5643120000000  0.5840550000000  0.4734990000000 1.0
C      1  0.4317170000000  0.5584400000000  0.4290900000000 1.0
C      1  0.5102200000000  0.5833180000000  0.5802790000000 1.0
C      1  0.5346680000000  0.5039360000000  0.5602980000000 1.0
C      1  0.4811500000000  0.4998430000000  0.5547500000000 1.0
C      1  0.4592370000000  0.3910950000000  0.5179590000000 1.0
C      1  0.5841110000000  0.4192300000000  0.4696800000000 1.0
C      1  0.4695230000000  0.4320940000000  0.4604700000000 1.0
C      1  0.4618630000000  0.5226600000000  0.5566700000000 1.0
C      1  0.4546480000000  0.5205260000000  0.3955540000000 1.0
C      1  0.5220380000000  0.5965540000000  0.5369940000000 1.0
C      1  0.5727020000000  0.4347760000000  0.5669060000000 1.0
C      1  0.4417600000000  0.5836450000000  0.5091570000000 1.0
C      1  0.5082820000000  0.4205410000000  0.4835670000000 1.0
C      1  0.5280240000000  0.3907440000000  0.5093080000000 1.0
C      1  0.4625230000000  0.4505660000000  0.5557080000000 1.0
C      1  0.4572700000000  0.4963710000000  0.4476970000000 1.0
C      1  0.5229350000000  0.4286050000000  0.5840420000000 1.0
C      1  0.4580230000000  0.5571920000000  0.5900550000000 1.0
C      1  0.5485070000000  0.4314170000000  0.4241980000000 1.0
C      1  0.5675590000000  0.4766550000000  0.4192360000000 1.0
C      1  0.5673600000000  0.5674280000000  0.5155700000000 1.0
C      1  0.4863940000000  0.4865850000000  0.5819090000000 1.0
C      1  0.3936520000000  0.4910920000000  0.5171010000000 1.0
C      1  0.5578590000000  0.4658280000000  0.5996740000000 1.0
C      1  0.4887390000000  0.4024120000000  0.4276130000000 1.0
C      1  0.4606960000000  0.5821230000000  0.4852490000000 1.0
C      1  0.4058810000000  0.4507340000000  0.5521830000000 1.0
C      1  0.5928480000000  0.4669210000000  0.4869770000000 1.0
C      1  0.5399750000000  0.5123850000000  0.5890120000000 1.0
C      1  0.3886690000000  0.5094360000000  0.4950660000000 1.0
C      1  0.5697790000000  0.5630520000000  0.4209420000000 1.0
C      1  0.4812350000000  0.4073200000000  0.5662900000000 1.0
C      1  0.4138450000000  0.4817990000000  0.4627120000000 1.0
C      1  0.5379520000000  0.4877300000000  0.6062670000000 1.0
C      1  0.4794940000000  0.5361800000000  0.4688340000000 1.0
C      1  0.5290590000000  0.5017180000000  0.5095340000000 1.0
C      1  0.4138250000000  0.5256700000000  0.5628380000000 1.0
C      1  0.5942360000000  0.5207050000000  0.4389760000000 1.0
C      1  0.4654230000000  0.4785430000000  0.5409600000000 1.0
C      1  0.4394040000000  0.5172610000000  0.5777800000000 1.0
C      1  0.4383490000000  0.4985890000000  0.4713580000000 1.0
C      1  0.5301460000000  0.4854720000000  0.4438190000000 1.0
C      1  0.4500270000000  0.4808620000000  0.4954080000000 1.0
C      1  0.6074450000000  0.5063970000000  0.4595310000000 1.0
C      1  0.5480200000000  0.5779920000000  0.4971680000000 1.0
C      1  0.4553240000000  0.4463110000000  0.5850660000000 1.0
C      1  0.5723700000000  0.5548040000000  0.3938130000000 1.0
C      1  0.5667190000000  0.4829130000000  0.4928020000000 1.0
C      1  0.4005710000000  0.4998330000000  0.5460770000000 1.0
C      1  0.5362440000000  0.4109320000000  0.4420640000000 1.0
C      1  0.5359300000000  0.4335070000000  0.5282980000000 1.0
C      1  0.5382500000000  0.4590840000000  0.4575430000000 1.0
C      1  0.5012880000000  0.4334880000000  0.6050940000000 1.0
C      1  0.5261960000000  0.4493070000000  0.4102200000000 1.0
C      1  0.5866590000000  0.4472720000000  0.4622850000000 1.0
C      1  0.4303990000000  0.5334760000000  0.4769390000000 1.0
C      1  0.5177530000000  0.5227800000000  0.5467320000000 1.0
C      1  0.5712500000000  0.5249470000000  0.5274220000000 1.0
C      1  0.4433470000000  0.4913520000000  0.5234830000000 1.0
C      1  0.5119830000000  0.5555120000000  0.4395020000000 1.0
C      1  0.4855740000000  0.5988640000000  0.5679900000000 1.0
C      1  0.5530490000000  0.5863730000000  0.4256130000000 1.0
C      1  0.4927880000000  0.4290330000000  0.4402850000000 1.0
C      1  0.4832380000000  0.5135280000000  0.4467160000000 1.0
C      1  0.5529570000000  0.5563680000000  0.5408910000000 1.0
C      1  0.5152670000000  0.5839570000000  0.4302990000000 1.0
C      1  0.4699240000000  0.4978900000000  0.3864840000000 1.0
C      1  0.5621930000000  0.5109150000000  0.4778470000000 1.0
C      1  0.4370650000000  0.4892190000000  0.5857610000000 1.0
C      1  0.5119210000000  0.4083000000000  0.5611040000000 1.0
C      1  0.4605580000000  0.4742790000000  0.5932600000000 1.0
C      1  0.4410970000000  0.4868670000000  0.4238770000000 1.0
C      1  0.5225830000000  0.4742270000000  0.4996740000000 1.0
C      1  0.5746780000000  0.4116270000000  0.4960340000000 1.0
C      1  0.5368350000000  0.4768570000000  0.4132840000000 1.0
C      1  0.5266090000000  0.4751500000000  0.5546600000000 1.0
C      1  0.5043060000000  0.4943600000000  0.4564740000000 1.0
C      1  0.4635020000000  0.4459590000000  0.5071410000000 1.0
C      1  0.5639800000000  0.4533780000000  0.4408070000000 1.0
C      1  0.4585950000000  0.6068140000000  0.4667530000000 1.0
C      1  0.5852060000000  0.5248070000000  0.5008340000000 1.0
C      1  0.4182820000000  0.5677270000000  0.5141060000000 1.0
C      1  0.4490690000000  0.5206720000000  0.5272430000000 1.0
C      1  0.4197740000000  0.4345200000000  0.5344140000000 1.0
C      1  0.5114040000000  0.4851780000000  0.6187130000000 1.0
C      1  0.5156590000000  0.5306420000000  0.5954210000000 1.0
C      1  0.4181170000000  0.4702960000000  0.4349380000000 1.0
C      1  0.4932660000000  0.5024410000000  0.3716880000000 1.0
END
