TITL C-951334-9093-136 -8.33045800612655e-07 125000 -907.554869209622 0 0 145 (C1) n - 1
REM
REM in /home/bkarasulu/work/CARBON/AIRSS/Generating-Clusters/EDIP-Nigel-Params/with-SteepDescent/Only-C1/SD-CG/HFTN-CG
REM
REM
REM
REM
REM
REM ./C.cell (11c1c37f851c82e70ff6c80c92926a4b)
REM
REM compiler GCC version 9.2.1 20190827 (Red Hat 9.2.1-1)
REM options -cpp -mtune=generic -march=x86-64 -g -O0 -fpre-include=/usr/include/finclude/math-vector-fortran.h
REM seed 838127217 1131591069 1236859413 -1842911821 -410217298 1907900772 424647791 1747413282 -740705595 1732731078 220993178 1417633400 1027221496 -1721822867 1390100120 1019961031 913720948 -1327123377 -1209907236 -924752829 1828726008 -1389780097 -80645851 1815863216 -477828047 589648979 -2118847392 1236715778 229619585 -1369210387 1863001459 -797994610 2029050230
REM
CELL 1.54180   50.00000   50.00000   50.00000   90.00000   90.00000   90.00000
LATT -1
SFAC C  
C      1  0.4159990000000  0.5302820000000  0.4436630000000 1.0
C      1  0.5472320000000  0.5028730000000  0.6109470000000 1.0
C      1  0.4559640000000  0.4214610000000  0.5526370000000 1.0
C      1  0.4530670000000  0.5542680000000  0.5472260000000 1.0
C      1  0.4549940000000  0.4864280000000  0.4187550000000 1.0
C      1  0.5988130000000  0.4850530000000  0.4510380000000 1.0
C      1  0.4356160000000  0.4428860000000  0.4375270000000 1.0
C      1  0.4041580000000  0.5493630000000  0.4632400000000 1.0
C      1  0.4988950000000  0.4656520000000  0.5034880000000 1.0
C      1  0.5364900000000  0.5320390000000  0.4500750000000 1.0
C      1  0.4126260000000  0.4562130000000  0.4895450000000 1.0
C      1  0.5033710000000  0.6058040000000  0.4899080000000 1.0
C      1  0.5881220000000  0.5337040000000  0.4534220000000 1.0
C      1  0.5138230000000  0.5684920000000  0.4282000000000 1.0
C      1  0.4713090000000  0.5336100000000  0.5195690000000 1.0
C      1  0.5728330000000  0.5559880000000  0.4425940000000 1.0
C      1  0.5179860000000  0.5842260000000  0.5681400000000 1.0
C      1  0.4353190000000  0.5386980000000  0.5647940000000 1.0
C      1  0.5170160000000  0.5943410000000  0.5129810000000 1.0
C      1  0.4234630000000  0.4382530000000  0.4645570000000 1.0
C      1  0.5744760000000  0.5295830000000  0.5256060000000 1.0
C      1  0.4855400000000  0.4911200000000  0.5004540000000 1.0
C      1  0.4006270000000  0.5452730000000  0.5127460000000 1.0
C      1  0.4450460000000  0.4296580000000  0.5046680000000 1.0
C      1  0.5923370000000  0.5013660000000  0.5685050000000 1.0
C      1  0.4508650000000  0.4607320000000  0.5802960000000 1.0
C      1  0.5144750000000  0.4864210000000  0.5555080000000 1.0
C      1  0.4708560000000  0.4542040000000  0.4683600000000 1.0
C      1  0.5880250000000  0.5088480000000  0.4366250000000 1.0
C      1  0.5963510000000  0.4909610000000  0.5425420000000 1.0
C      1  0.4663870000000  0.4245060000000  0.4629500000000 1.0
C      1  0.5180900000000  0.4010080000000  0.4640400000000 1.0
C      1  0.4766350000000  0.5433060000000  0.5865040000000 1.0
C      1  0.5913460000000  0.5013970000000  0.4917820000000 1.0
C      1  0.5094410000000  0.5440020000000  0.4467180000000 1.0
C      1  0.4229740000000  0.4583120000000  0.5383120000000 1.0
C      1  0.4345320000000  0.5100580000000  0.4952880000000 1.0
C      1  0.4807900000000  0.5054250000000  0.5265630000000 1.0
C      1  0.4452870000000  0.4756140000000  0.5270090000000 1.0
C      1  0.4662710000000  0.4199930000000  0.4347640000000 1.0
C      1  0.5428180000000  0.5852980000000  0.5074550000000 1.0
C      1  0.5559980000000  0.4857070000000  0.4396740000000 1.0
C      1  0.5055600000000  0.5859970000000  0.4676180000000 1.0
C      1  0.4174540000000  0.5203760000000  0.5526130000000 1.0
C      1  0.5022050000000  0.5308220000000  0.5947320000000 1.0
C      1  0.4945200000000  0.5497660000000  0.4763480000000 1.0
C      1  0.5908350000000  0.4628710000000  0.5364850000000 1.0
C      1  0.4951690000000  0.4407850000000  0.4049850000000 1.0
C      1  0.5480500000000  0.5104700000000  0.5251510000000 1.0
C      1  0.5155020000000  0.4693590000000  0.6018600000000 1.0
C      1  0.4011710000000  0.4882180000000  0.5252900000000 1.0
C      1  0.5200870000000  0.4267600000000  0.5604550000000 1.0
C      1  0.4633030000000  0.5619990000000  0.4259810000000 1.0
C      1  0.5329030000000  0.4809550000000  0.4584970000000 1.0
C      1  0.4991450000000  0.4644040000000  0.4200310000000 1.0
C      1  0.5183540000000  0.4567130000000  0.4590830000000 1.0
C      1  0.5549000000000  0.5708730000000  0.4608830000000 1.0
C      1  0.5707050000000  0.4319680000000  0.5068380000000 1.0
C      1  0.5757870000000  0.5232780000000  0.5744130000000 1.0
C      1  0.5468730000000  0.4283970000000  0.4347720000000 1.0
C      1  0.4506500000000  0.5316860000000  0.5877410000000 1.0
C      1  0.4812220000000  0.3837310000000  0.5001410000000 1.0
C      1  0.5305690000000  0.5842340000000  0.4497260000000 1.0
C      1  0.5058000000000  0.5097900000000  0.5394440000000 1.0
C      1  0.4493650000000  0.5355440000000  0.4977640000000 1.0
C      1  0.4725660000000  0.6031100000000  0.4921830000000 1.0
C      1  0.4976110000000  0.5737130000000  0.5525710000000 1.0
C      1  0.5269830000000  0.4318040000000  0.5333230000000 1.0
C      1  0.3965250000000  0.5253810000000  0.5339730000000 1.0
C      1  0.5007530000000  0.5107580000000  0.6147900000000 1.0
C      1  0.5221720000000  0.5276520000000  0.5236950000000 1.0
C      1  0.5225470000000  0.4920840000000  0.6195370000000 1.0
C      1  0.4936250000000  0.4206740000000  0.4240260000000 1.0
C      1  0.4975890000000  0.4579740000000  0.5524430000000 1.0
C      1  0.5361350000000  0.5637330000000  0.5720130000000 1.0
C      1  0.4964570000000  0.5751190000000  0.5232900000000 1.0
C      1  0.5577530000000  0.5692150000000  0.4904430000000 1.0
C      1  0.4494150000000  0.5678700000000  0.4590500000000 1.0
C      1  0.5604500000000  0.5648470000000  0.5589950000000 1.0
C      1  0.4987470000000  0.5465340000000  0.5100040000000 1.0
C      1  0.4683480000000  0.4820310000000  0.5738420000000 1.0
C      1  0.5750080000000  0.4672780000000  0.4593600000000 1.0
C      1  0.4061080000000  0.5076920000000  0.4840420000000 1.0
C      1  0.5557380000000  0.4255800000000  0.4835530000000 1.0
C      1  0.5438610000000  0.4814930000000  0.5477700000000 1.0
C      1  0.4852390000000  0.5028510000000  0.4525480000000 1.0
C      1  0.4996980000000  0.5061060000000  0.4800900000000 1.0
C      1  0.4769080000000  0.4752380000000  0.4390650000000 1.0
C      1  0.4654270000000  0.4874980000000  0.5451380000000 1.0
C      1  0.5179820000000  0.4213670000000  0.4436370000000 1.0
C      1  0.5464240000000  0.4867320000000  0.5041740000000 1.0
C      1  0.5498940000000  0.4455290000000  0.4129190000000 1.0
C      1  0.4334530000000  0.4706140000000  0.4309580000000 1.0
C      1  0.5757000000000  0.5256770000000  0.4795610000000 1.0
C      1  0.4948490000000  0.5229310000000  0.4307020000000 1.0
C      1  0.5751260000000  0.5476660000000  0.5002720000000 1.0
C      1  0.4282000000000  0.5573620000000  0.5038580000000 1.0
C      1  0.5647660000000  0.4360600000000  0.4575110000000 1.0
C      1  0.4415280000000  0.4181250000000  0.4769840000000 1.0
C      1  0.5574050000000  0.4671030000000  0.5704350000000 1.0
C      1  0.5750400000000  0.4489230000000  0.5566870000000 1.0
C      1  0.4692540000000  0.5837850000000  0.5138630000000 1.0
C      1  0.4830570000000  0.4527350000000  0.5254700000000 1.0
C      1  0.4891560000000  0.4034430000000  0.5160570000000 1.0
C      1  0.5514420000000  0.5219620000000  0.5910940000000 1.0
C      1  0.5296750000000  0.4979710000000  0.4812100000000 1.0
C      1  0.5293080000000  0.5400760000000  0.5870130000000 1.0
C      1  0.5478100000000  0.4734070000000  0.4127950000000 1.0
C      1  0.4961460000000  0.4342730000000  0.5739910000000 1.0
C      1  0.5863800000000  0.4555630000000  0.5082370000000 1.0
C      1  0.5169780000000  0.4129640000000  0.5127940000000 1.0
C      1  0.4439230000000  0.5731140000000  0.5248780000000 1.0
C      1  0.4186820000000  0.4404580000000  0.5146060000000 1.0
C      1  0.4862670000000  0.5805960000000  0.4239750000000 1.0
C      1  0.4750760000000  0.5620670000000  0.5646420000000 1.0
C      1  0.4982410000000  0.4508730000000  0.4785500000000 1.0
C      1  0.5734180000000  0.4770570000000  0.4916240000000 1.0
C      1  0.4636310000000  0.5429470000000  0.4716920000000 1.0
C      1  0.5457710000000  0.5211020000000  0.4748290000000 1.0
C      1  0.4979450000000  0.4883030000000  0.5833020000000 1.0
C      1  0.4481920000000  0.5163470000000  0.4273360000000 1.0
C      1  0.4685820000000  0.4244330000000  0.5251060000000 1.0
C      1  0.5481090000000  0.4531340000000  0.5294320000000 1.0
C      1  0.4557750000000  0.4588690000000  0.4983570000000 1.0
C      1  0.4297090000000  0.4996090000000  0.5221410000000 1.0
C      1  0.5152630000000  0.5116300000000  0.4107850000000 1.0
C      1  0.4696200000000  0.5346920000000  0.4182120000000 1.0
C      1  0.4380770000000  0.4438750000000  0.5610660000000 1.0
C      1  0.4573910000000  0.5142210000000  0.4575170000000 1.0
C      1  0.4748670000000  0.4162850000000  0.5724610000000 1.0
C      1  0.5969490000000  0.5100600000000  0.5206260000000 1.0
C      1  0.5391170000000  0.4590570000000  0.5901340000000 1.0
C      1  0.6132920000000  0.4942260000000  0.4738350000000 1.0
C      1  0.3916170000000  0.5343350000000  0.4867250000000 1.0
C      1  0.3959660000000  0.4810480000000  0.4965270000000 1.0
C      1  0.4317040000000  0.4860120000000  0.4550390000000 1.0
C      1  0.4237540000000  0.5679810000000  0.4752020000000 1.0
C      1  0.5314050000000  0.4098890000000  0.4870990000000 1.0
C      1  0.5539740000000  0.5259360000000  0.4267710000000 1.0
C      1  0.4860920000000  0.5974880000000  0.4481770000000 1.0
C      1  0.5378760000000  0.5269200000000  0.4029840000000 1.0
C      1  0.4620380000000  0.5953210000000  0.4646960000000 1.0
C      1  0.5194130000000  0.4826030000000  0.4080500000000 1.0
C      1  0.4103890000000  0.5046790000000  0.4552180000000 1.0
C      1  0.5762450000000  0.5429130000000  0.5529140000000 1.0
END
