TITL C-951345-2650-242 7.5048838778802e-07 125000 -1124.27515792018 0 0 180 (C1) n - 1
REM
REM in /home/bkarasulu/work/CARBON/AIRSS/Generating-Clusters/EDIP-Nigel-Params/with-SteepDescent/Only-C1/SD-CG/HFTN-CG
REM
REM
REM
REM
REM
REM ./C.cell (11c1c37f851c82e70ff6c80c92926a4b)
REM
REM compiler GCC version 9.2.1 20190827 (Red Hat 9.2.1-1)
REM options -cpp -mtune=generic -march=x86-64 -g -O0 -fpre-include=/usr/include/finclude/math-vector-fortran.h
REM seed 2001173329 1463919245 310107062 -1981903178 525467104 1548819787 -686608134 -162615684 535852542 753508300 -1383801689 -2130215150 1579072262 673002867 93455949 -260760126 -503932329 1565961492 941337062 -1067337368 -899994081 -165125572 -1305660110 164938498 -1386188598 595268346 -1636426876 -80139564 1230920076 -237617551 1071920948 -2061395004 1574919303
REM
CELL 1.54180   50.00000   50.00000   50.00000   90.00000   90.00000   90.00000
LATT -1
SFAC C  
C      1  0.3913040000000  0.4957300000000  0.4614160000000 1.0
C      1  0.4857480000000  0.5976540000000  0.5455620000000 1.0
C      1  0.5161850000000  0.4366310000000  0.4022250000000 1.0
C      1  0.5223070000000  0.6013360000000  0.5131150000000 1.0
C      1  0.4219990000000  0.5802080000000  0.5088350000000 1.0
C      1  0.4383280000000  0.6057930000000  0.4717110000000 1.0
C      1  0.5506460000000  0.4969860000000  0.4929770000000 1.0
C      1  0.5744080000000  0.5719640000000  0.4801440000000 1.0
C      1  0.5176310000000  0.3924730000000  0.4926270000000 1.0
C      1  0.5596170000000  0.5855570000000  0.4593180000000 1.0
C      1  0.4816750000000  0.5137370000000  0.4455320000000 1.0
C      1  0.5487070000000  0.5786550000000  0.5523830000000 1.0
C      1  0.4947200000000  0.4789530000000  0.3794430000000 1.0
C      1  0.5949760000000  0.4947440000000  0.5113170000000 1.0
C      1  0.4602500000000  0.6067240000000  0.4923250000000 1.0
C      1  0.5798470000000  0.4859120000000  0.5870490000000 1.0
C      1  0.6134150000000  0.4763900000000  0.4937060000000 1.0
C      1  0.5108070000000  0.5872370000000  0.4289510000000 1.0
C      1  0.5249880000000  0.4821260000000  0.4933770000000 1.0
C      1  0.4236790000000  0.5807800000000  0.4791620000000 1.0
C      1  0.4971610000000  0.4680910000000  0.5361940000000 1.0
C      1  0.4777160000000  0.4456110000000  0.5333870000000 1.0
C      1  0.4676300000000  0.5496000000000  0.4869130000000 1.0
C      1  0.4832890000000  0.4451280000000  0.4505600000000 1.0
C      1  0.5621690000000  0.4215400000000  0.5382140000000 1.0
C      1  0.5396440000000  0.3912520000000  0.5100030000000 1.0
C      1  0.4957840000000  0.4903830000000  0.4279700000000 1.0
C      1  0.3950710000000  0.5188550000000  0.5434440000000 1.0
C      1  0.3968530000000  0.4629970000000  0.5261700000000 1.0
C      1  0.5259720000000  0.6143530000000  0.4857530000000 1.0
C      1  0.5404360000000  0.5050330000000  0.4474820000000 1.0
C      1  0.5203080000000  0.4331150000000  0.4295630000000 1.0
C      1  0.4624830000000  0.5774970000000  0.4377020000000 1.0
C      1  0.4457320000000  0.5741560000000  0.5596630000000 1.0
C      1  0.5262560000000  0.4561700000000  0.4766850000000 1.0
C      1  0.4008950000000  0.4707460000000  0.5547760000000 1.0
C      1  0.5999330000000  0.4494910000000  0.4887730000000 1.0
C      1  0.5456290000000  0.4183690000000  0.5152010000000 1.0
C      1  0.5995740000000  0.4955010000000  0.4328270000000 1.0
C      1  0.4318430000000  0.4903660000000  0.4170250000000 1.0
C      1  0.4606560000000  0.4272690000000  0.4592690000000 1.0
C      1  0.4551180000000  0.5248500000000  0.4321460000000 1.0
C      1  0.5648310000000  0.4512110000000  0.4417540000000 1.0
C      1  0.5494830000000  0.5277760000000  0.5015020000000 1.0
C      1  0.5929230000000  0.4694410000000  0.4239920000000 1.0
C      1  0.4728260000000  0.5009780000000  0.4734480000000 1.0
C      1  0.5497870000000  0.5924830000000  0.5258240000000 1.0
C      1  0.4538960000000  0.5101360000000  0.6005220000000 1.0
C      1  0.5083550000000  0.4518920000000  0.5828280000000 1.0
C      1  0.5396850000000  0.4148310000000  0.5755050000000 1.0
C      1  0.5108020000000  0.5744850000000  0.5091250000000 1.0
C      1  0.4581460000000  0.3943730000000  0.5024870000000 1.0
C      1  0.4142510000000  0.5524060000000  0.5184570000000 1.0
C      1  0.5160360000000  0.5212420000000  0.5656060000000 1.0
C      1  0.4481750000000  0.4559600000000  0.5287110000000 1.0
C      1  0.4013160000000  0.5468080000000  0.5446230000000 1.0
C      1  0.4676470000000  0.5238210000000  0.5606550000000 1.0
C      1  0.5227310000000  0.5241850000000  0.4604730000000 1.0
C      1  0.5545530000000  0.5577170000000  0.5727900000000 1.0
C      1  0.5728730000000  0.4546760000000  0.4955120000000 1.0
C      1  0.5887000000000  0.5268360000000  0.5476140000000 1.0
C      1  0.4747320000000  0.4674860000000  0.6139000000000 1.0
C      1  0.4996920000000  0.5504510000000  0.5981390000000 1.0
C      1  0.5373980000000  0.5161750000000  0.5477330000000 1.0
C      1  0.5020760000000  0.4638020000000  0.6100910000000 1.0
C      1  0.5537160000000  0.4695480000000  0.5327790000000 1.0
C      1  0.4685700000000  0.5632170000000  0.5143960000000 1.0
C      1  0.4512900000000  0.5881600000000  0.5142250000000 1.0
C      1  0.5435580000000  0.4898090000000  0.6114040000000 1.0
C      1  0.5247240000000  0.5406160000000  0.5864220000000 1.0
C      1  0.4998000000000  0.4859630000000  0.5117630000000 1.0
C      1  0.4227270000000  0.4300410000000  0.4660010000000 1.0
C      1  0.5426160000000  0.4468470000000  0.5787080000000 1.0
C      1  0.4397050000000  0.4856020000000  0.5416500000000 1.0
C      1  0.5030030000000  0.6143050000000  0.5303230000000 1.0
C      1  0.4402140000000  0.5367730000000  0.5191680000000 1.0
C      1  0.4588980000000  0.5728420000000  0.5865910000000 1.0
C      1  0.5160350000000  0.4069320000000  0.4427760000000 1.0
C      1  0.5712410000000  0.5326610000000  0.5711620000000 1.0
C      1  0.4757530000000  0.5311930000000  0.6035930000000 1.0
C      1  0.4079450000000  0.4983050000000  0.5587960000000 1.0
C      1  0.4533860000000  0.5470060000000  0.5451810000000 1.0
C      1  0.4949630000000  0.3999670000000  0.5130940000000 1.0
C      1  0.4076550000000  0.5167470000000  0.4527690000000 1.0
C      1  0.4773740000000  0.4664590000000  0.4316260000000 1.0
C      1  0.4737370000000  0.5217700000000  0.4946960000000 1.0
C      1  0.5723320000000  0.5815900000000  0.5087050000000 1.0
C      1  0.5321960000000  0.5326210000000  0.5252450000000 1.0
C      1  0.4320620000000  0.4077520000000  0.5125820000000 1.0
C      1  0.6032040000000  0.4321750000000  0.4666250000000 1.0
C      1  0.5590850000000  0.5686170000000  0.4352340000000 1.0
C      1  0.4012010000000  0.5095870000000  0.5159570000000 1.0
C      1  0.5132580000000  0.6128910000000  0.4416010000000 1.0
C      1  0.4306360000000  0.4837520000000  0.4897060000000 1.0
C      1  0.4546260000000  0.5020940000000  0.4003620000000 1.0
C      1  0.4908460000000  0.5502420000000  0.4117950000000 1.0
C      1  0.3997780000000  0.5349460000000  0.4980750000000 1.0
C      1  0.4580540000000  0.3832820000000  0.4762540000000 1.0
C      1  0.5928270000000  0.4793370000000  0.5619000000000 1.0
C      1  0.5587240000000  0.4079510000000  0.4672690000000 1.0
C      1  0.4456520000000  0.4934380000000  0.4666010000000 1.0
C      1  0.4811320000000  0.5981390000000  0.4713690000000 1.0
C      1  0.4923300000000  0.5153050000000  0.5168800000000 1.0
C      1  0.4373420000000  0.5544230000000  0.4705160000000 1.0
C      1  0.4996380000000  0.5381620000000  0.4472910000000 1.0
C      1  0.4662700000000  0.3987210000000  0.4545570000000 1.0
C      1  0.5917020000000  0.5688690000000  0.5240910000000 1.0
C      1  0.5122450000000  0.4072820000000  0.5663440000000 1.0
C      1  0.5901930000000  0.5029760000000  0.4594490000000 1.0
C      1  0.4849490000000  0.4281270000000  0.5092180000000 1.0
C      1  0.4257490000000  0.4470020000000  0.4436950000000 1.0
C      1  0.5633850000000  0.4480820000000  0.5508640000000 1.0
C      1  0.4649550000000  0.4773770000000  0.3862790000000 1.0
C      1  0.4319360000000  0.4659260000000  0.5922660000000 1.0
C      1  0.4523220000000  0.6029160000000  0.4461480000000 1.0
C      1  0.4140980000000  0.4558460000000  0.5744930000000 1.0
C      1  0.4170650000000  0.4256890000000  0.4949150000000 1.0
C      1  0.5015770000000  0.6202830000000  0.4674210000000 1.0
C      1  0.4536110000000  0.4809520000000  0.6017630000000 1.0
C      1  0.4320750000000  0.5042380000000  0.5163800000000 1.0
C      1  0.4605970000000  0.4576180000000  0.4088940000000 1.0
C      1  0.5209740000000  0.5601720000000  0.5332250000000 1.0
C      1  0.5844910000000  0.5453210000000  0.4705490000000 1.0
C      1  0.4166620000000  0.5332090000000  0.4748590000000 1.0
C      1  0.4008860000000  0.4785420000000  0.4816010000000 1.0
C      1  0.3989390000000  0.4388940000000  0.5119590000000 1.0
C      1  0.4900610000000  0.5613030000000  0.4680000000000 1.0
C      1  0.5153210000000  0.4898810000000  0.6052230000000 1.0
C      1  0.5343380000000  0.4556820000000  0.4453300000000 1.0
C      1  0.4606520000000  0.4313300000000  0.4900350000000 1.0
C      1  0.5225520000000  0.5191690000000  0.3994200000000 1.0
C      1  0.5735630000000  0.5434940000000  0.4406130000000 1.0
C      1  0.5084380000000  0.4552290000000  0.3846050000000 1.0
C      1  0.5765350000000  0.4286550000000  0.4571450000000 1.0
C      1  0.5721190000000  0.4634330000000  0.4058310000000 1.0
C      1  0.4466440000000  0.5533200000000  0.4418350000000 1.0
C      1  0.4909390000000  0.3946020000000  0.4427170000000 1.0
C      1  0.5493790000000  0.5086260000000  0.4042300000000 1.0
C      1  0.5855600000000  0.5417410000000  0.5228190000000 1.0
C      1  0.5981230000000  0.4998420000000  0.5414770000000 1.0
C      1  0.5881400000000  0.5259630000000  0.4973040000000 1.0
C      1  0.4713940000000  0.4306080000000  0.5588020000000 1.0
C      1  0.4955370000000  0.5020700000000  0.3996580000000 1.0
C      1  0.4481730000000  0.4143310000000  0.5581360000000 1.0
C      1  0.3889460000000  0.4837760000000  0.5077470000000 1.0
C      1  0.6148230000000  0.4892720000000  0.4680870000000 1.0
C      1  0.5589100000000  0.4671180000000  0.5988000000000 1.0
C      1  0.4851520000000  0.5765260000000  0.4201670000000 1.0
C      1  0.4519620000000  0.5484990000000  0.6014580000000 1.0
C      1  0.4561150000000  0.5973340000000  0.5424930000000 1.0
C      1  0.4333290000000  0.5056830000000  0.4425930000000 1.0
C      1  0.5325420000000  0.5687920000000  0.4214740000000 1.0
C      1  0.4798950000000  0.4747740000000  0.4901710000000 1.0
C      1  0.5616840000000  0.4947570000000  0.4652000000000 1.0
C      1  0.4336420000000  0.4259550000000  0.5364370000000 1.0
C      1  0.5687310000000  0.5238950000000  0.4196200000000 1.0
C      1  0.5316370000000  0.5898640000000  0.4673930000000 1.0
C      1  0.5048010000000  0.3967160000000  0.5406200000000 1.0
C      1  0.4903090000000  0.4776240000000  0.5635980000000 1.0
C      1  0.4923650000000  0.5673220000000  0.5500160000000 1.0
C      1  0.5342980000000  0.5412580000000  0.4795900000000 1.0
C      1  0.4505850000000  0.4600940000000  0.4986570000000 1.0
C      1  0.5269240000000  0.4831370000000  0.4324400000000 1.0
C      1  0.5496450000000  0.4366150000000  0.4911880000000 1.0
C      1  0.5920080000000  0.4520520000000  0.5562840000000 1.0
C      1  0.5387910000000  0.4892410000000  0.5432190000000 1.0
C      1  0.4934440000000  0.4263760000000  0.5774810000000 1.0
C      1  0.5492880000000  0.4797580000000  0.4020890000000 1.0
C      1  0.4960340000000  0.4536680000000  0.4754310000000 1.0
C      1  0.4931870000000  0.5291150000000  0.5460300000000 1.0
C      1  0.5590360000000  0.4026720000000  0.5588020000000 1.0
C      1  0.4320990000000  0.4599970000000  0.4188500000000 1.0
C      1  0.5681280000000  0.5120790000000  0.5920060000000 1.0
C      1  0.5106390000000  0.4954650000000  0.5768070000000 1.0
C      1  0.4625870000000  0.4942330000000  0.5604110000000 1.0
C      1  0.5173540000000  0.5658800000000  0.4817850000000 1.0
C      1  0.5184510000000  0.5461120000000  0.4085630000000 1.0
C      1  0.4884260000000  0.5715990000000  0.5811770000000 1.0
C      1  0.5685810000000  0.4793760000000  0.5095280000000 1.0
C      1  0.5293690000000  0.4058460000000  0.4683560000000 1.0
END
