TITL C-950534-5965-324 -6.40670335395281e-07 125000 -1082.74733886824 0 0 171 (C1) n - 1
REM
REM in /home/bkarasulu/work/CARBON/AIRSS/Generating-Clusters/EDIP-Nigel-Params/with-SteepDescent/Only-C1/SD-CG/HFTN-CG
REM
REM
REM
REM
REM
REM ./C.cell (11c1c37f851c82e70ff6c80c92926a4b)
REM
REM compiler GCC version 9.2.1 20190827 (Red Hat 9.2.1-1)
REM options -cpp -mtune=generic -march=x86-64 -g -O0 -fpre-include=/usr/include/finclude/math-vector-fortran.h
REM seed -1660725264 567808235 -220189814 1873602203 109430193 -590323187 -1261496766 1181982286 -425048493 -471182052 850428599 603417780 -1302729844 -1478396187 -497517802 1396022413 17433869 1678368799 293835844 -1931608260 -616910783 1525958987 2105905722 619280344 765870291 410098830 561614226 1748830742 192207243 -98523150 1764689005 -918816479 -1595010338
REM
CELL 1.54180   50.00000   50.00000   50.00000   90.00000   90.00000   90.00000
LATT -1
SFAC C  
C      1  0.4593820000000  0.3969770000000  0.5118160000000 1.0
C      1  0.6004790000000  0.4707640000000  0.5296290000000 1.0
C      1  0.5487260000000  0.4645470000000  0.4208690000000 1.0
C      1  0.4159850000000  0.4913540000000  0.5411410000000 1.0
C      1  0.5622500000000  0.4978840000000  0.5348700000000 1.0
C      1  0.4381970000000  0.4471630000000  0.5482950000000 1.0
C      1  0.4543900000000  0.5535170000000  0.4432310000000 1.0
C      1  0.5368290000000  0.4543890000000  0.5796760000000 1.0
C      1  0.5302740000000  0.4601220000000  0.4802290000000 1.0
C      1  0.4245770000000  0.5737730000000  0.4747530000000 1.0
C      1  0.4170020000000  0.4343840000000  0.5293080000000 1.0
C      1  0.4887890000000  0.5291960000000  0.4761190000000 1.0
C      1  0.5798960000000  0.4766060000000  0.5745710000000 1.0
C      1  0.5783580000000  0.5507540000000  0.5305310000000 1.0
C      1  0.5001290000000  0.5890480000000  0.5635190000000 1.0
C      1  0.4904070000000  0.4818740000000  0.4002040000000 1.0
C      1  0.5370450000000  0.5280420000000  0.4778950000000 1.0
C      1  0.5641700000000  0.4512160000000  0.5698250000000 1.0
C      1  0.5666880000000  0.4375910000000  0.5438610000000 1.0
C      1  0.5155860000000  0.4387660000000  0.5639950000000 1.0
C      1  0.5405430000000  0.5749780000000  0.5521280000000 1.0
C      1  0.4768500000000  0.4647270000000  0.5848600000000 1.0
C      1  0.5766100000000  0.5609550000000  0.4367860000000 1.0
C      1  0.4673730000000  0.5664090000000  0.4665620000000 1.0
C      1  0.4520040000000  0.5121380000000  0.5021330000000 1.0
C      1  0.4814880000000  0.5921070000000  0.5412580000000 1.0
C      1  0.4444610000000  0.5304340000000  0.5724600000000 1.0
C      1  0.5954370000000  0.4369390000000  0.4971440000000 1.0
C      1  0.4432980000000  0.4332120000000  0.5744340000000 1.0
C      1  0.4039760000000  0.5172450000000  0.5481400000000 1.0
C      1  0.4502930000000  0.5773550000000  0.5720760000000 1.0
C      1  0.5092100000000  0.4508730000000  0.5375280000000 1.0
C      1  0.4574320000000  0.4514210000000  0.4749250000000 1.0
C      1  0.5602080000000  0.4432550000000  0.4387890000000 1.0
C      1  0.5468390000000  0.5808980000000  0.4653530000000 1.0
C      1  0.5051350000000  0.4080240000000  0.4338620000000 1.0
C      1  0.5376250000000  0.5348080000000  0.6109590000000 1.0
C      1  0.4240930000000  0.4717350000000  0.4731030000000 1.0
C      1  0.4720760000000  0.5078510000000  0.6047510000000 1.0
C      1  0.4909330000000  0.6074460000000  0.5180240000000 1.0
C      1  0.5862400000000  0.5453300000000  0.4797400000000 1.0
C      1  0.4575830000000  0.5205090000000  0.3975870000000 1.0
C      1  0.4434740000000  0.4823590000000  0.5002260000000 1.0
C      1  0.5002830000000  0.5740940000000  0.4333200000000 1.0
C      1  0.4746590000000  0.5483810000000  0.5414790000000 1.0
C      1  0.5579850000000  0.5149780000000  0.4331990000000 1.0
C      1  0.5015510000000  0.5617710000000  0.5781270000000 1.0
C      1  0.3906660000000  0.5266220000000  0.5233590000000 1.0
C      1  0.4650900000000  0.5521900000000  0.5698550000000 1.0
C      1  0.4335000000000  0.4808580000000  0.5848800000000 1.0
C      1  0.4523260000000  0.5230130000000  0.4510400000000 1.0
C      1  0.5037660000000  0.5617650000000  0.5013370000000 1.0
C      1  0.4362000000000  0.5033720000000  0.4315810000000 1.0
C      1  0.4542150000000  0.5453820000000  0.5210390000000 1.0
C      1  0.5340100000000  0.4840160000000  0.5856720000000 1.0
C      1  0.4351490000000  0.5860590000000  0.5276310000000 1.0
C      1  0.4425480000000  0.4741230000000  0.4075420000000 1.0
C      1  0.4818780000000  0.4719120000000  0.5042230000000 1.0
C      1  0.5489940000000  0.4151220000000  0.5375330000000 1.0
C      1  0.4833820000000  0.4643130000000  0.5341130000000 1.0
C      1  0.4800320000000  0.5141860000000  0.4526850000000 1.0
C      1  0.5632050000000  0.4904070000000  0.4147390000000 1.0
C      1  0.4741880000000  0.4382960000000  0.4195500000000 1.0
C      1  0.5511940000000  0.5663910000000  0.4226030000000 1.0
C      1  0.4625570000000  0.4041790000000  0.4592470000000 1.0
C      1  0.5569970000000  0.4989510000000  0.3889760000000 1.0
C      1  0.5448010000000  0.4764590000000  0.5001900000000 1.0
C      1  0.4215340000000  0.5391830000000  0.5573150000000 1.0
C      1  0.4636680000000  0.4416060000000  0.5321310000000 1.0
C      1  0.5341640000000  0.5842510000000  0.4387350000000 1.0
C      1  0.4094960000000  0.5404210000000  0.4355950000000 1.0
C      1  0.5074630000000  0.3945350000000  0.4791170000000 1.0
C      1  0.4049860000000  0.4476440000000  0.4831490000000 1.0
C      1  0.5834370000000  0.5318790000000  0.4355840000000 1.0
C      1  0.4821650000000  0.4224550000000  0.4437840000000 1.0
C      1  0.5577250000000  0.5710640000000  0.5298910000000 1.0
C      1  0.5483740000000  0.5442470000000  0.5875380000000 1.0
C      1  0.4349190000000  0.4421760000000  0.4446380000000 1.0
C      1  0.5425300000000  0.5160840000000  0.5501480000000 1.0
C      1  0.5964300000000  0.5460360000000  0.5076170000000 1.0
C      1  0.5254610000000  0.4959000000000  0.5104230000000 1.0
C      1  0.5228880000000  0.4976830000000  0.5614890000000 1.0
C      1  0.4853180000000  0.4439920000000  0.4658060000000 1.0
C      1  0.5271260000000  0.5360410000000  0.3924570000000 1.0
C      1  0.5625440000000  0.5236730000000  0.5724260000000 1.0
C      1  0.5248310000000  0.3898610000000  0.5018530000000 1.0
C      1  0.4956360000000  0.5084980000000  0.5609490000000 1.0
C      1  0.4278050000000  0.5565180000000  0.5319100000000 1.0
C      1  0.4900600000000  0.4378010000000  0.5796090000000 1.0
C      1  0.5378680000000  0.5398510000000  0.4209120000000 1.0
C      1  0.5559640000000  0.5902300000000  0.5100690000000 1.0
C      1  0.6088930000000  0.4612940000000  0.4865070000000 1.0
C      1  0.5036200000000  0.3975860000000  0.5399480000000 1.0
C      1  0.4924090000000  0.5255670000000  0.5895060000000 1.0
C      1  0.6004950000000  0.4977740000000  0.4586930000000 1.0
C      1  0.4760060000000  0.3950310000000  0.4849890000000 1.0
C      1  0.5221570000000  0.4737920000000  0.4299070000000 1.0
C      1  0.4631940000000  0.4918530000000  0.3987730000000 1.0
C      1  0.4745630000000  0.4078950000000  0.5394970000000 1.0
C      1  0.5221650000000  0.4065970000000  0.4551490000000 1.0
C      1  0.4243910000000  0.5253580000000  0.4144370000000 1.0
C      1  0.5019860000000  0.4507800000000  0.4902670000000 1.0
C      1  0.4353000000000  0.4170380000000  0.4582670000000 1.0
C      1  0.5303700000000  0.5077110000000  0.3905060000000 1.0
C      1  0.4175200000000  0.4193420000000  0.4819710000000 1.0
C      1  0.4328330000000  0.4172740000000  0.5076160000000 1.0
C      1  0.4154670000000  0.4918940000000  0.4505780000000 1.0
C      1  0.5387680000000  0.5227430000000  0.5064810000000 1.0
C      1  0.4833190000000  0.5170770000000  0.5030590000000 1.0
C      1  0.5289290000000  0.5524540000000  0.5664930000000 1.0
C      1  0.4731780000000  0.5618890000000  0.4204120000000 1.0
C      1  0.4536390000000  0.5933230000000  0.5491360000000 1.0
C      1  0.6029530000000  0.4843640000000  0.5038360000000 1.0
C      1  0.4881720000000  0.5842970000000  0.4589990000000 1.0
C      1  0.5117350000000  0.3765050000000  0.5229260000000 1.0
C      1  0.5270240000000  0.4821280000000  0.4583020000000 1.0
C      1  0.4697670000000  0.6108980000000  0.4968790000000 1.0
C      1  0.3899570000000  0.5051300000000  0.5030070000000 1.0
C      1  0.5686000000000  0.4916700000000  0.4871720000000 1.0
C      1  0.5741870000000  0.5688760000000  0.4652340000000 1.0
C      1  0.5115750000000  0.4982170000000  0.4126210000000 1.0
C      1  0.4369440000000  0.4774160000000  0.5555890000000 1.0
C      1  0.4390480000000  0.5252620000000  0.4789160000000 1.0
C      1  0.5251860000000  0.5980030000000  0.5543870000000 1.0
C      1  0.5099590000000  0.4332560000000  0.5141680000000 1.0
C      1  0.4960380000000  0.5220150000000  0.4286160000000 1.0
C      1  0.5384720000000  0.5952860000000  0.4892430000000 1.0
C      1  0.4686790000000  0.5621600000000  0.4981660000000 1.0
C      1  0.4013930000000  0.4542080000000  0.5122660000000 1.0
C      1  0.4986500000000  0.4938290000000  0.5005650000000 1.0
C      1  0.4480100000000  0.5880010000000  0.4994590000000 1.0
C      1  0.5975210000000  0.4699040000000  0.4620770000000 1.0
C      1  0.4948170000000  0.4552790000000  0.4097020000000 1.0
C      1  0.4068580000000  0.5491350000000  0.5129130000000 1.0
C      1  0.5346720000000  0.4169660000000  0.5104520000000 1.0
C      1  0.5005760000000  0.5431800000000  0.3866980000000 1.0
C      1  0.5495070000000  0.4169410000000  0.4487420000000 1.0
C      1  0.5251730000000  0.4115080000000  0.5555610000000 1.0
C      1  0.4487490000000  0.4565690000000  0.5931050000000 1.0
C      1  0.4018310000000  0.5178650000000  0.4554320000000 1.0
C      1  0.4265830000000  0.5647410000000  0.4454840000000 1.0
C      1  0.5855830000000  0.5360950000000  0.5556820000000 1.0
C      1  0.5880940000000  0.4450670000000  0.5252990000000 1.0
C      1  0.4111370000000  0.4831620000000  0.5137200000000 1.0
C      1  0.4857890000000  0.6097800000000  0.4720340000000 1.0
C      1  0.5625280000000  0.4962190000000  0.5882170000000 1.0
C      1  0.5229300000000  0.5432230000000  0.5270540000000 1.0
C      1  0.5976030000000  0.5257880000000  0.4600580000000 1.0
C      1  0.4871390000000  0.4820610000000  0.6076060000000 1.0
C      1  0.5697280000000  0.5124110000000  0.5102730000000 1.0
C      1  0.5873050000000  0.4474730000000  0.4467580000000 1.0
C      1  0.4948820000000  0.5286420000000  0.5344410000000 1.0
C      1  0.5875810000000  0.4894910000000  0.5483300000000 1.0
C      1  0.4526560000000  0.4394020000000  0.5035280000000 1.0
C      1  0.4691070000000  0.4188750000000  0.5697440000000 1.0
C      1  0.6078250000000  0.5199900000000  0.5173940000000 1.0
C      1  0.5139790000000  0.5441410000000  0.4712880000000 1.0
C      1  0.5745790000000  0.4269510000000  0.4767830000000 1.0
C      1  0.4459680000000  0.5077320000000  0.5914000000000 1.0
C      1  0.5478160000000  0.5045250000000  0.4621220000000 1.0
C      1  0.4476270000000  0.4488450000000  0.4201570000000 1.0
C      1  0.5141730000000  0.5200630000000  0.6108850000000 1.0
C      1  0.6040700000000  0.5151760000000  0.5471720000000 1.0
C      1  0.3867230000000  0.5221040000000  0.4792830000000 1.0
C      1  0.4807610000000  0.5370890000000  0.4066880000000 1.0
C      1  0.4165050000000  0.5461540000000  0.4846550000000 1.0
C      1  0.5161260000000  0.4905120000000  0.6095800000000 1.0
C      1  0.5091550000000  0.5919030000000  0.4965820000000 1.0
C      1  0.5477420000000  0.4340000000000  0.4888420000000 1.0
C      1  0.5134220000000  0.5449450000000  0.4392780000000 1.0
C      1  0.4757290000000  0.4828550000000  0.5582010000000 1.0
END
