TITL C-950533-5798-114 -8.02659073381854e-07 125000 -242.633635334249 0 0 41 (C1) n - 1
REM
REM in /home/bkarasulu/work/CARBON/AIRSS/Generating-Clusters/EDIP-Nigel-Params/with-SteepDescent/Only-C1/SD-CG/HFTN-CG
REM
REM
REM
REM
REM
REM ./C.cell (11c1c37f851c82e70ff6c80c92926a4b)
REM
REM compiler GCC version 9.2.1 20190827 (Red Hat 9.2.1-1)
REM options -cpp -mtune=generic -march=x86-64 -g -O0 -fpre-include=/usr/include/finclude/math-vector-fortran.h
REM seed -1204790716 129557592 744752793 -282711967 404735337 -1962621960 1112449713 -1698074052 -679422956 -1494743856 1868989894 -1589591917 477588908 -1728866486 -182885929 -1428218104 -1194369028 -1550283175 -1587029633 -1988198459 2059969201 -1186532938 -571085648 -946230398 1584305504 -2144345351 -595006203 -1471272907 370324591 1185815601 -1808066179 -1720461284 1526335553
REM
CELL 1.54180   50.00000   50.00000   50.00000   90.00000   90.00000   90.00000
LATT -1
SFAC C  
C      1  0.5384030000000  0.4560230000000  0.4566530000000 1.0
C      1  0.5024300000000  0.5433850000000  0.4983390000000 1.0
C      1  0.5184310000000  0.4348530000000  0.5060550000000 1.0
C      1  0.5361670000000  0.5502550000000  0.5257720000000 1.0
C      1  0.4775260000000  0.4713300000000  0.4610570000000 1.0
C      1  0.5214140000000  0.4849900000000  0.5116200000000 1.0
C      1  0.4961760000000  0.4807130000000  0.4397840000000 1.0
C      1  0.5291750000000  0.4567660000000  0.5198990000000 1.0
C      1  0.4703170000000  0.5415410000000  0.4664700000000 1.0
C      1  0.5384590000000  0.5247280000000  0.5366880000000 1.0
C      1  0.5431380000000  0.5543650000000  0.4977350000000 1.0
C      1  0.5250290000000  0.4776550000000  0.4444240000000 1.0
C      1  0.4598130000000  0.4932360000000  0.4684130000000 1.0
C      1  0.4869330000000  0.4775590000000  0.5642140000000 1.0
C      1  0.4404850000000  0.5080700000000  0.5148640000000 1.0
C      1  0.4914730000000  0.4487940000000  0.5511350000000 1.0
C      1  0.5171180000000  0.4842780000000  0.5590880000000 1.0
C      1  0.4834790000000  0.4505300000000  0.4785410000000 1.0
C      1  0.4639640000000  0.5516360000000  0.5271610000000 1.0
C      1  0.4908550000000  0.4358020000000  0.5011510000000 1.0
C      1  0.5163990000000  0.5316320000000  0.4570710000000 1.0
C      1  0.4413590000000  0.4962430000000  0.4893230000000 1.0
C      1  0.4670470000000  0.4962160000000  0.5533610000000 1.0
C      1  0.4974320000000  0.5511520000000  0.4698770000000 1.0
C      1  0.5221500000000  0.5021940000000  0.5358980000000 1.0
C      1  0.5439950000000  0.5421020000000  0.4607120000000 1.0
C      1  0.5153390000000  0.5033890000000  0.4716980000000 1.0
C      1  0.4729900000000  0.4751840000000  0.5219910000000 1.0
C      1  0.4821900000000  0.5191210000000  0.4959270000000 1.0
C      1  0.4687110000000  0.5163470000000  0.4535350000000 1.0
C      1  0.5604940000000  0.5385520000000  0.4827830000000 1.0
C      1  0.4881370000000  0.5622360000000  0.5173750000000 1.0
C      1  0.5389810000000  0.4938240000000  0.4887510000000 1.0
C      1  0.4647100000000  0.5245120000000  0.5192300000000 1.0
C      1  0.5219180000000  0.4554640000000  0.5484170000000 1.0
C      1  0.4457110000000  0.4876660000000  0.5350080000000 1.0
C      1  0.5117990000000  0.5630650000000  0.5329390000000 1.0
C      1  0.4916890000000  0.5096440000000  0.4370180000000 1.0
C      1  0.4917460000000  0.4880880000000  0.4988840000000 1.0
C      1  0.4758050000000  0.4456820000000  0.5249470000000 1.0
C      1  0.5506120000000  0.4711790000000  0.4761910000000 1.0
END
