TITL C-951344-124-400 -2.04469239654498e-06 125000 -448.700247768613 0 0 73 (C1) n - 1
REM
REM in /home/bkarasulu/work/CARBON/AIRSS/Generating-Clusters/EDIP-Nigel-Params/with-SteepDescent/Only-C1/SD-CG/HFTN-CG
REM
REM
REM
REM
REM
REM ./C.cell (11c1c37f851c82e70ff6c80c92926a4b)
REM
REM compiler GCC version 9.2.1 20190827 (Red Hat 9.2.1-1)
REM options -cpp -mtune=generic -march=x86-64 -g -O0 -fpre-include=/usr/include/finclude/math-vector-fortran.h
REM seed -1500369268 842792465 19504632 1826150361 -1098805920 1263510283 -1838191689 -139828335 -744970801 1141496810 1425901015 -894900938 -2038843552 1824548852 1787954927 -388017488 360555845 -689810262 -1597176800 1276027953 351861685 -467418226 316628138 -358228933 -821281546 -2022464748 375388682 -157321497 1141675765 -1171321332 2027551632 -2106247311 2131899970
REM
CELL 1.54180   50.00000   50.00000   50.00000   90.00000   90.00000   90.00000
LATT -1
SFAC C  
C      1  0.4988690000000  0.4532470000000  0.5225830000000 1.0
C      1  0.4568870000000  0.5367570000000  0.5507910000000 1.0
C      1  0.5135160000000  0.5329760000000  0.4390860000000 1.0
C      1  0.4958920000000  0.4630390000000  0.4443890000000 1.0
C      1  0.5311750000000  0.5754210000000  0.4626630000000 1.0
C      1  0.4745310000000  0.5298170000000  0.4824960000000 1.0
C      1  0.5375960000000  0.5169360000000  0.4390420000000 1.0
C      1  0.4672120000000  0.5243120000000  0.4301390000000 1.0
C      1  0.5042130000000  0.5347090000000  0.5584600000000 1.0
C      1  0.5222140000000  0.5199290000000  0.5130460000000 1.0
C      1  0.4245610000000  0.5025880000000  0.4876350000000 1.0
C      1  0.5652410000000  0.5158240000000  0.5197230000000 1.0
C      1  0.5452830000000  0.4434440000000  0.4996410000000 1.0
C      1  0.5640140000000  0.4672280000000  0.4970380000000 1.0
C      1  0.5302710000000  0.4917400000000  0.5631300000000 1.0
C      1  0.4929160000000  0.4309150000000  0.5537290000000 1.0
C      1  0.5052250000000  0.4774170000000  0.5699400000000 1.0
C      1  0.4570960000000  0.5546020000000  0.5285850000000 1.0
C      1  0.5305070000000  0.5334800000000  0.4850980000000 1.0
C      1  0.5271470000000  0.4374380000000  0.4774030000000 1.0
C      1  0.4483310000000  0.4503250000000  0.5533240000000 1.0
C      1  0.5130800000000  0.4492170000000  0.5646450000000 1.0
C      1  0.5287630000000  0.5194070000000  0.5564070000000 1.0
C      1  0.4886190000000  0.5024890000000  0.4708070000000 1.0
C      1  0.4604010000000  0.4898940000000  0.4926250000000 1.0
C      1  0.5267980000000  0.4875620000000  0.5093110000000 1.0
C      1  0.5423840000000  0.5703310000000  0.5061220000000 1.0
C      1  0.5188130000000  0.4890580000000  0.4785910000000 1.0
C      1  0.5632810000000  0.4860840000000  0.5231820000000 1.0
C      1  0.5622310000000  0.5563510000000  0.4879750000000 1.0
C      1  0.4849030000000  0.5625500000000  0.5216000000000 1.0
C      1  0.5066450000000  0.5587740000000  0.5411670000000 1.0
C      1  0.4889400000000  0.4356970000000  0.5002450000000 1.0
C      1  0.4786630000000  0.5205640000000  0.5597410000000 1.0
C      1  0.4800750000000  0.4899100000000  0.5563230000000 1.0
C      1  0.4520150000000  0.4441030000000  0.4642550000000 1.0
C      1  0.4542800000000  0.5124260000000  0.5173200000000 1.0
C      1  0.4502280000000  0.5350840000000  0.4637600000000 1.0
C      1  0.5147300000000  0.5497940000000  0.4639510000000 1.0
C      1  0.4687410000000  0.4654930000000  0.4569990000000 1.0
C      1  0.4518700000000  0.4781440000000  0.5540310000000 1.0
C      1  0.5283600000000  0.4560010000000  0.5210820000000 1.0
C      1  0.5530710000000  0.4764330000000  0.5517020000000 1.0
C      1  0.5332980000000  0.4902000000000  0.4270300000000 1.0
C      1  0.4866730000000  0.4839070000000  0.5270440000000 1.0
C      1  0.5392750000000  0.4504230000000  0.5490630000000 1.0
C      1  0.5213760000000  0.4627330000000  0.4621020000000 1.0
C      1  0.4454130000000  0.5127270000000  0.4433140000000 1.0
C      1  0.5218000000000  0.5850830000000  0.4904620000000 1.0
C      1  0.5776870000000  0.5070450000000  0.4717150000000 1.0
C      1  0.5690760000000  0.4786040000000  0.4697950000000 1.0
C      1  0.4197490000000  0.4850920000000  0.5112220000000 1.0
C      1  0.5590430000000  0.5687130000000  0.4618860000000 1.0
C      1  0.4913370000000  0.5128180000000  0.5132900000000 1.0
C      1  0.5345930000000  0.5579500000000  0.5309870000000 1.0
C      1  0.4371360000000  0.5489380000000  0.5084740000000 1.0
C      1  0.4292330000000  0.4476640000000  0.4788570000000 1.0
C      1  0.5397020000000  0.5105080000000  0.4682280000000 1.0
C      1  0.4304120000000  0.5317580000000  0.4860050000000 1.0
C      1  0.5723870000000  0.5265290000000  0.4932940000000 1.0
C      1  0.4921150000000  0.5753560000000  0.4955900000000 1.0
C      1  0.4577290000000  0.4632780000000  0.5131310000000 1.0
C      1  0.5059520000000  0.4205290000000  0.4843040000000 1.0
C      1  0.4528590000000  0.4869770000000  0.4498870000000 1.0
C      1  0.4879890000000  0.5551450000000  0.4744070000000 1.0
C      1  0.5458840000000  0.4700980000000  0.4465520000000 1.0
C      1  0.4361440000000  0.4954400000000  0.5350470000000 1.0
C      1  0.4655880000000  0.4254940000000  0.5137570000000 1.0
C      1  0.5484870000000  0.5327440000000  0.5391920000000 1.0
C      1  0.4285570000000  0.4568260000000  0.5054670000000 1.0
C      1  0.4921280000000  0.5119580000000  0.4404920000000 1.0
C      1  0.4660480000000  0.4312270000000  0.5425690000000 1.0
C      1  0.5027420000000  0.4867270000000  0.4270510000000 1.0
END
