TITL C-951347-9520-590 -3.13091235990586e-06 125000 -553.943762792181 0 0 89 (C1) n - 1
REM
REM in /home/bkarasulu/work/CARBON/AIRSS/Generating-Clusters/EDIP-Nigel-Params/with-SteepDescent/Only-C1/SD-CG/HFTN-CG
REM
REM
REM
REM
REM
REM ./C.cell (11c1c37f851c82e70ff6c80c92926a4b)
REM
REM compiler GCC version 9.2.1 20190827 (Red Hat 9.2.1-1)
REM options -cpp -mtune=generic -march=x86-64 -g -O0 -fpre-include=/usr/include/finclude/math-vector-fortran.h
REM seed -1007649852 -780362302 -1906982019 780600454 -1465671448 636875292 977202280 1262513648 -732223802 1092477005 -168908903 746565404 1918220225 1540476860 738364264 1424080103 791639098 247536666 72757714 379549613 -232869243 -1816122876 455868675 -420379908 771257964 -1310128180 -1635684590 -843771490 1074929998 -723546008 1754156368 535662434 1661737627
REM
CELL 1.54180   50.00000   50.00000   50.00000   90.00000   90.00000   90.00000
LATT -1
SFAC C  
C      1  0.4395060000000  0.4642340000000  0.4878390000000 1.0
C      1  0.4960480000000  0.5516340000000  0.5565790000000 1.0
C      1  0.4290990000000  0.4559990000000  0.4603260000000 1.0
C      1  0.4996130000000  0.5943920000000  0.5072900000000 1.0
C      1  0.4989990000000  0.5146000000000  0.5870520000000 1.0
C      1  0.4434210000000  0.5460060000000  0.5224520000000 1.0
C      1  0.4997120000000  0.4319330000000  0.4761120000000 1.0
C      1  0.4327220000000  0.5137870000000  0.4823710000000 1.0
C      1  0.4589250000000  0.5243770000000  0.5640920000000 1.0
C      1  0.5370380000000  0.5421970000000  0.4648150000000 1.0
C      1  0.5157650000000  0.5216800000000  0.4678770000000 1.0
C      1  0.5094710000000  0.5381250000000  0.5231300000000 1.0
C      1  0.4721150000000  0.5105150000000  0.4220540000000 1.0
C      1  0.5449380000000  0.4818970000000  0.4576000000000 1.0
C      1  0.4643450000000  0.5624480000000  0.5066900000000 1.0
C      1  0.5261060000000  0.5714470000000  0.4684340000000 1.0
C      1  0.4770180000000  0.4441970000000  0.5172360000000 1.0
C      1  0.5436170000000  0.4652360000000  0.5569960000000 1.0
C      1  0.4899200000000  0.5443040000000  0.5019900000000 1.0
C      1  0.5426660000000  0.4559180000000  0.4738410000000 1.0
C      1  0.4301580000000  0.5228760000000  0.5114600000000 1.0
C      1  0.5380690000000  0.4914930000000  0.5699010000000 1.0
C      1  0.4802230000000  0.4985660000000  0.4870930000000 1.0
C      1  0.5922090000000  0.4532700000000  0.4832840000000 1.0
C      1  0.4694570000000  0.5686020000000  0.4717060000000 1.0
C      1  0.5465850000000  0.5455720000000  0.5512970000000 1.0
C      1  0.4440380000000  0.5434730000000  0.5502230000000 1.0
C      1  0.4701820000000  0.5408930000000  0.4583400000000 1.0
C      1  0.4926240000000  0.5792540000000  0.5481880000000 1.0
C      1  0.5627480000000  0.4632070000000  0.5334960000000 1.0
C      1  0.4966060000000  0.4232700000000  0.5197300000000 1.0
C      1  0.5205830000000  0.4981740000000  0.4242030000000 1.0
C      1  0.5118790000000  0.4507270000000  0.4333730000000 1.0
C      1  0.4164990000000  0.4767230000000  0.5041780000000 1.0
C      1  0.4658940000000  0.4707630000000  0.5710060000000 1.0
C      1  0.5776580000000  0.5017310000000  0.4800770000000 1.0
C      1  0.5328190000000  0.5591920000000  0.5274170000000 1.0
C      1  0.4867180000000  0.4944320000000  0.5158870000000 1.0
C      1  0.5309390000000  0.5258650000000  0.4196790000000 1.0
C      1  0.4960830000000  0.4682060000000  0.5701540000000 1.0
C      1  0.5182600000000  0.4948130000000  0.4543740000000 1.0
C      1  0.5711740000000  0.5302230000000  0.5478230000000 1.0
C      1  0.4526070000000  0.4917340000000  0.4834360000000 1.0
C      1  0.4886410000000  0.5262160000000  0.4784000000000 1.0
C      1  0.4498020000000  0.4967310000000  0.5693490000000 1.0
C      1  0.5527230000000  0.5300050000000  0.4408400000000 1.0
C      1  0.4927150000000  0.4791850000000  0.4681910000000 1.0
C      1  0.5547810000000  0.5400410000000  0.4882530000000 1.0
C      1  0.5060610000000  0.4113740000000  0.4957550000000 1.0
C      1  0.4439020000000  0.5263460000000  0.4572930000000 1.0
C      1  0.5082570000000  0.5425610000000  0.4229940000000 1.0
C      1  0.5365200000000  0.5131920000000  0.5491700000000 1.0
C      1  0.4089370000000  0.4948560000000  0.4768420000000 1.0
C      1  0.4814570000000  0.5375030000000  0.4300760000000 1.0
C      1  0.4475560000000  0.4997070000000  0.4402640000000 1.0
C      1  0.5178010000000  0.5858580000000  0.5319780000000 1.0
C      1  0.4989610000000  0.5768080000000  0.4818660000000 1.0
C      1  0.5730900000000  0.5115340000000  0.5255840000000 1.0
C      1  0.4713310000000  0.4725520000000  0.4456080000000 1.0
C      1  0.5314090000000  0.4977800000000  0.5016510000000 1.0
C      1  0.4246390000000  0.4893360000000  0.5548290000000 1.0
C      1  0.4238660000000  0.4614880000000  0.5603920000000 1.0
C      1  0.5171670000000  0.4522760000000  0.5553620000000 1.0
C      1  0.4557280000000  0.4471290000000  0.4499120000000 1.0
C      1  0.4746670000000  0.5860490000000  0.5231930000000 1.0
C      1  0.5899570000000  0.4788480000000  0.4951410000000 1.0
C      1  0.5446580000000  0.5841780000000  0.4857190000000 1.0
C      1  0.5632700000000  0.4377530000000  0.5185370000000 1.0
C      1  0.5223170000000  0.4386580000000  0.4567930000000 1.0
C      1  0.5112090000000  0.4901770000000  0.5818760000000 1.0
C      1  0.5427200000000  0.4207730000000  0.5276390000000 1.0
C      1  0.5673480000000  0.4412480000000  0.4884410000000 1.0
C      1  0.4574160000000  0.4412410000000  0.4965510000000 1.0
C      1  0.4196940000000  0.4825040000000  0.4504920000000 1.0
C      1  0.5582200000000  0.5131740000000  0.4994680000000 1.0
C      1  0.5178430000000  0.4281240000000  0.5385410000000 1.0
C      1  0.4320790000000  0.4947410000000  0.5252820000000 1.0
C      1  0.4689860000000  0.4307660000000  0.4711550000000 1.0
C      1  0.5832320000000  0.4831760000000  0.5249580000000 1.0
C      1  0.4893320000000  0.4648130000000  0.4232140000000 1.0
C      1  0.5513030000000  0.5635580000000  0.5040480000000 1.0
C      1  0.5667090000000  0.5017210000000  0.4516340000000 1.0
C      1  0.5001790000000  0.4587390000000  0.4904760000000 1.0
C      1  0.4834210000000  0.5337780000000  0.5747280000000 1.0
C      1  0.4478480000000  0.4492940000000  0.5663860000000 1.0
C      1  0.4938890000000  0.4918840000000  0.4124350000000 1.0
C      1  0.5277130000000  0.4684300000000  0.4964000000000 1.0
C      1  0.4611400000000  0.4883260000000  0.5268940000000 1.0
C      1  0.5144490000000  0.5075830000000  0.5242890000000 1.0
END
