TITL C-950533-5798-171 -2.93596217409679e-06 125000 -364.144863893018 0 0 61 (C1) n - 1
REM
REM in /home/bkarasulu/work/CARBON/AIRSS/Generating-Clusters/EDIP-Nigel-Params/with-SteepDescent/Only-C1/SD-CG/HFTN-CG
REM
REM
REM
REM
REM
REM ./C.cell (11c1c37f851c82e70ff6c80c92926a4b)
REM
REM compiler GCC version 9.2.1 20190827 (Red Hat 9.2.1-1)
REM options -cpp -mtune=generic -march=x86-64 -g -O0 -fpre-include=/usr/include/finclude/math-vector-fortran.h
REM seed 1004172155 588435307 507521873 -1882819564 -1150749870 1285984388 1824238777 -932440417 860265693 1583763037 -898382587 -1010179166 -1591909185 1324079440 1573017425 2021986436 -919888108 -438236124 1692767730 -271178404 -980812812 1492206293 -1837518622 -1587844514 1935675514 1095091866 921642160 304279517 -1371687554 -726757625 -316218094 -1152961504 -928512978
REM
CELL 1.54180   50.00000   50.00000   50.00000   90.00000   90.00000   90.00000
LATT -1
SFAC C  
C      1  0.5219510000000  0.5528080000000  0.5317610000000 1.0
C      1  0.5029800000000  0.5417620000000  0.4604400000000 1.0
C      1  0.5613320000000  0.5202400000000  0.5157180000000 1.0
C      1  0.4758520000000  0.4552980000000  0.4553210000000 1.0
C      1  0.4266610000000  0.5082230000000  0.4986250000000 1.0
C      1  0.4448040000000  0.4928060000000  0.4520620000000 1.0
C      1  0.4810530000000  0.5573580000000  0.4498180000000 1.0
C      1  0.5221800000000  0.5609130000000  0.4704540000000 1.0
C      1  0.4398770000000  0.5316700000000  0.5111530000000 1.0
C      1  0.4923130000000  0.5474520000000  0.5297580000000 1.0
C      1  0.4490550000000  0.4647920000000  0.4639690000000 1.0
C      1  0.5081040000000  0.4653340000000  0.5320780000000 1.0
C      1  0.5220880000000  0.4658030000000  0.4596850000000 1.0
C      1  0.4484690000000  0.5248830000000  0.5367150000000 1.0
C      1  0.4692950000000  0.5094190000000  0.4403510000000 1.0
C      1  0.4734960000000  0.4887310000000  0.5040690000000 1.0
C      1  0.5613640000000  0.4693950000000  0.4883310000000 1.0
C      1  0.4634170000000  0.5306380000000  0.5590050000000 1.0
C      1  0.4967810000000  0.5222460000000  0.4866150000000 1.0
C      1  0.5416240000000  0.4653590000000  0.5606690000000 1.0
C      1  0.5491960000000  0.5184670000000  0.4880850000000 1.0
C      1  0.5081120000000  0.5747540000000  0.4929740000000 1.0
C      1  0.5304260000000  0.4401580000000  0.5689430000000 1.0
C      1  0.4741550000000  0.4816170000000  0.5653350000000 1.0
C      1  0.4587710000000  0.5439360000000  0.4924640000000 1.0
C      1  0.4617080000000  0.5383080000000  0.4435540000000 1.0
C      1  0.5562400000000  0.5665590000000  0.4998960000000 1.0
C      1  0.4881050000000  0.5154050000000  0.5254560000000 1.0
C      1  0.5009350000000  0.4279380000000  0.5298850000000 1.0
C      1  0.4943210000000  0.4780000000000  0.4582480000000 1.0
C      1  0.5216370000000  0.5088080000000  0.4995850000000 1.0
C      1  0.4439770000000  0.5393580000000  0.4666830000000 1.0
C      1  0.5613890000000  0.4941880000000  0.4706810000000 1.0
C      1  0.5760850000000  0.4983260000000  0.5239300000000 1.0
C      1  0.4793820000000  0.4670770000000  0.5420030000000 1.0
C      1  0.4886300000000  0.4361030000000  0.4739000000000 1.0
C      1  0.4741640000000  0.4379370000000  0.5385000000000 1.0
C      1  0.4724180000000  0.5077470000000  0.5720710000000 1.0
C      1  0.4823320000000  0.5599450000000  0.5041530000000 1.0
C      1  0.5177340000000  0.4354460000000  0.4685790000000 1.0
C      1  0.5339170000000  0.4989560000000  0.4262390000000 1.0
C      1  0.5047120000000  0.5056830000000  0.4257350000000 1.0
C      1  0.4788760000000  0.5538470000000  0.5550170000000 1.0
C      1  0.5150380000000  0.5302130000000  0.4367270000000 1.0
C      1  0.5268010000000  0.4284710000000  0.5427930000000 1.0
C      1  0.5355090000000  0.5262670000000  0.5319260000000 1.0
C      1  0.5220910000000  0.4864780000000  0.5615530000000 1.0
C      1  0.5326890000000  0.4598920000000  0.4893010000000 1.0
C      1  0.5146850000000  0.5073970000000  0.5427780000000 1.0
C      1  0.5481970000000  0.5488470000000  0.4792130000000 1.0
C      1  0.5511350000000  0.4571600000000  0.5341080000000 1.0
C      1  0.5690380000000  0.4723670000000  0.5168210000000 1.0
C      1  0.4810810000000  0.4530870000000  0.4992480000000 1.0
C      1  0.4802100000000  0.4996560000000  0.4758920000000 1.0
C      1  0.5161680000000  0.4782230000000  0.5053810000000 1.0
C      1  0.5311310000000  0.5728710000000  0.5123570000000 1.0
C      1  0.4290540000000  0.5129640000000  0.4683970000000 1.0
C      1  0.4432020000000  0.4855320000000  0.5091380000000 1.0
C      1  0.4429980000000  0.4593120000000  0.4946100000000 1.0
C      1  0.5444950000000  0.4826210000000  0.4477710000000 1.0
C      1  0.4565620000000  0.4349460000000  0.5134740000000 1.0
END
