TITL C-950532-2784-134 -5.59033169866394e-06 125000 -967.319321997049 0 0 155 (C1) n - 1
REM
REM in /home/bkarasulu/work/CARBON/AIRSS/Generating-Clusters/EDIP-Nigel-Params/with-SteepDescent/Only-C1/SD-CG/HFTN-CG
REM
REM
REM
REM
REM
REM ./C.cell (11c1c37f851c82e70ff6c80c92926a4b)
REM
REM compiler GCC version 9.2.1 20190827 (Red Hat 9.2.1-1)
REM options -cpp -mtune=generic -march=x86-64 -g -O0 -fpre-include=/usr/include/finclude/math-vector-fortran.h
REM seed 263965042 2005706964 -1218113278 -1572144100 -726869250 1678592164 1418728820 -1190728023 2080380353 246626362 1493283791 1486104846 -919163003 -2111044024 -837715904 -140219652 925068721 -768885054 -1029150000 1729809027 -634582568 1485122052 -2128609708 -243618199 -1225920215 -307469820 -2020119508 -134358211 1037503725 -632290218 -975621007 -1740152372 -984647130
REM
CELL 1.54180   50.00000   50.00000   50.00000   90.00000   90.00000   90.00000
LATT -1
SFAC C  
C      1  0.5310820000000  0.5132340000000  0.4555670000000 1.0
C      1  0.4787910000000  0.4528660000000  0.4620270000000 1.0
C      1  0.5723580000000  0.4871250000000  0.5533280000000 1.0
C      1  0.4460340000000  0.5227370000000  0.5634700000000 1.0
C      1  0.4311300000000  0.4839130000000  0.5423770000000 1.0
C      1  0.4904740000000  0.5571920000000  0.4952850000000 1.0
C      1  0.5916320000000  0.4917170000000  0.4822400000000 1.0
C      1  0.4015450000000  0.4930890000000  0.5322600000000 1.0
C      1  0.5889240000000  0.5348910000000  0.5098070000000 1.0
C      1  0.5490930000000  0.4130100000000  0.4427500000000 1.0
C      1  0.5365250000000  0.6082590000000  0.4637230000000 1.0
C      1  0.5832320000000  0.4665680000000  0.5329990000000 1.0
C      1  0.4955010000000  0.4480830000000  0.5766680000000 1.0
C      1  0.4269310000000  0.5093210000000  0.4906640000000 1.0
C      1  0.4897840000000  0.5240790000000  0.5690510000000 1.0
C      1  0.5006850000000  0.5066640000000  0.3876380000000 1.0
C      1  0.4938160000000  0.5385920000000  0.5397000000000 1.0
C      1  0.5653540000000  0.5745830000000  0.4856070000000 1.0
C      1  0.5226400000000  0.4442560000000  0.5921980000000 1.0
C      1  0.5396320000000  0.4892530000000  0.5549690000000 1.0
C      1  0.4853020000000  0.4044420000000  0.5538950000000 1.0
C      1  0.4899980000000  0.4948500000000  0.5630570000000 1.0
C      1  0.4701290000000  0.5204270000000  0.4746630000000 1.0
C      1  0.5152470000000  0.6113870000000  0.5347300000000 1.0
C      1  0.4442110000000  0.4311850000000  0.4910380000000 1.0
C      1  0.4674680000000  0.5945650000000  0.4964870000000 1.0
C      1  0.5485690000000  0.5698620000000  0.4389690000000 1.0
C      1  0.5629320000000  0.5005510000000  0.5147110000000 1.0
C      1  0.4641570000000  0.5084850000000  0.4479280000000 1.0
C      1  0.4982600000000  0.5135930000000  0.5234170000000 1.0
C      1  0.4753910000000  0.5512420000000  0.5181940000000 1.0
C      1  0.4508680000000  0.4738770000000  0.4480420000000 1.0
C      1  0.5488020000000  0.4446890000000  0.5771390000000 1.0
C      1  0.5129740000000  0.4033890000000  0.5574320000000 1.0
C      1  0.5338470000000  0.3915330000000  0.4551610000000 1.0
C      1  0.4321600000000  0.4936360000000  0.4136340000000 1.0
C      1  0.4663360000000  0.5886570000000  0.5462440000000 1.0
C      1  0.3988010000000  0.4665460000000  0.5173180000000 1.0
C      1  0.5249270000000  0.4673540000000  0.6116500000000 1.0
C      1  0.4476450000000  0.5312190000000  0.4903300000000 1.0
C      1  0.4983790000000  0.5946950000000  0.4910990000000 1.0
C      1  0.5908990000000  0.4443990000000  0.4904980000000 1.0
C      1  0.5049430000000  0.5187270000000  0.4169910000000 1.0
C      1  0.5074710000000  0.6088250000000  0.4660730000000 1.0
C      1  0.5122390000000  0.4452510000000  0.4669790000000 1.0
C      1  0.5293180000000  0.4942170000000  0.5833900000000 1.0
C      1  0.5322260000000  0.4235620000000  0.4196940000000 1.0
C      1  0.5746400000000  0.4261910000000  0.5071590000000 1.0
C      1  0.4994280000000  0.4002640000000  0.5041770000000 1.0
C      1  0.5085450000000  0.4930140000000  0.4582420000000 1.0
C      1  0.5516040000000  0.4309840000000  0.5511630000000 1.0
C      1  0.4243290000000  0.4388250000000  0.4702670000000 1.0
C      1  0.4810790000000  0.5555210000000  0.5907280000000 1.0
C      1  0.4787100000000  0.4015010000000  0.5251020000000 1.0
C      1  0.4221370000000  0.5393110000000  0.5296070000000 1.0
C      1  0.5335770000000  0.5656840000000  0.5193800000000 1.0
C      1  0.4414270000000  0.4461070000000  0.4057610000000 1.0
C      1  0.4878540000000  0.6072110000000  0.5423560000000 1.0
C      1  0.5333110000000  0.4112810000000  0.5403350000000 1.0
C      1  0.4263970000000  0.4258450000000  0.5356630000000 1.0
C      1  0.5727400000000  0.4391910000000  0.5335600000000 1.0
C      1  0.4021080000000  0.4412940000000  0.5312140000000 1.0
C      1  0.4584690000000  0.5759040000000  0.5199560000000 1.0
C      1  0.4250090000000  0.5462680000000  0.4624100000000 1.0
C      1  0.4431580000000  0.5554490000000  0.4404620000000 1.0
C      1  0.4351260000000  0.4119160000000  0.5114290000000 1.0
C      1  0.5056860000000  0.4205140000000  0.4312850000000 1.0
C      1  0.5625800000000  0.5682160000000  0.5311720000000 1.0
C      1  0.5191010000000  0.5566250000000  0.5442750000000 1.0
C      1  0.4161100000000  0.5175510000000  0.4622670000000 1.0
C      1  0.5315240000000  0.5414920000000  0.4987910000000 1.0
C      1  0.5077770000000  0.4033030000000  0.4545870000000 1.0
C      1  0.4704070000000  0.4716620000000  0.4871200000000 1.0
C      1  0.5789630000000  0.5234800000000  0.4343090000000 1.0
C      1  0.4776050000000  0.4926830000000  0.5364620000000 1.0
C      1  0.4531780000000  0.5105630000000  0.5901120000000 1.0
C      1  0.5476020000000  0.5989840000000  0.4389460000000 1.0
C      1  0.5236040000000  0.5946580000000  0.5100010000000 1.0
C      1  0.4597110000000  0.5004460000000  0.4046720000000 1.0
C      1  0.5256880000000  0.4145720000000  0.5111780000000 1.0
C      1  0.5796900000000  0.5632650000000  0.5085880000000 1.0
C      1  0.4219980000000  0.5075790000000  0.4362830000000 1.0
C      1  0.5010640000000  0.4544970000000  0.5481310000000 1.0
C      1  0.5361660000000  0.4499620000000  0.4074690000000 1.0
C      1  0.5213680000000  0.5598010000000  0.4477640000000 1.0
C      1  0.5668760000000  0.4683030000000  0.5828600000000 1.0
C      1  0.4247190000000  0.5625790000000  0.4871560000000 1.0
C      1  0.4800000000000  0.5839950000000  0.4317840000000 1.0
C      1  0.4904230000000  0.4998990000000  0.4366500000000 1.0
C      1  0.5269940000000  0.5148790000000  0.5131430000000 1.0
C      1  0.4404530000000  0.4790850000000  0.4913860000000 1.0
C      1  0.5137460000000  0.5199160000000  0.5908560000000 1.0
C      1  0.5137760000000  0.5784400000000  0.5636880000000 1.0
C      1  0.4536310000000  0.3922480000000  0.5179190000000 1.0
C      1  0.5476650000000  0.5986460000000  0.4893970000000 1.0
C      1  0.5939510000000  0.4708680000000  0.5047210000000 1.0
C      1  0.4091840000000  0.5167570000000  0.5151480000000 1.0
C      1  0.4977630000000  0.4830140000000  0.6122580000000 1.0
C      1  0.4761170000000  0.4603990000000  0.5335330000000 1.0
C      1  0.4886660000000  0.4043410000000  0.4763660000000 1.0
C      1  0.4531420000000  0.4439750000000  0.5512140000000 1.0
C      1  0.4481980000000  0.4200260000000  0.4468760000000 1.0
C      1  0.5815460000000  0.5231360000000  0.5380370000000 1.0
C      1  0.4911750000000  0.5398140000000  0.4732230000000 1.0
C      1  0.4625340000000  0.5293670000000  0.4014980000000 1.0
C      1  0.5095590000000  0.4476010000000  0.4984350000000 1.0
C      1  0.5578890000000  0.5290190000000  0.4167500000000 1.0
C      1  0.5500490000000  0.4822630000000  0.4690620000000 1.0
C      1  0.4656090000000  0.5375600000000  0.4304710000000 1.0
C      1  0.4543910000000  0.4793510000000  0.5891090000000 1.0
C      1  0.5772140000000  0.4476390000000  0.4642200000000 1.0
C      1  0.4617130000000  0.5692410000000  0.5692830000000 1.0
C      1  0.4538750000000  0.5821840000000  0.4453250000000 1.0
C      1  0.4281450000000  0.4672480000000  0.4672650000000 1.0
C      1  0.4840300000000  0.4756550000000  0.5860040000000 1.0
C      1  0.5237970000000  0.4697590000000  0.5383030000000 1.0
C      1  0.4982930000000  0.5132380000000  0.6163100000000 1.0
C      1  0.4584290000000  0.4302130000000  0.4215060000000 1.0
C      1  0.5507560000000  0.4839330000000  0.6025140000000 1.0
C      1  0.4409990000000  0.5510610000000  0.5606380000000 1.0
C      1  0.5395660000000  0.5404020000000  0.5588520000000 1.0
C      1  0.5211040000000  0.5388030000000  0.4687050000000 1.0
C      1  0.5479000000000  0.4800580000000  0.4981020000000 1.0
C      1  0.5340840000000  0.5119590000000  0.4248640000000 1.0
C      1  0.5284350000000  0.6028280000000  0.5587090000000 1.0
C      1  0.4725800000000  0.5281870000000  0.6079980000000 1.0
C      1  0.4388140000000  0.4663040000000  0.5665790000000 1.0
C      1  0.5293980000000  0.4738690000000  0.4228430000000 1.0
C      1  0.4825930000000  0.4834890000000  0.3920320000000 1.0
C      1  0.4943610000000  0.5575730000000  0.4326240000000 1.0
C      1  0.5689620000000  0.5621270000000  0.4598550000000 1.0
C      1  0.5304430000000  0.5439250000000  0.5885710000000 1.0
C      1  0.5779680000000  0.4772460000000  0.4591150000000 1.0
C      1  0.4988830000000  0.4596750000000  0.4036690000000 1.0
C      1  0.4498380000000  0.5059490000000  0.5386290000000 1.0
C      1  0.4726970000000  0.4273590000000  0.5691760000000 1.0
C      1  0.4664120000000  0.4251000000000  0.4700170000000 1.0
C      1  0.5240720000000  0.4706510000000  0.5097730000000 1.0
C      1  0.4534580000000  0.5926270000000  0.4719040000000 1.0
C      1  0.4861190000000  0.5317480000000  0.3854600000000 1.0
C      1  0.5104240000000  0.5662220000000  0.5902220000000 1.0
C      1  0.5810650000000  0.5358010000000  0.4593020000000 1.0
C      1  0.4860450000000  0.4387490000000  0.4208960000000 1.0
C      1  0.4332880000000  0.4665040000000  0.4232780000000 1.0
C      1  0.5499330000000  0.4177050000000  0.4926570000000 1.0
C      1  0.4941360000000  0.6056610000000  0.4420370000000 1.0
C      1  0.5386270000000  0.5148770000000  0.5418370000000 1.0
C      1  0.5262630000000  0.4691240000000  0.4532640000000 1.0
C      1  0.5863040000000  0.5208300000000  0.4840780000000 1.0
C      1  0.4305580000000  0.5634820000000  0.5152450000000 1.0
C      1  0.5675320000000  0.5470820000000  0.5514050000000 1.0
C      1  0.4310500000000  0.4644410000000  0.5169420000000 1.0
C      1  0.4804370000000  0.4519750000000  0.5058660000000 1.0
C      1  0.5542950000000  0.5568580000000  0.4135280000000 1.0
C      1  0.5489200000000  0.4329430000000  0.4655820000000 1.0
END
