TITL C-951347-9520-161 1.08582235086036e-06 125000 -1195.85942784478 0 0 192 (C1) n - 1
REM
REM in /home/bkarasulu/work/CARBON/AIRSS/Generating-Clusters/EDIP-Nigel-Params/with-SteepDescent/Only-C1/SD-CG/HFTN-CG
REM
REM
REM
REM
REM
REM ./C.cell (11c1c37f851c82e70ff6c80c92926a4b)
REM
REM compiler GCC version 9.2.1 20190827 (Red Hat 9.2.1-1)
REM options -cpp -mtune=generic -march=x86-64 -g -O0 -fpre-include=/usr/include/finclude/math-vector-fortran.h
REM seed -1959120570 -463724985 680450229 -205581982 -1431090855 457598586 -1087807027 -1167594425 -1049005238 -1492620775 -1991153151 -1950601369 -1290713687 -2004109416 -1880400303 -1758450744 495533366 -1067076088 409397833 1690172312 -1566937605 -1460392867 -868944020 -1462773961 2112775353 -330538985 1746506849 1127745315 -2036731672 1479312841 -1619975067 -1945451218 -427036755
REM
CELL 1.54180   50.00000   50.00000   50.00000   90.00000   90.00000   90.00000
LATT -1
SFAC C  
C      1  0.4655900000000  0.4546550000000  0.5422880000000 1.0
C      1  0.4784770000000  0.5111360000000  0.5378240000000 1.0
C      1  0.4661620000000  0.3980360000000  0.5250850000000 1.0
C      1  0.4405170000000  0.5309320000000  0.5159670000000 1.0
C      1  0.5463630000000  0.4393740000000  0.4418260000000 1.0
C      1  0.4212840000000  0.5102780000000  0.5170950000000 1.0
C      1  0.4188360000000  0.5165450000000  0.4421220000000 1.0
C      1  0.5681540000000  0.4806780000000  0.4887610000000 1.0
C      1  0.4399810000000  0.5240140000000  0.4638010000000 1.0
C      1  0.5113080000000  0.5603350000000  0.5944590000000 1.0
C      1  0.4811110000000  0.5276450000000  0.4322200000000 1.0
C      1  0.5159510000000  0.5814130000000  0.4937890000000 1.0
C      1  0.4433950000000  0.5767310000000  0.5537940000000 1.0
C      1  0.5097390000000  0.3890930000000  0.5532580000000 1.0
C      1  0.4754170000000  0.4670640000000  0.5721710000000 1.0
C      1  0.5447370000000  0.5878900000000  0.4519900000000 1.0
C      1  0.5092460000000  0.5614350000000  0.4689150000000 1.0
C      1  0.6013050000000  0.4554360000000  0.5191650000000 1.0
C      1  0.5200840000000  0.3763850000000  0.5292210000000 1.0
C      1  0.5316130000000  0.5047380000000  0.5105940000000 1.0
C      1  0.5085530000000  0.5516130000000  0.4071670000000 1.0
C      1  0.4256850000000  0.4893870000000  0.4276460000000 1.0
C      1  0.5099240000000  0.6126460000000  0.5404530000000 1.0
C      1  0.4520580000000  0.5935350000000  0.5302650000000 1.0
C      1  0.5219210000000  0.5353000000000  0.6033380000000 1.0
C      1  0.5335880000000  0.4761460000000  0.6094760000000 1.0
C      1  0.5796700000000  0.4349610000000  0.5145270000000 1.0
C      1  0.5446010000000  0.4763570000000  0.5085160000000 1.0
C      1  0.5286670000000  0.5120060000000  0.4483390000000 1.0
C      1  0.5311490000000  0.3941920000000  0.4382920000000 1.0
C      1  0.5551710000000  0.3905440000000  0.4530980000000 1.0
C      1  0.5754160000000  0.5920770000000  0.4984800000000 1.0
C      1  0.4703020000000  0.5764220000000  0.5136310000000 1.0
C      1  0.4606680000000  0.5724480000000  0.4171780000000 1.0
C      1  0.5824610000000  0.5347050000000  0.4140200000000 1.0
C      1  0.5727400000000  0.4865950000000  0.4389460000000 1.0
C      1  0.5514810000000  0.4708100000000  0.5363920000000 1.0
C      1  0.5335400000000  0.6171880000000  0.4897710000000 1.0
C      1  0.4705220000000  0.4129740000000  0.5709290000000 1.0
C      1  0.5617650000000  0.4411390000000  0.5385280000000 1.0
C      1  0.5380120000000  0.4337020000000  0.4846990000000 1.0
C      1  0.4303040000000  0.5948550000000  0.5082240000000 1.0
C      1  0.5559370000000  0.5128600000000  0.4325030000000 1.0
C      1  0.4718040000000  0.5176460000000  0.3881450000000 1.0
C      1  0.4160000000000  0.5629510000000  0.5502450000000 1.0
C      1  0.4648190000000  0.4765000000000  0.4445050000000 1.0
C      1  0.5288310000000  0.4107270000000  0.5640510000000 1.0
C      1  0.5386750000000  0.4511180000000  0.5936800000000 1.0
C      1  0.3911350000000  0.4784450000000  0.5097510000000 1.0
C      1  0.4775020000000  0.5219030000000  0.5846400000000 1.0
C      1  0.5410430000000  0.3837530000000  0.4974260000000 1.0
C      1  0.4056490000000  0.4529080000000  0.5240270000000 1.0
C      1  0.4391850000000  0.5330020000000  0.5604010000000 1.0
C      1  0.5512300000000  0.5387280000000  0.4899260000000 1.0
C      1  0.5443740000000  0.5256480000000  0.5307250000000 1.0
C      1  0.4676950000000  0.5227280000000  0.5110650000000 1.0
C      1  0.4713670000000  0.4497090000000  0.5957980000000 1.0
C      1  0.4455490000000  0.4259960000000  0.5598860000000 1.0
C      1  0.4046330000000  0.4852780000000  0.5543860000000 1.0
C      1  0.3953870000000  0.5198990000000  0.5278810000000 1.0
C      1  0.5733400000000  0.5515500000000  0.5331730000000 1.0
C      1  0.5545680000000  0.5311920000000  0.4055110000000 1.0
C      1  0.4897780000000  0.4619230000000  0.5249900000000 1.0
C      1  0.5594510000000  0.5699560000000  0.5520220000000 1.0
C      1  0.4997700000000  0.5160860000000  0.6048920000000 1.0
C      1  0.5838750000000  0.5101340000000  0.5235910000000 1.0
C      1  0.5980090000000  0.5378400000000  0.5471580000000 1.0
C      1  0.5715660000000  0.5387990000000  0.5883500000000 1.0
C      1  0.4552410000000  0.5426960000000  0.5857010000000 1.0
C      1  0.4799510000000  0.5560910000000  0.4718810000000 1.0
C      1  0.4827310000000  0.4608570000000  0.4944600000000 1.0
C      1  0.5273140000000  0.6153420000000  0.5180850000000 1.0
C      1  0.4702530000000  0.4878470000000  0.3899680000000 1.0
C      1  0.5102600000000  0.6182650000000  0.4695380000000 1.0
C      1  0.4594410000000  0.4419810000000  0.4537760000000 1.0
C      1  0.4986490000000  0.4885560000000  0.5341160000000 1.0
C      1  0.5551730000000  0.4957630000000  0.6054430000000 1.0
C      1  0.5809360000000  0.4442530000000  0.5624900000000 1.0
C      1  0.5764860000000  0.4861220000000  0.5397050000000 1.0
C      1  0.5016210000000  0.5968520000000  0.4243990000000 1.0
C      1  0.4174530000000  0.5423710000000  0.4239700000000 1.0
C      1  0.4472700000000  0.4449790000000  0.4109270000000 1.0
C      1  0.5859970000000  0.4411990000000  0.4616200000000 1.0
C      1  0.5297480000000  0.4862110000000  0.4633810000000 1.0
C      1  0.5786630000000  0.5503260000000  0.4377000000000 1.0
C      1  0.5523480000000  0.5638500000000  0.4368810000000 1.0
C      1  0.5994490000000  0.4905010000000  0.4515590000000 1.0
C      1  0.4597100000000  0.5239480000000  0.4132710000000 1.0
C      1  0.4797320000000  0.5043920000000  0.4895770000000 1.0
C      1  0.5490130000000  0.5235310000000  0.5984480000000 1.0
C      1  0.5108210000000  0.3835480000000  0.5024830000000 1.0
C      1  0.5030490000000  0.4614200000000  0.4135270000000 1.0
C      1  0.5844460000000  0.5658570000000  0.5081030000000 1.0
C      1  0.5773200000000  0.4661870000000  0.4186250000000 1.0
C      1  0.5285190000000  0.5615280000000  0.5134350000000 1.0
C      1  0.6157850000000  0.5015150000000  0.4945550000000 1.0
C      1  0.4590090000000  0.4245230000000  0.4795160000000 1.0
C      1  0.4233850000000  0.5734150000000  0.4623740000000 1.0
C      1  0.4225090000000  0.5486410000000  0.4774380000000 1.0
C      1  0.4902880000000  0.5300710000000  0.5577800000000 1.0
C      1  0.5999740000000  0.4744840000000  0.4950540000000 1.0
C      1  0.5364070000000  0.5134390000000  0.5570900000000 1.0
C      1  0.5977870000000  0.4674430000000  0.5494520000000 1.0
C      1  0.5660530000000  0.5642360000000  0.5783200000000 1.0
C      1  0.5067070000000  0.4863130000000  0.6033930000000 1.0
C      1  0.3883390000000  0.5439350000000  0.5110270000000 1.0
C      1  0.5333640000000  0.4202340000000  0.4220560000000 1.0
C      1  0.4514590000000  0.5049080000000  0.5524690000000 1.0
C      1  0.4189690000000  0.4701560000000  0.4722700000000 1.0
C      1  0.5379700000000  0.5550290000000  0.4122060000000 1.0
C      1  0.4424240000000  0.4657330000000  0.5234570000000 1.0
C      1  0.4284500000000  0.4516450000000  0.5711090000000 1.0
C      1  0.4828400000000  0.6155930000000  0.5304380000000 1.0
C      1  0.4798810000000  0.5503780000000  0.5032620000000 1.0
C      1  0.5534150000000  0.5968870000000  0.4796260000000 1.0
C      1  0.4857130000000  0.4319130000000  0.4909740000000 1.0
C      1  0.4511820000000  0.4668670000000  0.4926570000000 1.0
C      1  0.6133300000000  0.5154250000000  0.5199640000000 1.0
C      1  0.4643900000000  0.5675160000000  0.5728560000000 1.0
C      1  0.4824210000000  0.6161930000000  0.4817380000000 1.0
C      1  0.4249730000000  0.5704750000000  0.4336290000000 1.0
C      1  0.3939650000000  0.5395900000000  0.4808920000000 1.0
C      1  0.4818150000000  0.3965990000000  0.4489600000000 1.0
C      1  0.4077010000000  0.5659540000000  0.5208850000000 1.0
C      1  0.4651160000000  0.3954780000000  0.4737730000000 1.0
C      1  0.5925800000000  0.5242170000000  0.5733880000000 1.0
C      1  0.4159040000000  0.4237590000000  0.4598150000000 1.0
C      1  0.4438820000000  0.4179960000000  0.5306290000000 1.0
C      1  0.4773230000000  0.5815470000000  0.4508580000000 1.0
C      1  0.5053550000000  0.4688440000000  0.4639530000000 1.0
C      1  0.4805970000000  0.4260500000000  0.4393680000000 1.0
C      1  0.4375760000000  0.5937720000000  0.4779810000000 1.0
C      1  0.4943050000000  0.5764660000000  0.5774580000000 1.0
C      1  0.3965730000000  0.5127930000000  0.4666620000000 1.0
C      1  0.5074700000000  0.5420270000000  0.5124320000000 1.0
C      1  0.5680090000000  0.4542830000000  0.5870700000000 1.0
C      1  0.4624740000000  0.6034630000000  0.4644840000000 1.0
C      1  0.4725460000000  0.4296280000000  0.4107510000000 1.0
C      1  0.5105670000000  0.5184980000000  0.4934450000000 1.0
C      1  0.4298050000000  0.4291390000000  0.4846110000000 1.0
C      1  0.5194160000000  0.5382710000000  0.5595790000000 1.0
C      1  0.4829560000000  0.3998120000000  0.5489250000000 1.0
C      1  0.4182830000000  0.4664150000000  0.4442780000000 1.0
C      1  0.5147150000000  0.4424110000000  0.5260810000000 1.0
C      1  0.5173200000000  0.4317140000000  0.5824370000000 1.0
C      1  0.5232050000000  0.4863990000000  0.5522710000000 1.0
C      1  0.5126010000000  0.5037030000000  0.4005980000000 1.0
C      1  0.5175030000000  0.5988180000000  0.4483180000000 1.0
C      1  0.4803880000000  0.3889700000000  0.5000240000000 1.0
C      1  0.5114900000000  0.5867070000000  0.5546720000000 1.0
C      1  0.5050980000000  0.4736600000000  0.5756010000000 1.0
C      1  0.4879190000000  0.4279340000000  0.5891070000000 1.0
C      1  0.5782400000000  0.4812600000000  0.5943210000000 1.0
C      1  0.4586910000000  0.4911170000000  0.5787050000000 1.0
C      1  0.6024610000000  0.5137820000000  0.4698340000000 1.0
C      1  0.4327990000000  0.4781500000000  0.5875290000000 1.0
C      1  0.5307600000000  0.5657560000000  0.5448910000000 1.0
C      1  0.5255480000000  0.5341790000000  0.4711300000000 1.0
C      1  0.5262300000000  0.4552350000000  0.5006010000000 1.0
C      1  0.4568960000000  0.4928020000000  0.4723270000000 1.0
C      1  0.4986870000000  0.4791040000000  0.3906780000000 1.0
C      1  0.5723880000000  0.5577090000000  0.4809970000000 1.0
C      1  0.5972980000000  0.4949640000000  0.5769190000000 1.0
C      1  0.5614530000000  0.3963390000000  0.4801320000000 1.0
C      1  0.4324430000000  0.5564510000000  0.5043360000000 1.0
C      1  0.4513410000000  0.4756690000000  0.4149490000000 1.0
C      1  0.6043370000000  0.4642010000000  0.4672350000000 1.0
C      1  0.5681790000000  0.5121140000000  0.4967340000000 1.0
C      1  0.5038340000000  0.5073780000000  0.4300160000000 1.0
C      1  0.5108130000000  0.4332590000000  0.4079740000000 1.0
C      1  0.5743450000000  0.4424810000000  0.4343750000000 1.0
C      1  0.5011820000000  0.5283470000000  0.3890870000000 1.0
C      1  0.4071110000000  0.5286800000000  0.5601180000000 1.0
C      1  0.4315310000000  0.4400700000000  0.4395920000000 1.0
C      1  0.5094070000000  0.3946920000000  0.4597020000000 1.0
C      1  0.3758480000000  0.4979960000000  0.5240120000000 1.0
C      1  0.4221640000000  0.4284020000000  0.5130880000000 1.0
C      1  0.5555660000000  0.4726550000000  0.4604090000000 1.0
C      1  0.4104590000000  0.4964920000000  0.5808920000000 1.0
C      1  0.4437540000000  0.5473900000000  0.4075660000000 1.0
C      1  0.4299850000000  0.4905000000000  0.5363650000000 1.0
C      1  0.4903120000000  0.5748540000000  0.4096320000000 1.0
C      1  0.4014920000000  0.4886270000000  0.4840080000000 1.0
C      1  0.4042510000000  0.4556650000000  0.5545090000000 1.0
C      1  0.5921540000000  0.5427090000000  0.4631630000000 1.0
C      1  0.5366890000000  0.4250050000000  0.5386910000000 1.0
C      1  0.4887150000000  0.5977250000000  0.5047070000000 1.0
C      1  0.5108610000000  0.4219110000000  0.4751770000000 1.0
C      1  0.5685190000000  0.4270390000000  0.4859540000000 1.0
C      1  0.5087040000000  0.4400860000000  0.4519100000000 1.0
C      1  0.4692580000000  0.5327770000000  0.4577380000000 1.0
C      1  0.4935810000000  0.4793750000000  0.4379260000000 1.0
END
