TITL C-950533-5798-479 1.39342152160405e-05 125000 -129.108458916037 0 0 23 (C1) n - 1
REM
REM in /home/bkarasulu/work/CARBON/AIRSS/Generating-Clusters/EDIP-Nigel-Params/with-SteepDescent/Only-C1/SD-CG/HFTN-CG
REM
REM
REM
REM
REM
REM ./C.cell (11c1c37f851c82e70ff6c80c92926a4b)
REM
REM compiler GCC version 9.2.1 20190827 (Red Hat 9.2.1-1)
REM options -cpp -mtune=generic -march=x86-64 -g -O0 -fpre-include=/usr/include/finclude/math-vector-fortran.h
REM seed -539909131 341395047 240310736 1009402249 290602619 -1021495795 1090283804 1704457644 997227994 500725266 2010030954 -1011730314 -649406675 496543243 175537187 -808217483 1858716151 -2039050972 -148917343 482031044 -1523847208 1273684939 -1712716866 -2008737950 -1840822117 -1455106158 898761759 990811706 -232679113 -1826811155 -632516652 -135705710 263733045
REM
CELL 1.54180   50.00000   50.00000   50.00000   90.00000   90.00000   90.00000
LATT -1
SFAC C  
C      1  0.5492270000000  0.5135620000000  0.4893830000000 1.0
C      1  0.4938280000000  0.5073740000000  0.5488850000000 1.0
C      1  0.4503120000000  0.4792210000000  0.4720880000000 1.0
C      1  0.4862950000000  0.5128390000000  0.4734930000000 1.0
C      1  0.5184620000000  0.5114760000000  0.5128170000000 1.0
C      1  0.4881980000000  0.4847990000000  0.5309640000000 1.0
C      1  0.4909490000000  0.5177230000000  0.4464920000000 1.0
C      1  0.5126590000000  0.5106290000000  0.4323790000000 1.0
C      1  0.4558330000000  0.4670530000000  0.4964100000000 1.0
C      1  0.5101440000000  0.4701980000000  0.5212880000000 1.0
C      1  0.5323740000000  0.4507160000000  0.4545930000000 1.0
C      1  0.5376310000000  0.4763660000000  0.4585150000000 1.0
C      1  0.4525650000000  0.5156200000000  0.5771430000000 1.0
C      1  0.5422030000000  0.4858300000000  0.4855370000000 1.0
C      1  0.4707450000000  0.5230020000000  0.5566410000000 1.0
C      1  0.5028510000000  0.5277930000000  0.4917740000000 1.0
C      1  0.4603570000000  0.5036180000000  0.4838640000000 1.0
C      1  0.5301940000000  0.5337500000000  0.4830740000000 1.0
C      1  0.5333840000000  0.4709870000000  0.5075550000000 1.0
C      1  0.5166790000000  0.5217860000000  0.5400230000000 1.0
C      1  0.5334320000000  0.4946010000000  0.4380440000000 1.0
C      1  0.4628750000000  0.4843360000000  0.5176320000000 1.0
C      1  0.4688010000000  0.5367190000000  0.5814060000000 1.0
END
