TITL C-950533-5798-150 -3.41084653416651e-06 125000 -796.193533928573 0 0 129 (C1) n - 1
REM
REM in /home/bkarasulu/work/CARBON/AIRSS/Generating-Clusters/EDIP-Nigel-Params/with-SteepDescent/Only-C1/SD-CG/HFTN-CG
REM
REM
REM
REM
REM
REM ./C.cell (11c1c37f851c82e70ff6c80c92926a4b)
REM
REM compiler GCC version 9.2.1 20190827 (Red Hat 9.2.1-1)
REM options -cpp -mtune=generic -march=x86-64 -g -O0 -fpre-include=/usr/include/finclude/math-vector-fortran.h
REM seed 1432091447 -9573991 -138944898 919690902 1968651297 1105566105 955767795 1909434804 -1985410467 -847796242 1050969297 -1370579362 1134670829 171407838 -885074198 -742573867 1567889679 608492026 -749199555 359768219 -1589168345 470448237 -1057859707 2043899684 -231847999 43703126 150221591 944307020 -1353513085 -1621753533 -684923858 -170202412 -1239048447
REM
CELL 1.54180   50.00000   50.00000   50.00000   90.00000   90.00000   90.00000
LATT -1
SFAC C  
C      1  0.4811250000000  0.4606470000000  0.4831160000000 1.0
C      1  0.5385870000000  0.4859930000000  0.5402870000000 1.0
C      1  0.4466690000000  0.5066450000000  0.4749850000000 1.0
C      1  0.4843540000000  0.5275990000000  0.5541610000000 1.0
C      1  0.4610620000000  0.4781100000000  0.5473650000000 1.0
C      1  0.4915000000000  0.4747950000000  0.4058340000000 1.0
C      1  0.5033940000000  0.5240270000000  0.5145700000000 1.0
C      1  0.5104090000000  0.4942970000000  0.4726020000000 1.0
C      1  0.4570940000000  0.5958320000000  0.4758720000000 1.0
C      1  0.5242170000000  0.5903510000000  0.4887960000000 1.0
C      1  0.5012130000000  0.4211220000000  0.4341720000000 1.0
C      1  0.4525040000000  0.5159180000000  0.5260780000000 1.0
C      1  0.5612610000000  0.5007450000000  0.4710990000000 1.0
C      1  0.5875490000000  0.5153440000000  0.5478240000000 1.0
C      1  0.5113100000000  0.5281960000000  0.5919040000000 1.0
C      1  0.5433770000000  0.5260520000000  0.4806160000000 1.0
C      1  0.3992730000000  0.4884210000000  0.5159080000000 1.0
C      1  0.4315300000000  0.5225950000000  0.4328680000000 1.0
C      1  0.5652990000000  0.4676560000000  0.5610740000000 1.0
C      1  0.4416130000000  0.5556750000000  0.4446570000000 1.0
C      1  0.4155360000000  0.4573540000000  0.4695720000000 1.0
C      1  0.5983740000000  0.4926280000000  0.4789420000000 1.0
C      1  0.5088520000000  0.4507480000000  0.4949690000000 1.0
C      1  0.4989900000000  0.5476990000000  0.4162600000000 1.0
C      1  0.5568070000000  0.5353410000000  0.4165840000000 1.0
C      1  0.5558480000000  0.4930620000000  0.5165440000000 1.0
C      1  0.4323390000000  0.4970060000000  0.4503380000000 1.0
C      1  0.5235720000000  0.5018110000000  0.5848110000000 1.0
C      1  0.5666500000000  0.5547500000000  0.4569440000000 1.0
C      1  0.4796580000000  0.4339750000000  0.4250190000000 1.0
C      1  0.4567370000000  0.4268390000000  0.5251660000000 1.0
C      1  0.4582380000000  0.4439150000000  0.5750950000000 1.0
C      1  0.4608930000000  0.4365200000000  0.4767310000000 1.0
C      1  0.4483530000000  0.4949940000000  0.5038620000000 1.0
C      1  0.5232680000000  0.5495250000000  0.5739610000000 1.0
C      1  0.4115040000000  0.4799830000000  0.5599860000000 1.0
C      1  0.5907400000000  0.4775290000000  0.5520930000000 1.0
C      1  0.6017750000000  0.4693360000000  0.5256210000000 1.0
C      1  0.5271410000000  0.4712260000000  0.4816280000000 1.0
C      1  0.5806420000000  0.4661240000000  0.4491490000000 1.0
C      1  0.5083010000000  0.4531090000000  0.5754470000000 1.0
C      1  0.5655590000000  0.5090210000000  0.4199740000000 1.0
C      1  0.5056350000000  0.5050600000000  0.5405920000000 1.0
C      1  0.4339720000000  0.5164980000000  0.5499860000000 1.0
C      1  0.5500230000000  0.5934250000000  0.5014130000000 1.0
C      1  0.4764580000000  0.5061570000000  0.4318560000000 1.0
C      1  0.5212510000000  0.4427590000000  0.5500210000000 1.0
C      1  0.4321550000000  0.4657660000000  0.5417200000000 1.0
C      1  0.5803350000000  0.5343660000000  0.5033580000000 1.0
C      1  0.4479300000000  0.5828600000000  0.4535910000000 1.0
C      1  0.5096420000000  0.4153530000000  0.5521080000000 1.0
C      1  0.4432790000000  0.4327110000000  0.4998900000000 1.0
C      1  0.4776940000000  0.5424700000000  0.4650060000000 1.0
C      1  0.4954680000000  0.5584600000000  0.5606480000000 1.0
C      1  0.4651370000000  0.5530630000000  0.4902710000000 1.0
C      1  0.5847790000000  0.5384240000000  0.4727970000000 1.0
C      1  0.5139780000000  0.5632640000000  0.4868870000000 1.0
C      1  0.4721020000000  0.5663600000000  0.5788890000000 1.0
C      1  0.5033470000000  0.4818640000000  0.5783820000000 1.0
C      1  0.3999080000000  0.5030890000000  0.4905810000000 1.0
C      1  0.5137500000000  0.5962180000000  0.5256540000000 1.0
C      1  0.5282830000000  0.5430040000000  0.5029060000000 1.0
C      1  0.5085620000000  0.4568430000000  0.5263540000000 1.0
C      1  0.4819830000000  0.5219000000000  0.5851960000000 1.0
C      1  0.4427390000000  0.4377040000000  0.5494180000000 1.0
C      1  0.5724250000000  0.5406590000000  0.5509070000000 1.0
C      1  0.4250240000000  0.5603380000000  0.5159830000000 1.0
C      1  0.5512100000000  0.4923470000000  0.4411580000000 1.0
C      1  0.5859330000000  0.4484400000000  0.5113850000000 1.0
C      1  0.6045560000000  0.4934560000000  0.5073240000000 1.0
C      1  0.4738720000000  0.5812440000000  0.4937270000000 1.0
C      1  0.4467450000000  0.5637780000000  0.5648770000000 1.0
C      1  0.4881550000000  0.4792570000000  0.4571190000000 1.0
C      1  0.4249670000000  0.4739580000000  0.5135390000000 1.0
C      1  0.4796670000000  0.4123890000000  0.4841630000000 1.0
C      1  0.5588110000000  0.4495800000000  0.4354430000000 1.0
C      1  0.4718910000000  0.5140150000000  0.4617840000000 1.0
C      1  0.3998560000000  0.5327090000000  0.4918660000000 1.0
C      1  0.4404380000000  0.4488900000000  0.4550340000000 1.0
C      1  0.4696750000000  0.5815400000000  0.5241060000000 1.0
C      1  0.4311210000000  0.4969050000000  0.5738790000000 1.0
C      1  0.4564440000000  0.4784450000000  0.5778340000000 1.0
C      1  0.4884830000000  0.4787890000000  0.5326000000000 1.0
C      1  0.5897600000000  0.4969090000000  0.4367160000000 1.0
C      1  0.4857000000000  0.4340120000000  0.5756280000000 1.0
C      1  0.4497730000000  0.4716050000000  0.4386260000000 1.0
C      1  0.5069140000000  0.5478410000000  0.4621920000000 1.0
C      1  0.5039280000000  0.5195780000000  0.4256050000000 1.0
C      1  0.4626560000000  0.5433750000000  0.5937530000000 1.0
C      1  0.5174970000000  0.5603560000000  0.4365920000000 1.0
C      1  0.4736260000000  0.5377830000000  0.5182100000000 1.0
C      1  0.5423110000000  0.4609730000000  0.4155860000000 1.0
C      1  0.5451310000000  0.4322370000000  0.4548570000000 1.0
C      1  0.5043840000000  0.4019330000000  0.5267750000000 1.0
C      1  0.4001450000000  0.5006040000000  0.5422840000000 1.0
C      1  0.5543900000000  0.4784750000000  0.4899830000000 1.0
C      1  0.5468670000000  0.4230120000000  0.5051450000000 1.0
C      1  0.4352800000000  0.5593250000000  0.4886500000000 1.0
C      1  0.4765030000000  0.4830400000000  0.5044130000000 1.0
C      1  0.5645300000000  0.4332700000000  0.5258970000000 1.0
C      1  0.5435690000000  0.5344920000000  0.5568720000000 1.0
C      1  0.5189130000000  0.4200310000000  0.4553470000000 1.0
C      1  0.4962850000000  0.5030500000000  0.4962120000000 1.0
C      1  0.5415710000000  0.5914870000000  0.5293530000000 1.0
C      1  0.6003080000000  0.5151570000000  0.4604890000000 1.0
C      1  0.5085590000000  0.4206200000000  0.4833230000000 1.0
C      1  0.5590960000000  0.4308890000000  0.4798320000000 1.0
C      1  0.5279610000000  0.4008120000000  0.5083210000000 1.0
C      1  0.4566340000000  0.5242340000000  0.4181830000000 1.0
C      1  0.5187070000000  0.4762820000000  0.4158230000000 1.0
C      1  0.5743680000000  0.5540280000000  0.5241280000000 1.0
C      1  0.5429720000000  0.5057250000000  0.5636330000000 1.0
C      1  0.4168760000000  0.5447050000000  0.4714720000000 1.0
C      1  0.4008090000000  0.5456150000000  0.5175460000000 1.0
C      1  0.5517460000000  0.4450900000000  0.5494130000000 1.0
C      1  0.5821470000000  0.5088990000000  0.5191910000000 1.0
C      1  0.5182450000000  0.5030730000000  0.4067020000000 1.0
C      1  0.4080440000000  0.4868680000000  0.4655170000000 1.0
C      1  0.5226930000000  0.5195920000000  0.4597900000000 1.0
C      1  0.4790990000000  0.4919410000000  0.5901240000000 1.0
C      1  0.4466520000000  0.5669930000000  0.5356950000000 1.0
C      1  0.4949890000000  0.5779640000000  0.5371450000000 1.0
C      1  0.5461140000000  0.5614280000000  0.5227410000000 1.0
C      1  0.5753040000000  0.4554270000000  0.4833680000000 1.0
C      1  0.4204620000000  0.4500970000000  0.4977100000000 1.0
C      1  0.4695200000000  0.5503010000000  0.4188170000000 1.0
C      1  0.5483500000000  0.5548070000000  0.4347050000000 1.0
C      1  0.4780200000000  0.4087720000000  0.5138220000000 1.0
C      1  0.4717880000000  0.4604190000000  0.4210810000000 1.0
END
