TITL C-950526-5686-152 1.54738808261128e-06 125000 -438.364225966904 0 0 72 (C1) n - 1
REM
REM in /home/bkarasulu/work/CARBON/AIRSS/Generating-Clusters/EDIP-Nigel-Params/with-SteepDescent/Only-C1/SD-CG/HFTN-CG
REM
REM
REM
REM
REM
REM ./C.cell (11c1c37f851c82e70ff6c80c92926a4b)
REM
REM compiler GCC version 9.2.1 20190827 (Red Hat 9.2.1-1)
REM options -cpp -mtune=generic -march=x86-64 -g -O0 -fpre-include=/usr/include/finclude/math-vector-fortran.h
REM seed -223349189 -26818624 651449083 900686459 45419552 627682624 1699480850 499858248 775234101 -432650720 -1714803468 1353490981 1033991458 802118740 641510905 -1809957675 -20744845 507789701 -1538542255 2074875029 -278529538 1081273824 124937589 -28007618 -1385777360 -812840338 -1089849271 404833689 -586785778 -945232563 -2033812868 99239494 1692081216
REM
CELL 1.54180   50.00000   50.00000   50.00000   90.00000   90.00000   90.00000
LATT -1
SFAC C  
C      1  0.5241660000000  0.5215670000000  0.4843560000000 1.0
C      1  0.4312860000000  0.4907810000000  0.4737140000000 1.0
C      1  0.4623450000000  0.4716560000000  0.5409140000000 1.0
C      1  0.5118350000000  0.4779220000000  0.4343820000000 1.0
C      1  0.5140540000000  0.5122930000000  0.5556780000000 1.0
C      1  0.4905980000000  0.5403310000000  0.5140330000000 1.0
C      1  0.5037130000000  0.4708600000000  0.5827550000000 1.0
C      1  0.5309590000000  0.5068610000000  0.4584240000000 1.0
C      1  0.5265490000000  0.4498210000000  0.4746990000000 1.0
C      1  0.5434080000000  0.4729310000000  0.5542230000000 1.0
C      1  0.5479330000000  0.4423140000000  0.4562300000000 1.0
C      1  0.4951700000000  0.5156740000000  0.5767180000000 1.0
C      1  0.4630290000000  0.4350360000000  0.4837260000000 1.0
C      1  0.4972670000000  0.5834950000000  0.5352880000000 1.0
C      1  0.5057250000000  0.4648610000000  0.4601980000000 1.0
C      1  0.4497260000000  0.4989820000000  0.5360950000000 1.0
C      1  0.5017700000000  0.5709820000000  0.4692040000000 1.0
C      1  0.4515740000000  0.5715700000000  0.4835960000000 1.0
C      1  0.5267280000000  0.4991300000000  0.5061040000000 1.0
C      1  0.5400520000000  0.4733040000000  0.4936990000000 1.0
C      1  0.5750530000000  0.4977010000000  0.5125050000000 1.0
C      1  0.5225710000000  0.5761560000000  0.5285350000000 1.0
C      1  0.5009310000000  0.4944650000000  0.5239090000000 1.0
C      1  0.4221950000000  0.5276820000000  0.5122790000000 1.0
C      1  0.4747680000000  0.5065190000000  0.4523600000000 1.0
C      1  0.4467460000000  0.4504700000000  0.5496120000000 1.0
C      1  0.5752360000000  0.5060370000000  0.4837960000000 1.0
C      1  0.4955230000000  0.5032210000000  0.4322760000000 1.0
C      1  0.5765880000000  0.4705730000000  0.5174950000000 1.0
C      1  0.4926280000000  0.4932010000000  0.5927860000000 1.0
C      1  0.4386130000000  0.5228520000000  0.4869060000000 1.0
C      1  0.5478330000000  0.5467610000000  0.4660930000000 1.0
C      1  0.5379080000000  0.4416190000000  0.5167220000000 1.0
C      1  0.5187760000000  0.4585440000000  0.5626720000000 1.0
C      1  0.5054520000000  0.4458600000000  0.5384840000000 1.0
C      1  0.5411270000000  0.5029520000000  0.5511570000000 1.0
C      1  0.4909680000000  0.5501700000000  0.4391800000000 1.0
C      1  0.4798830000000  0.5799240000000  0.4889110000000 1.0
C      1  0.5584240000000  0.4671830000000  0.4480540000000 1.0
C      1  0.4369780000000  0.5438970000000  0.5332040000000 1.0
C      1  0.4505170000000  0.5674490000000  0.5215530000000 1.0
C      1  0.4320990000000  0.4405240000000  0.5295520000000 1.0
C      1  0.4225320000000  0.4988940000000  0.5214670000000 1.0
C      1  0.5070180000000  0.4078870000000  0.5055260000000 1.0
C      1  0.5497850000000  0.5105930000000  0.5229190000000 1.0
C      1  0.5563190000000  0.4581930000000  0.5319560000000 1.0
C      1  0.5192240000000  0.4212980000000  0.5262640000000 1.0
C      1  0.5493500000000  0.5056620000000  0.4214220000000 1.0
C      1  0.4750480000000  0.4615870000000  0.4917910000000 1.0
C      1  0.5420930000000  0.4786250000000  0.4262270000000 1.0
C      1  0.5295640000000  0.5656680000000  0.4803620000000 1.0
C      1  0.5358860000000  0.5270210000000  0.4350840000000 1.0
C      1  0.4501930000000  0.5243580000000  0.5530820000000 1.0
C      1  0.4890740000000  0.4470770000000  0.4464160000000 1.0
C      1  0.4802360000000  0.5679330000000  0.5172480000000 1.0
C      1  0.4846020000000  0.4265050000000  0.4666020000000 1.0
C      1  0.4395960000000  0.4554480000000  0.5064570000000 1.0
C      1  0.4978430000000  0.5364570000000  0.4855340000000 1.0
C      1  0.4218410000000  0.4784940000000  0.4990600000000 1.0
C      1  0.5662090000000  0.5348620000000  0.4863560000000 1.0
C      1  0.5075530000000  0.5298340000000  0.4258990000000 1.0
C      1  0.5308610000000  0.5581040000000  0.5086830000000 1.0
C      1  0.4765410000000  0.5352910000000  0.4609040000000 1.0
C      1  0.4781140000000  0.5142940000000  0.5205260000000 1.0
C      1  0.5538390000000  0.4883910000000  0.4695480000000 1.0
C      1  0.4865120000000  0.4667420000000  0.5231760000000 1.0
C      1  0.4632410000000  0.4876940000000  0.4744490000000 1.0
C      1  0.4491160000000  0.5461610000000  0.4697650000000 1.0
C      1  0.4720550000000  0.5295730000000  0.5697620000000 1.0
C      1  0.4646750000000  0.5093270000000  0.4954780000000 1.0
C      1  0.5530850000000  0.5393520000000  0.5130330000000 1.0
C      1  0.5092910000000  0.4245440000000  0.4829260000000 1.0
END
