TITL C-951339-9237-31 1.40814587598605e-06 125000 -541.684281799026 0 0 88 (C1) n - 1
REM
REM in /home/bkarasulu/work/CARBON/AIRSS/Generating-Clusters/EDIP-Nigel-Params/with-SteepDescent/Only-C1/SD-CG/HFTN-CG
REM
REM
REM
REM
REM
REM ./C.cell (11c1c37f851c82e70ff6c80c92926a4b)
REM
REM compiler GCC version 9.2.1 20190827 (Red Hat 9.2.1-1)
REM options -cpp -mtune=generic -march=x86-64 -g -O0 -fpre-include=/usr/include/finclude/math-vector-fortran.h
REM seed 1028742948 -670839667 -288699911 -541544864 -661565402 431414390 1748258490 -1823752420 -208740537 1161466516 -1932175522 1079101258 1793870962 -1581877957 -303413498 1679837223 992572092 2093030987 -412835541 -1419737621 -517080838 -1788611079 -1324140018 -648413784 1321868790 692501833 -596185943 1676690567 -120088809 1922070786 -1416078424 325015759 -911178091
REM
CELL 1.54180   50.00000   50.00000   50.00000   90.00000   90.00000   90.00000
LATT -1
SFAC C  
C      1  0.4837180000000  0.4569980000000  0.5507640000000 1.0
C      1  0.5089740000000  0.4447560000000  0.4551700000000 1.0
C      1  0.5078620000000  0.5066510000000  0.5250250000000 1.0
C      1  0.5429330000000  0.5273530000000  0.5575800000000 1.0
C      1  0.4167580000000  0.4571600000000  0.5006950000000 1.0
C      1  0.4148870000000  0.4823370000000  0.5189810000000 1.0
C      1  0.5556840000000  0.5194100000000  0.4953300000000 1.0
C      1  0.5612180000000  0.5486320000000  0.4930550000000 1.0
C      1  0.4239390000000  0.4609190000000  0.4718610000000 1.0
C      1  0.5097930000000  0.4415870000000  0.5552210000000 1.0
C      1  0.4733730000000  0.4812280000000  0.5052130000000 1.0
C      1  0.5160650000000  0.4599960000000  0.5113940000000 1.0
C      1  0.4786560000000  0.5257610000000  0.5187350000000 1.0
C      1  0.4696700000000  0.5619620000000  0.4613820000000 1.0
C      1  0.5121120000000  0.4330950000000  0.5248760000000 1.0
C      1  0.4865580000000  0.5698820000000  0.5432310000000 1.0
C      1  0.4261140000000  0.4641150000000  0.5383230000000 1.0
C      1  0.5306050000000  0.5176080000000  0.4358930000000 1.0
C      1  0.4633690000000  0.5731180000000  0.5240310000000 1.0
C      1  0.5744810000000  0.5636140000000  0.4738370000000 1.0
C      1  0.5353870000000  0.5696170000000  0.5421620000000 1.0
C      1  0.5512320000000  0.4894820000000  0.5322850000000 1.0
C      1  0.4902780000000  0.5506190000000  0.5043920000000 1.0
C      1  0.4986200000000  0.5943930000000  0.4858840000000 1.0
C      1  0.4778880000000  0.4615730000000  0.4848490000000 1.0
C      1  0.4469890000000  0.4779060000000  0.5792660000000 1.0
C      1  0.5381610000000  0.4464400000000  0.4470170000000 1.0
C      1  0.4184750000000  0.5263050000000  0.4938140000000 1.0
C      1  0.4916950000000  0.4951480000000  0.5751690000000 1.0
C      1  0.5511050000000  0.4402270000000  0.4740010000000 1.0
C      1  0.4949510000000  0.4782600000000  0.5251810000000 1.0
C      1  0.5064100000000  0.5202790000000  0.4215230000000 1.0
C      1  0.4518090000000  0.5227870000000  0.5611250000000 1.0
C      1  0.4651520000000  0.4659950000000  0.4574290000000 1.0
C      1  0.5181210000000  0.4018280000000  0.4742000000000 1.0
C      1  0.5511260000000  0.4969770000000  0.4328920000000 1.0
C      1  0.4709310000000  0.4176640000000  0.4702890000000 1.0
C      1  0.5340250000000  0.4199890000000  0.4883970000000 1.0
C      1  0.4487190000000  0.5278880000000  0.5317040000000 1.0
C      1  0.4884960000000  0.5011080000000  0.4132340000000 1.0
C      1  0.5193560000000  0.4869290000000  0.5692400000000 1.0
C      1  0.5889050000000  0.4720820000000  0.4952750000000 1.0
C      1  0.4940880000000  0.5622720000000  0.4468250000000 1.0
C      1  0.4741000000000  0.5181970000000  0.4676560000000 1.0
C      1  0.4264090000000  0.5160840000000  0.4660920000000 1.0
C      1  0.5242420000000  0.5490480000000  0.5586700000000 1.0
C      1  0.5613130000000  0.4634840000000  0.4911580000000 1.0
C      1  0.5300820000000  0.5029420000000  0.5472320000000 1.0
C      1  0.5229510000000  0.5126550000000  0.4947870000000 1.0
C      1  0.4740220000000  0.4717100000000  0.5755930000000 1.0
C      1  0.4500120000000  0.5303360000000  0.4551300000000 1.0
C      1  0.4685190000000  0.5087400000000  0.4965840000000 1.0
C      1  0.4444650000000  0.4431040000000  0.4589940000000 1.0
C      1  0.5344240000000  0.4161700000000  0.5163880000000 1.0
C      1  0.4284900000000  0.5085240000000  0.5150960000000 1.0
C      1  0.4372020000000  0.5021310000000  0.5728110000000 1.0
C      1  0.4958180000000  0.5444000000000  0.5552540000000 1.0
C      1  0.5259640000000  0.4596400000000  0.5687760000000 1.0
C      1  0.5666790000000  0.5349590000000  0.5415690000000 1.0
C      1  0.4250580000000  0.5531600000000  0.5009290000000 1.0
C      1  0.5179480000000  0.5850930000000  0.4665060000000 1.0
C      1  0.5442240000000  0.4684240000000  0.5140270000000 1.0
C      1  0.4873330000000  0.4577310000000  0.4386200000000 1.0
C      1  0.5688220000000  0.5103330000000  0.5214780000000 1.0
C      1  0.4401740000000  0.5553090000000  0.5247490000000 1.0
C      1  0.5091750000000  0.6005790000000  0.5111820000000 1.0
C      1  0.5663960000000  0.5451640000000  0.4550700000000 1.0
C      1  0.5624020000000  0.5627660000000  0.5349960000000 1.0
C      1  0.5451410000000  0.4697950000000  0.4330300000000 1.0
C      1  0.4805310000000  0.5218120000000  0.5663220000000 1.0
C      1  0.5183040000000  0.5558610000000  0.4623720000000 1.0
C      1  0.5109200000000  0.5838140000000  0.5336230000000 1.0
C      1  0.4659610000000  0.4353140000000  0.5388940000000 1.0
C      1  0.5932860000000  0.4956950000000  0.5112420000000 1.0
C      1  0.4404810000000  0.4422430000000  0.5278000000000 1.0
C      1  0.4933300000000  0.4995030000000  0.4519570000000 1.0
C      1  0.5144500000000  0.4913940000000  0.4729320000000 1.0
C      1  0.5123600000000  0.5402960000000  0.4875950000000 1.0
C      1  0.4990440000000  0.4172100000000  0.4607980000000 1.0
C      1  0.5077830000000  0.4627300000000  0.4811510000000 1.0
C      1  0.5395910000000  0.5432590000000  0.4455550000000 1.0
C      1  0.5749880000000  0.5031930000000  0.4774480000000 1.0
C      1  0.4941980000000  0.4751260000000  0.4185010000000 1.0
C      1  0.4835110000000  0.4227400000000  0.5185210000000 1.0
C      1  0.4689980000000  0.4339910000000  0.4946100000000 1.0
C      1  0.5729220000000  0.5020700000000  0.4491060000000 1.0
C      1  0.4328920000000  0.4873490000000  0.4643070000000 1.0
C      1  0.4764010000000  0.5739700000000  0.4881420000000 1.0
END
