TITL C-951346-9544-484 9.30885281536209e-07 125000 -482.049119493275 0 0 80 (C1) n - 1
REM
REM in /home/bkarasulu/work/CARBON/AIRSS/Generating-Clusters/EDIP-Nigel-Params/with-SteepDescent/Only-C1/SD-CG/HFTN-CG
REM
REM
REM
REM
REM
REM ./C.cell (11c1c37f851c82e70ff6c80c92926a4b)
REM
REM compiler GCC version 9.2.1 20190827 (Red Hat 9.2.1-1)
REM options -cpp -mtune=generic -march=x86-64 -g -O0 -fpre-include=/usr/include/finclude/math-vector-fortran.h
REM seed -990003589 824244819 -1192674752 -851599256 -584728517 1947873366 288466792 -1206699602 -1832036340 -665508157 -1423089805 -1226239461 -1125000481 -807692465 -1905868176 -561463067 1060082489 311331459 78317671 719405649 1213661427 1039823753 1364632167 1332189660 -1529496037 309569248 -912904285 504789738 -1267309131 -163194738 -2071729912 1457531036 1636061519
REM
CELL 1.54180   50.00000   50.00000   50.00000   90.00000   90.00000   90.00000
LATT -1
SFAC C  
C      1  0.5261900000000  0.5301620000000  0.4581030000000 1.0
C      1  0.4368820000000  0.5157340000000  0.5507880000000 1.0
C      1  0.4257810000000  0.5341920000000  0.4777410000000 1.0
C      1  0.4891840000000  0.4957610000000  0.4806370000000 1.0
C      1  0.4488420000000  0.4339470000000  0.5068560000000 1.0
C      1  0.5253770000000  0.4317200000000  0.4764410000000 1.0
C      1  0.5115660000000  0.4827930000000  0.4658480000000 1.0
C      1  0.5171690000000  0.4595560000000  0.4829480000000 1.0
C      1  0.4813380000000  0.4659280000000  0.5220230000000 1.0
C      1  0.4776740000000  0.5760140000000  0.5255310000000 1.0
C      1  0.4771570000000  0.5405880000000  0.5588970000000 1.0
C      1  0.5696270000000  0.4828580000000  0.4569240000000 1.0
C      1  0.5329100000000  0.5454920000000  0.5656860000000 1.0
C      1  0.4793300000000  0.4335880000000  0.4657880000000 1.0
C      1  0.5343740000000  0.5843630000000  0.5375160000000 1.0
C      1  0.5734000000000  0.5107470000000  0.4547150000000 1.0
C      1  0.4227600000000  0.5108690000000  0.4929500000000 1.0
C      1  0.4450380000000  0.5040110000000  0.5090460000000 1.0
C      1  0.4921670000000  0.5609190000000  0.5452670000000 1.0
C      1  0.5382510000000  0.5247970000000  0.5270010000000 1.0
C      1  0.4749200000000  0.5196650000000  0.4296910000000 1.0
C      1  0.5167760000000  0.5345120000000  0.4296800000000 1.0
C      1  0.4909780000000  0.5835980000000  0.5018020000000 1.0
C      1  0.5180390000000  0.5226110000000  0.5740920000000 1.0
C      1  0.4301560000000  0.5321140000000  0.4498330000000 1.0
C      1  0.5341000000000  0.4470640000000  0.5511690000000 1.0
C      1  0.5534330000000  0.5654200000000  0.5278620000000 1.0
C      1  0.5727930000000  0.4960650000000  0.5475170000000 1.0
C      1  0.5043900000000  0.5769230000000  0.4768110000000 1.0
C      1  0.4407880000000  0.4639030000000  0.4711590000000 1.0
C      1  0.5358260000000  0.5726070000000  0.4774630000000 1.0
C      1  0.5443190000000  0.4444270000000  0.5211870000000 1.0
C      1  0.4905720000000  0.5473730000000  0.4299670000000 1.0
C      1  0.5529780000000  0.4880920000000  0.5642950000000 1.0
C      1  0.5020940000000  0.4728930000000  0.4386590000000 1.0
C      1  0.4356640000000  0.4912070000000  0.4301230000000 1.0
C      1  0.5093410000000  0.4837070000000  0.5341630000000 1.0
C      1  0.5288810000000  0.4750480000000  0.5582050000000 1.0
C      1  0.4525710000000  0.5601020000000  0.5249100000000 1.0
C      1  0.4499780000000  0.5470630000000  0.4883430000000 1.0
C      1  0.4777490000000  0.4903910000000  0.5645660000000 1.0
C      1  0.4942100000000  0.5182280000000  0.4995370000000 1.0
C      1  0.4573240000000  0.4771280000000  0.5027430000000 1.0
C      1  0.4641650000000  0.5270270000000  0.5085240000000 1.0
C      1  0.5666580000000  0.4780120000000  0.4845310000000 1.0
C      1  0.5712550000000  0.5024930000000  0.4984440000000 1.0
C      1  0.5078140000000  0.4341610000000  0.5505930000000 1.0
C      1  0.5548650000000  0.4322270000000  0.4755600000000 1.0
C      1  0.4435980000000  0.5185190000000  0.4289320000000 1.0
C      1  0.5165590000000  0.4154270000000  0.5022840000000 1.0
C      1  0.5181930000000  0.5679020000000  0.5542340000000 1.0
C      1  0.5364700000000  0.5016700000000  0.4625890000000 1.0
C      1  0.5626990000000  0.4509770000000  0.4956220000000 1.0
C      1  0.4916870000000  0.4436640000000  0.4400790000000 1.0
C      1  0.4667950000000  0.5038460000000  0.4639240000000 1.0
C      1  0.4517230000000  0.4916520000000  0.5512040000000 1.0
C      1  0.5404330000000  0.4152750000000  0.5172900000000 1.0
C      1  0.5599320000000  0.5050220000000  0.5241460000000 1.0
C      1  0.5479910000000  0.5497440000000  0.4623750000000 1.0
C      1  0.4511150000000  0.4816230000000  0.4517850000000 1.0
C      1  0.4972480000000  0.4251490000000  0.5235290000000 1.0
C      1  0.4936990000000  0.4955520000000  0.4192380000000 1.0
C      1  0.5162340000000  0.5116740000000  0.4131690000000 1.0
C      1  0.5100580000000  0.5393400000000  0.4835370000000 1.0
C      1  0.5131250000000  0.4245760000000  0.4498220000000 1.0
C      1  0.4506600000000  0.5403430000000  0.5480690000000 1.0
C      1  0.5675960000000  0.5313150000000  0.4743380000000 1.0
C      1  0.4679500000000  0.4501190000000  0.5454170000000 1.0
C      1  0.5185300000000  0.4614680000000  0.5120280000000 1.0
C      1  0.4873730000000  0.4617300000000  0.5657470000000 1.0
C      1  0.4908190000000  0.5167770000000  0.5690870000000 1.0
C      1  0.5576900000000  0.5473200000000  0.5510930000000 1.0
C      1  0.4413060000000  0.4642650000000  0.5459030000000 1.0
C      1  0.4691400000000  0.5420320000000  0.4678990000000 1.0
C      1  0.5412520000000  0.5476360000000  0.5054870000000 1.0
C      1  0.5119490000000  0.5107430000000  0.5225290000000 1.0
C      1  0.4546390000000  0.4403410000000  0.4788270000000 1.0
C      1  0.4851220000000  0.5624300000000  0.4557760000000 1.0
C      1  0.4688990000000  0.4189870000000  0.5220880000000 1.0
C      1  0.4318660000000  0.4547830000000  0.5198150000000 1.0
END
