TITL C-951347-9520-83 -2.34269886253334e-06 125000 -888.726820726361 0 0 143 (C1) n - 1
REM
REM in /home/bkarasulu/work/CARBON/AIRSS/Generating-Clusters/EDIP-Nigel-Params/with-SteepDescent/Only-C1/SD-CG/HFTN-CG
REM
REM
REM
REM
REM
REM ./C.cell (11c1c37f851c82e70ff6c80c92926a4b)
REM
REM compiler GCC version 9.2.1 20190827 (Red Hat 9.2.1-1)
REM options -cpp -mtune=generic -march=x86-64 -g -O0 -fpre-include=/usr/include/finclude/math-vector-fortran.h
REM seed 1578359643 223928000 626321722 1057873356 -877217049 -1860540256 -1334212388 1365316576 57754258 805828527 1281263488 -205131049 -1699664721 -569109716 1108666619 1000013163 2008033131 -721647123 -2072915806 550222015 1048498623 -1109469811 -691154393 1432351161 1190343888 -619070675 -1983288506 1745219553 -938013204 -1017322562 -18762578 -1520194573 -29729502
REM
CELL 1.54180   50.00000   50.00000   50.00000   90.00000   90.00000   90.00000
LATT -1
SFAC C  
C      1  0.4689640000000  0.5990400000000  0.4632170000000 1.0
C      1  0.5461930000000  0.4501720000000  0.4291030000000 1.0
C      1  0.4347450000000  0.4565020000000  0.5543460000000 1.0
C      1  0.5240560000000  0.4552370000000  0.5396520000000 1.0
C      1  0.5362830000000  0.5951520000000  0.4998840000000 1.0
C      1  0.4884900000000  0.4829700000000  0.5194480000000 1.0
C      1  0.4924900000000  0.4742710000000  0.4712050000000 1.0
C      1  0.4762250000000  0.4252260000000  0.5618380000000 1.0
C      1  0.4856010000000  0.5384610000000  0.5045030000000 1.0
C      1  0.5309740000000  0.4890060000000  0.5824540000000 1.0
C      1  0.5041930000000  0.5192290000000  0.4950120000000 1.0
C      1  0.5544610000000  0.4307000000000  0.4486250000000 1.0
C      1  0.4640130000000  0.4513850000000  0.5491490000000 1.0
C      1  0.5477900000000  0.4991090000000  0.4179400000000 1.0
C      1  0.5094350000000  0.5951410000000  0.5079180000000 1.0
C      1  0.5667570000000  0.4486310000000  0.5340810000000 1.0
C      1  0.5043300000000  0.5442360000000  0.5882680000000 1.0
C      1  0.5288010000000  0.5609970000000  0.5257810000000 1.0
C      1  0.5025990000000  0.5401700000000  0.4292850000000 1.0
C      1  0.4946200000000  0.5896470000000  0.4566940000000 1.0
C      1  0.4501540000000  0.5620090000000  0.4786370000000 1.0
C      1  0.4786070000000  0.4963630000000  0.5433050000000 1.0
C      1  0.4360420000000  0.5923380000000  0.4981040000000 1.0
C      1  0.4480410000000  0.4999180000000  0.4222180000000 1.0
C      1  0.5762940000000  0.5628900000000  0.4533860000000 1.0
C      1  0.4883240000000  0.5826240000000  0.5603530000000 1.0
C      1  0.5343660000000  0.4211110000000  0.4671660000000 1.0
C      1  0.5358460000000  0.5764850000000  0.5662210000000 1.0
C      1  0.5045630000000  0.4220340000000  0.4608840000000 1.0
C      1  0.5547310000000  0.5475570000000  0.4376590000000 1.0
C      1  0.4329000000000  0.5427230000000  0.4278730000000 1.0
C      1  0.4489680000000  0.4042670000000  0.5089760000000 1.0
C      1  0.5264470000000  0.5587120000000  0.4334210000000 1.0
C      1  0.5669200000000  0.4466450000000  0.4806750000000 1.0
C      1  0.5603830000000  0.4737370000000  0.4221600000000 1.0
C      1  0.5841810000000  0.5188720000000  0.4682790000000 1.0
C      1  0.4824960000000  0.5884680000000  0.5117510000000 1.0
C      1  0.5892470000000  0.5468610000000  0.4761900000000 1.0
C      1  0.3871540000000  0.5240390000000  0.4744600000000 1.0
C      1  0.5208350000000  0.5822940000000  0.4510020000000 1.0
C      1  0.5426280000000  0.4831090000000  0.4585600000000 1.0
C      1  0.5788130000000  0.5125520000000  0.5241360000000 1.0
C      1  0.4698380000000  0.5237620000000  0.5497450000000 1.0
C      1  0.5053270000000  0.4581550000000  0.5644600000000 1.0
C      1  0.5387900000000  0.5492340000000  0.4789220000000 1.0
C      1  0.4822620000000  0.5535810000000  0.4774980000000 1.0
C      1  0.5736680000000  0.5501010000000  0.5541680000000 1.0
C      1  0.5424490000000  0.4062830000000  0.4907260000000 1.0
C      1  0.4284670000000  0.5397460000000  0.4785770000000 1.0
C      1  0.4288690000000  0.5269280000000  0.4513590000000 1.0
C      1  0.5960410000000  0.4546870000000  0.5315320000000 1.0
C      1  0.4881110000000  0.4726850000000  0.4134120000000 1.0
C      1  0.4044620000000  0.5092350000000  0.4538070000000 1.0
C      1  0.4128610000000  0.4535000000000  0.4724850000000 1.0
C      1  0.4780340000000  0.5417990000000  0.4472260000000 1.0
C      1  0.5556850000000  0.5889110000000  0.5220640000000 1.0
C      1  0.4703560000000  0.5120110000000  0.4506080000000 1.0
C      1  0.4006400000000  0.5583010000000  0.5082190000000 1.0
C      1  0.5550420000000  0.4575810000000  0.5062180000000 1.0
C      1  0.5692180000000  0.4098430000000  0.5051280000000 1.0
C      1  0.5254400000000  0.4398540000000  0.5935690000000 1.0
C      1  0.4742760000000  0.4469600000000  0.4245520000000 1.0
C      1  0.5485310000000  0.5038040000000  0.5621530000000 1.0
C      1  0.5790930000000  0.5558590000000  0.5045940000000 1.0
C      1  0.4380720000000  0.4114410000000  0.4645160000000 1.0
C      1  0.4268460000000  0.4976420000000  0.5301160000000 1.0
C      1  0.4595050000000  0.4060390000000  0.4815940000000 1.0
C      1  0.4918240000000  0.3944550000000  0.5442550000000 1.0
C      1  0.4363760000000  0.5427580000000  0.5534370000000 1.0
C      1  0.4527660000000  0.4527850000000  0.4455440000000 1.0
C      1  0.4290790000000  0.4355550000000  0.4539610000000 1.0
C      1  0.4271380000000  0.5151680000000  0.5539550000000 1.0
C      1  0.4898910000000  0.5187170000000  0.5874950000000 1.0
C      1  0.5895530000000  0.4292520000000  0.4909150000000 1.0
C      1  0.4232280000000  0.5111570000000  0.5040430000000 1.0
C      1  0.4682900000000  0.4544350000000  0.4720310000000 1.0
C      1  0.4505730000000  0.4637530000000  0.4968190000000 1.0
C      1  0.4632810000000  0.6011780000000  0.4934050000000 1.0
C      1  0.5404640000000  0.5797010000000  0.4734480000000 1.0
C      1  0.5185250000000  0.3960140000000  0.5332410000000 1.0
C      1  0.4809060000000  0.4273990000000  0.4802310000000 1.0
C      1  0.4890410000000  0.4344750000000  0.5081730000000 1.0
C      1  0.5608360000000  0.5778710000000  0.5501790000000 1.0
C      1  0.4199520000000  0.4829080000000  0.4621370000000 1.0
C      1  0.5914830000000  0.4918980000000  0.4732380000000 1.0
C      1  0.4866150000000  0.5436820000000  0.5339400000000 1.0
C      1  0.5130860000000  0.4720100000000  0.3982230000000 1.0
C      1  0.4277370000000  0.4224470000000  0.5105360000000 1.0
C      1  0.4381250000000  0.4917340000000  0.4856170000000 1.0
C      1  0.5883290000000  0.5397220000000  0.5289270000000 1.0
C      1  0.5214100000000  0.5075080000000  0.4523310000000 1.0
C      1  0.5953270000000  0.4826090000000  0.5397800000000 1.0
C      1  0.5180080000000  0.4351720000000  0.5127650000000 1.0
C      1  0.4214280000000  0.4682180000000  0.5304750000000 1.0
C      1  0.3881940000000  0.5358530000000  0.5210000000000 1.0
C      1  0.5723960000000  0.4722500000000  0.4645820000000 1.0
C      1  0.5492940000000  0.5453550000000  0.5062450000000 1.0
C      1  0.5327270000000  0.4742330000000  0.5003540000000 1.0
C      1  0.4555230000000  0.5582240000000  0.4345400000000 1.0
C      1  0.4387750000000  0.4782520000000  0.4393570000000 1.0
C      1  0.4726720000000  0.4569490000000  0.5191430000000 1.0
C      1  0.5651550000000  0.4597560000000  0.5699200000000 1.0
C      1  0.5003450000000  0.4355710000000  0.4349280000000 1.0
C      1  0.5196490000000  0.3971410000000  0.5052080000000 1.0
C      1  0.4379290000000  0.5027770000000  0.5779150000000 1.0
C      1  0.5641320000000  0.5221560000000  0.4257070000000 1.0
C      1  0.5548850000000  0.5319440000000  0.5715440000000 1.0
C      1  0.4235870000000  0.4500040000000  0.5032460000000 1.0
C      1  0.4001440000000  0.5521130000000  0.4792970000000 1.0
C      1  0.4995400000000  0.5168430000000  0.4096160000000 1.0
C      1  0.5225310000000  0.4987430000000  0.4028740000000 1.0
C      1  0.4616230000000  0.5071790000000  0.4789480000000 1.0
C      1  0.5666800000000  0.5874930000000  0.4631470000000 1.0
C      1  0.5003030000000  0.4323290000000  0.5800240000000 1.0
C      1  0.5284130000000  0.5474910000000  0.5701710000000 1.0
C      1  0.5355480000000  0.4179220000000  0.5425440000000 1.0
C      1  0.4361060000000  0.4746310000000  0.5760360000000 1.0
C      1  0.4680190000000  0.4030350000000  0.5310470000000 1.0
C      1  0.5201170000000  0.4574240000000  0.4393790000000 1.0
C      1  0.4861990000000  0.4958490000000  0.4919510000000 1.0
C      1  0.4433170000000  0.5663410000000  0.5385100000000 1.0
C      1  0.4954620000000  0.4923130000000  0.4464200000000 1.0
C      1  0.5184410000000  0.4602280000000  0.4782630000000 1.0
C      1  0.4783030000000  0.4758930000000  0.5644220000000 1.0
C      1  0.5031010000000  0.4930140000000  0.5887750000000 1.0
C      1  0.6068120000000  0.4432600000000  0.5083880000000 1.0
C      1  0.5728650000000  0.4851900000000  0.5586000000000 1.0
C      1  0.5868330000000  0.5129100000000  0.4405570000000 1.0
C      1  0.5320330000000  0.5087350000000  0.5358220000000 1.0
C      1  0.3934520000000  0.5148490000000  0.5022830000000 1.0
C      1  0.5186270000000  0.4812600000000  0.5247540000000 1.0
C      1  0.4475470000000  0.5796040000000  0.4534850000000 1.0
C      1  0.5516200000000  0.5164250000000  0.5149070000000 1.0
C      1  0.4738610000000  0.4985790000000  0.4085750000000 1.0
C      1  0.5169860000000  0.5387590000000  0.5425180000000 1.0
C      1  0.4607790000000  0.5192990000000  0.5873360000000 1.0
C      1  0.5146040000000  0.5323960000000  0.4707820000000 1.0
C      1  0.5640080000000  0.4184720000000  0.5338730000000 1.0
C      1  0.4738150000000  0.5720920000000  0.5365050000000 1.0
C      1  0.5425540000000  0.4626470000000  0.5875370000000 1.0
C      1  0.4272990000000  0.5708060000000  0.5147800000000 1.0
C      1  0.5150600000000  0.5874710000000  0.5506380000000 1.0
C      1  0.4880160000000  0.5665270000000  0.5833830000000 1.0
END
