TITL C-950524-1808-617 -8.17904278201249e-07 125000 -367.91054780435 0 0 61 (C1) n - 1
REM
REM in /home/bkarasulu/work/CARBON/AIRSS/Generating-Clusters/EDIP-Nigel-Params/with-SteepDescent/Only-C1/SD-CG/HFTN-CG
REM
REM
REM
REM
REM
REM ./C.cell (11c1c37f851c82e70ff6c80c92926a4b)
REM
REM compiler GCC version 9.2.1 20190827 (Red Hat 9.2.1-1)
REM options -cpp -mtune=generic -march=x86-64 -g -O0 -fpre-include=/usr/include/finclude/math-vector-fortran.h
REM seed -839815263 1894764811 -1069508779 183792401 1760209722 1804294790 -532883993 964728695 -922777184 -1628776377 623900048 -1171693712 -1183947312 -1005361475 -2093412442 -1615569345 1629626629 -66461679 1226793576 640015296 130512149 -1627804223 -113124678 81458394 -1062834554 -1298554734 -699684503 1708597143 1090135375 -1328511345 771006904 1447411669 -402014263
REM
CELL 1.54180   50.00000   50.00000   50.00000   90.00000   90.00000   90.00000
LATT -1
SFAC C  
C      1  0.4805630000000  0.4829870000000  0.5484470000000 1.0
C      1  0.5290850000000  0.4354880000000  0.5493640000000 1.0
C      1  0.5022890000000  0.4534190000000  0.4583670000000 1.0
C      1  0.4441690000000  0.4605050000000  0.4938890000000 1.0
C      1  0.4874540000000  0.5075540000000  0.4748030000000 1.0
C      1  0.5426140000000  0.4786110000000  0.4659100000000 1.0
C      1  0.5434350000000  0.5590750000000  0.4939700000000 1.0
C      1  0.5588730000000  0.5227450000000  0.5247310000000 1.0
C      1  0.5516510000000  0.4993480000000  0.4837710000000 1.0
C      1  0.4738030000000  0.4362880000000  0.5328780000000 1.0
C      1  0.4614170000000  0.4701860000000  0.4537010000000 1.0
C      1  0.4416440000000  0.4928730000000  0.4585310000000 1.0
C      1  0.4666950000000  0.4480120000000  0.5079250000000 1.0
C      1  0.5084000000000  0.5362520000000  0.5629590000000 1.0
C      1  0.4334990000000  0.5309960000000  0.5186280000000 1.0
C      1  0.5264430000000  0.5169830000000  0.4345620000000 1.0
C      1  0.4482830000000  0.4457390000000  0.4673090000000 1.0
C      1  0.4632310000000  0.5306560000000  0.5418750000000 1.0
C      1  0.5203080000000  0.4789100000000  0.5676860000000 1.0
C      1  0.5333110000000  0.5281170000000  0.5724230000000 1.0
C      1  0.5524770000000  0.4302720000000  0.5079380000000 1.0
C      1  0.4497650000000  0.5183190000000  0.4450810000000 1.0
C      1  0.4822660000000  0.5391150000000  0.5224430000000 1.0
C      1  0.5065500000000  0.5213040000000  0.5190660000000 1.0
C      1  0.5034470000000  0.5646890000000  0.4660530000000 1.0
C      1  0.5237240000000  0.5453500000000  0.4752770000000 1.0
C      1  0.5074380000000  0.4674220000000  0.4331400000000 1.0
C      1  0.5232070000000  0.4606650000000  0.4790540000000 1.0
C      1  0.4792210000000  0.4713440000000  0.4296490000000 1.0
C      1  0.4881580000000  0.5713100000000  0.4886890000000 1.0
C      1  0.4707280000000  0.5500930000000  0.4983610000000 1.0
C      1  0.4819120000000  0.4775870000000  0.4790560000000 1.0
C      1  0.4404350000000  0.4896090000000  0.4885920000000 1.0
C      1  0.4826540000000  0.4537050000000  0.5541920000000 1.0
C      1  0.4417070000000  0.5520960000000  0.5001760000000 1.0
C      1  0.5584390000000  0.4953880000000  0.5116860000000 1.0
C      1  0.4780000000000  0.4978680000000  0.5726000000000 1.0
C      1  0.5291750000000  0.5376840000000  0.5303120000000 1.0
C      1  0.4792380000000  0.5223030000000  0.4501920000000 1.0
C      1  0.5109330000000  0.4518840000000  0.5635720000000 1.0
C      1  0.4630390000000  0.4217990000000  0.4704550000000 1.0
C      1  0.5420930000000  0.5356350000000  0.4527810000000 1.0
C      1  0.4812860000000  0.5244320000000  0.5642880000000 1.0
C      1  0.4995930000000  0.5255660000000  0.4302680000000 1.0
C      1  0.5295740000000  0.5652610000000  0.5186340000000 1.0
C      1  0.4271650000000  0.5071390000000  0.5057840000000 1.0
C      1  0.5629600000000  0.5231710000000  0.4719200000000 1.0
C      1  0.5358980000000  0.4370190000000  0.4882030000000 1.0
C      1  0.4281000000000  0.5520140000000  0.4757230000000 1.0
C      1  0.5444820000000  0.4863700000000  0.5552250000000 1.0
C      1  0.4730720000000  0.4230960000000  0.4962480000000 1.0
C      1  0.5467210000000  0.4457580000000  0.5302300000000 1.0
C      1  0.5656490000000  0.5398950000000  0.4974970000000 1.0
C      1  0.5065660000000  0.4910100000000  0.5334100000000 1.0
C      1  0.5285490000000  0.4875920000000  0.4414360000000 1.0
C      1  0.5121030000000  0.5171940000000  0.4889730000000 1.0
C      1  0.5087990000000  0.4801450000000  0.5017920000000 1.0
C      1  0.5048730000000  0.5758340000000  0.5108650000000 1.0
C      1  0.5472960000000  0.4749810000000  0.5291290000000 1.0
C      1  0.5530720000000  0.5140600000000  0.5578540000000 1.0
C      1  0.4324690000000  0.5392760000000  0.4524290000000 1.0
END
