TITL C-951343-2256-224 4.19207250383108e-07 125000 -353.84107936543 0 0 58 (C1) n - 1
REM
REM in /home/bkarasulu/work/CARBON/AIRSS/Generating-Clusters/EDIP-Nigel-Params/with-SteepDescent/Only-C1/SD-CG/HFTN-CG
REM
REM
REM
REM
REM
REM ./C.cell (11c1c37f851c82e70ff6c80c92926a4b)
REM
REM compiler GCC version 9.2.1 20190827 (Red Hat 9.2.1-1)
REM options -cpp -mtune=generic -march=x86-64 -g -O0 -fpre-include=/usr/include/finclude/math-vector-fortran.h
REM seed 1906227500 -7245085 -273309557 1361495658 -246866551 2096594175 1302265412 1481489280 -74077501 1471736969 -1778924255 707477553 -240055165 -1566525519 -1023793094 471200727 565019450 -1177686143 1175715080 -469235648 -176613083 -1207238833 1222072918 2008677801 924570448 181913561 1577145104 647999169 -1096813644 1269251731 -488957593 165542445 236786377
REM
CELL 1.54180   50.00000   50.00000   50.00000   90.00000   90.00000   90.00000
LATT -1
SFAC C  
C      1  0.4679700000000  0.5314730000000  0.4837530000000 1.0
C      1  0.4922640000000  0.4667330000000  0.5631210000000 1.0
C      1  0.5317560000000  0.5023560000000  0.5456170000000 1.0
C      1  0.5062510000000  0.4511960000000  0.4713040000000 1.0
C      1  0.4723050000000  0.4415010000000  0.5257860000000 1.0
C      1  0.5145220000000  0.4952420000000  0.5000030000000 1.0
C      1  0.4421340000000  0.5160520000000  0.4821190000000 1.0
C      1  0.5760340000000  0.5011580000000  0.5225100000000 1.0
C      1  0.4546940000000  0.4793790000000  0.4504130000000 1.0
C      1  0.4739180000000  0.5446220000000  0.4561610000000 1.0
C      1  0.4785930000000  0.4481990000000  0.4825980000000 1.0
C      1  0.4465190000000  0.4518670000000  0.5351220000000 1.0
C      1  0.5499310000000  0.4805510000000  0.4429460000000 1.0
C      1  0.4151830000000  0.4755860000000  0.4800780000000 1.0
C      1  0.4777450000000  0.4868740000000  0.5467370000000 1.0
C      1  0.4656450000000  0.4516140000000  0.4544590000000 1.0
C      1  0.5906800000000  0.5417480000000  0.5040950000000 1.0
C      1  0.5388130000000  0.5163190000000  0.4996890000000 1.0
C      1  0.4964550000000  0.5311360000000  0.5630430000000 1.0
C      1  0.5504510000000  0.5172030000000  0.5276210000000 1.0
C      1  0.5178140000000  0.5466910000000  0.4624010000000 1.0
C      1  0.4280730000000  0.4948860000000  0.5500880000000 1.0
C      1  0.5236780000000  0.4924850000000  0.4476940000000 1.0
C      1  0.4734590000000  0.4275960000000  0.5011810000000 1.0
C      1  0.5714180000000  0.4740210000000  0.5168860000000 1.0
C      1  0.4678440000000  0.5352120000000  0.5227280000000 1.0
C      1  0.4765670000000  0.5175950000000  0.5466540000000 1.0
C      1  0.5128420000000  0.4855540000000  0.5295470000000 1.0
C      1  0.5572630000000  0.4617910000000  0.4960530000000 1.0
C      1  0.4956040000000  0.5631580000000  0.4557130000000 1.0
C      1  0.5032380000000  0.5295990000000  0.4212560000000 1.0
C      1  0.4856730000000  0.5602690000000  0.5266440000000 1.0
C      1  0.5549550000000  0.5464980000000  0.5340330000000 1.0
C      1  0.4159040000000  0.4743880000000  0.5080960000000 1.0
C      1  0.4991680000000  0.5582620000000  0.5532830000000 1.0
C      1  0.4775090000000  0.4959730000000  0.4428610000000 1.0
C      1  0.4937590000000  0.5174390000000  0.4928340000000 1.0
C      1  0.5212050000000  0.4771390000000  0.4760990000000 1.0
C      1  0.4222440000000  0.4991550000000  0.5229210000000 1.0
C      1  0.5594610000000  0.4812200000000  0.4713990000000 1.0
C      1  0.5621990000000  0.5097150000000  0.4810270000000 1.0
C      1  0.5200640000000  0.5165920000000  0.5664740000000 1.0
C      1  0.4222780000000  0.4499290000000  0.5207300000000 1.0
C      1  0.5312010000000  0.5632270000000  0.5331550000000 1.0
C      1  0.5215110000000  0.4566190000000  0.5288290000000 1.0
C      1  0.5862690000000  0.5147180000000  0.4981420000000 1.0
C      1  0.5345320000000  0.4471440000000  0.5051780000000 1.0
C      1  0.4965130000000  0.4469710000000  0.5424240000000 1.0
C      1  0.4782950000000  0.5242460000000  0.4345660000000 1.0
C      1  0.4497710000000  0.4767300000000  0.5493680000000 1.0
C      1  0.4353890000000  0.5218950000000  0.5096770000000 1.0
C      1  0.5779860000000  0.5571800000000  0.5222260000000 1.0
C      1  0.5165230000000  0.5386630000000  0.4910950000000 1.0
C      1  0.5001350000000  0.4802290000000  0.4327620000000 1.0
C      1  0.5218630000000  0.5243810000000  0.4424520000000 1.0
C      1  0.5117610000000  0.5610210000000  0.5112230000000 1.0
C      1  0.4388890000000  0.4886850000000  0.4730430000000 1.0
C      1  0.4952780000000  0.4523150000000  0.4420830000000 1.0
END
