TITL C-951343-2256-671 -2.79918475982526e-06 125000 -1206.3598093219 0 0 192 (C1) n - 1
REM
REM in /home/bkarasulu/work/CARBON/AIRSS/Generating-Clusters/EDIP-Nigel-Params/with-SteepDescent/Only-C1/SD-CG/HFTN-CG
REM
REM
REM
REM
REM
REM ./C.cell (11c1c37f851c82e70ff6c80c92926a4b)
REM
REM compiler GCC version 9.2.1 20190827 (Red Hat 9.2.1-1)
REM options -cpp -mtune=generic -march=x86-64 -g -O0 -fpre-include=/usr/include/finclude/math-vector-fortran.h
REM seed 1045714663 -1535448739 946071156 1769585185 -832791714 835831307 660350477 598736613 2063880055 -1553980832 -471860954 413220102 -429174428 -1056862379 -417203895 451049471 595297305 1287015046 -1780161761 703639495 -507902141 -2056529495 -672070252 -2118525980 -152561625 1469113343 2078040816 -667224825 817296335 1195383751 -1270395697 235374305 -1619415307
REM
CELL 1.54180   50.00000   50.00000   50.00000   90.00000   90.00000   90.00000
LATT -1
SFAC C  
C      1  0.4900290000000  0.6127400000000  0.4700720000000 1.0
C      1  0.4806960000000  0.4837550000000  0.5214830000000 1.0
C      1  0.5228460000000  0.5320030000000  0.5593520000000 1.0
C      1  0.4448630000000  0.4587230000000  0.4929510000000 1.0
C      1  0.4474720000000  0.4874270000000  0.4783770000000 1.0
C      1  0.5554850000000  0.4974140000000  0.5325490000000 1.0
C      1  0.5597820000000  0.4651140000000  0.5578550000000 1.0
C      1  0.4299220000000  0.4851800000000  0.4540880000000 1.0
C      1  0.5121630000000  0.5754080000000  0.5811580000000 1.0
C      1  0.5049190000000  0.4251080000000  0.4038060000000 1.0
C      1  0.5428140000000  0.4700260000000  0.5828310000000 1.0
C      1  0.4767620000000  0.5660800000000  0.5293140000000 1.0
C      1  0.5032250000000  0.4873660000000  0.5402580000000 1.0
C      1  0.3894500000000  0.5350600000000  0.5606680000000 1.0
C      1  0.4683910000000  0.5546060000000  0.5785390000000 1.0
C      1  0.5710470000000  0.4868190000000  0.4571160000000 1.0
C      1  0.5667410000000  0.4294350000000  0.4457320000000 1.0
C      1  0.5743640000000  0.5021660000000  0.5695490000000 1.0
C      1  0.4704030000000  0.5103730000000  0.5186880000000 1.0
C      1  0.4896740000000  0.4707170000000  0.4957620000000 1.0
C      1  0.5213970000000  0.6099470000000  0.4669720000000 1.0
C      1  0.5190260000000  0.4549470000000  0.4437600000000 1.0
C      1  0.5957530000000  0.5409390000000  0.5471180000000 1.0
C      1  0.5450420000000  0.3955970000000  0.4637660000000 1.0
C      1  0.4599650000000  0.4006230000000  0.5428540000000 1.0
C      1  0.4030400000000  0.4915250000000  0.5501040000000 1.0
C      1  0.4883140000000  0.5287900000000  0.5029070000000 1.0
C      1  0.4947530000000  0.4527360000000  0.3935220000000 1.0
C      1  0.4959960000000  0.4666770000000  0.5631890000000 1.0
C      1  0.5080370000000  0.5476680000000  0.4038030000000 1.0
C      1  0.4604880000000  0.4247050000000  0.5626270000000 1.0
C      1  0.5568660000000  0.4322870000000  0.4183550000000 1.0
C      1  0.5762740000000  0.5819680000000  0.4630040000000 1.0
C      1  0.4982150000000  0.6110540000000  0.5174440000000 1.0
C      1  0.5727980000000  0.5000580000000  0.5051830000000 1.0
C      1  0.4911270000000  0.4494360000000  0.4572490000000 1.0
C      1  0.5704380000000  0.5325460000000  0.5634800000000 1.0
C      1  0.4086620000000  0.4661870000000  0.5651750000000 1.0
C      1  0.5470210000000  0.5559810000000  0.4374380000000 1.0
C      1  0.5238740000000  0.6013650000000  0.4381460000000 1.0
C      1  0.4501020000000  0.5943540000000  0.5314340000000 1.0
C      1  0.4817950000000  0.5816150000000  0.5821440000000 1.0
C      1  0.5826930000000  0.5249330000000  0.4378150000000 1.0
C      1  0.5294340000000  0.4710470000000  0.4201660000000 1.0
C      1  0.4238300000000  0.4924680000000  0.5261940000000 1.0
C      1  0.6105240000000  0.5465420000000  0.4779870000000 1.0
C      1  0.4872350000000  0.5697690000000  0.4752060000000 1.0
C      1  0.4234910000000  0.4180120000000  0.5092930000000 1.0
C      1  0.4043110000000  0.4340880000000  0.5237120000000 1.0
C      1  0.5438440000000  0.5037400000000  0.4562850000000 1.0
C      1  0.4485590000000  0.4805270000000  0.5992260000000 1.0
C      1  0.5432380000000  0.5150170000000  0.4070240000000 1.0
C      1  0.3909690000000  0.4521920000000  0.5071870000000 1.0
C      1  0.5994290000000  0.5647220000000  0.5318550000000 1.0
C      1  0.5236870000000  0.5726180000000  0.4478980000000 1.0
C      1  0.4564510000000  0.5415940000000  0.4559020000000 1.0
C      1  0.4759700000000  0.5365030000000  0.6020140000000 1.0
C      1  0.4986110000000  0.4704410000000  0.6071430000000 1.0
C      1  0.3888820000000  0.5325080000000  0.5324010000000 1.0
C      1  0.5292040000000  0.4993780000000  0.4296520000000 1.0
C      1  0.6109170000000  0.4755050000000  0.5088140000000 1.0
C      1  0.5047890000000  0.5310120000000  0.6055840000000 1.0
C      1  0.4351170000000  0.5224040000000  0.5747720000000 1.0
C      1  0.5370790000000  0.5444030000000  0.4109340000000 1.0
C      1  0.5525630000000  0.4521360000000  0.4857850000000 1.0
C      1  0.5727880000000  0.5080910000000  0.4147060000000 1.0
C      1  0.4669800000000  0.4336930000000  0.5990920000000 1.0
C      1  0.5736010000000  0.4733790000000  0.4842430000000 1.0
C      1  0.4667180000000  0.4088640000000  0.4606990000000 1.0
C      1  0.4834400000000  0.5519480000000  0.4501230000000 1.0
C      1  0.4739500000000  0.5542980000000  0.4994960000000 1.0
C      1  0.6007280000000  0.4598380000000  0.4863110000000 1.0
C      1  0.4792450000000  0.6076310000000  0.4961490000000 1.0
C      1  0.5822280000000  0.5720090000000  0.5098770000000 1.0
C      1  0.4623640000000  0.4654040000000  0.5342840000000 1.0
C      1  0.4226080000000  0.5126880000000  0.4438120000000 1.0
C      1  0.5157900000000  0.5017340000000  0.3856950000000 1.0
C      1  0.5407530000000  0.3935170000000  0.4936770000000 1.0
C      1  0.5706750000000  0.4352740000000  0.5584520000000 1.0
C      1  0.4971300000000  0.5197950000000  0.4016380000000 1.0
C      1  0.4450520000000  0.5438560000000  0.4928950000000 1.0
C      1  0.4238250000000  0.5836420000000  0.5361800000000 1.0
C      1  0.5488520000000  0.5272420000000  0.5432830000000 1.0
C      1  0.4141930000000  0.5341210000000  0.4628450000000 1.0
C      1  0.4093610000000  0.4649130000000  0.4630020000000 1.0
C      1  0.4153820000000  0.4438530000000  0.5484430000000 1.0
C      1  0.4916860000000  0.3976810000000  0.4429050000000 1.0
C      1  0.5086870000000  0.4288810000000  0.4772210000000 1.0
C      1  0.4937110000000  0.5917890000000  0.5394290000000 1.0
C      1  0.5699020000000  0.5739800000000  0.4365590000000 1.0
C      1  0.5252980000000  0.6102940000000  0.5055360000000 1.0
C      1  0.4594460000000  0.5636560000000  0.4141300000000 1.0
C      1  0.4787470000000  0.4446900000000  0.5480760000000 1.0
C      1  0.4840230000000  0.4079570000000  0.4156560000000 1.0
C      1  0.5152260000000  0.5359490000000  0.5160320000000 1.0
C      1  0.4891980000000  0.5644500000000  0.4212550000000 1.0
C      1  0.4863780000000  0.5017590000000  0.5780530000000 1.0
C      1  0.5231000000000  0.4248830000000  0.5539120000000 1.0
C      1  0.4310810000000  0.5419190000000  0.5231510000000 1.0
C      1  0.5423320000000  0.4398010000000  0.5111810000000 1.0
C      1  0.5870090000000  0.4208710000000  0.5154350000000 1.0
C      1  0.5599900000000  0.5275290000000  0.4935290000000 1.0
C      1  0.4500070000000  0.5206280000000  0.4357600000000 1.0
C      1  0.5003880000000  0.5293200000000  0.4520180000000 1.0
C      1  0.5330220000000  0.5190600000000  0.5010050000000 1.0
C      1  0.4522780000000  0.5983970000000  0.5022490000000 1.0
C      1  0.5113370000000  0.3934490000000  0.4920140000000 1.0
C      1  0.3823200000000  0.5055690000000  0.5233810000000 1.0
C      1  0.6081690000000  0.5190050000000  0.4805600000000 1.0
C      1  0.5385250000000  0.4567740000000  0.5366500000000 1.0
C      1  0.4716840000000  0.4444390000000  0.4962730000000 1.0
C      1  0.5489810000000  0.6086980000000  0.5255920000000 1.0
C      1  0.5559640000000  0.4614660000000  0.4115870000000 1.0
C      1  0.5361690000000  0.4970510000000  0.5910290000000 1.0
C      1  0.4998870000000  0.5098450000000  0.4300660000000 1.0
C      1  0.5539200000000  0.5422270000000  0.5912990000000 1.0
C      1  0.4768810000000  0.5443010000000  0.5512350000000 1.0
C      1  0.4233210000000  0.5626500000000  0.5549340000000 1.0
C      1  0.4402650000000  0.3943650000000  0.4709920000000 1.0
C      1  0.5338000000000  0.5613920000000  0.5212050000000 1.0
C      1  0.5510870000000  0.4147880000000  0.5474030000000 1.0
C      1  0.4498610000000  0.5351120000000  0.4095150000000 1.0
C      1  0.5448060000000  0.5888350000000  0.5458670000000 1.0
C      1  0.5079780000000  0.5004600000000  0.6013150000000 1.0
C      1  0.5989040000000  0.4324810000000  0.4927630000000 1.0
C      1  0.3952900000000  0.4723860000000  0.4883520000000 1.0
C      1  0.5610980000000  0.5507550000000  0.5141030000000 1.0
C      1  0.4875070000000  0.4167300000000  0.5883750000000 1.0
C      1  0.5294740000000  0.4189130000000  0.4203190000000 1.0
C      1  0.5563840000000  0.5146360000000  0.6013890000000 1.0
C      1  0.5318460000000  0.5797220000000  0.4966610000000 1.0
C      1  0.5142770000000  0.4268190000000  0.5827740000000 1.0
C      1  0.4610360000000  0.4384680000000  0.4513290000000 1.0
C      1  0.4281450000000  0.5678620000000  0.4608770000000 1.0
C      1  0.5919150000000  0.4388860000000  0.5387720000000 1.0
C      1  0.4551340000000  0.4412230000000  0.4217170000000 1.0
C      1  0.6061690000000  0.5151580000000  0.5365840000000 1.0
C      1  0.4355330000000  0.4643060000000  0.5230720000000 1.0
C      1  0.5586380000000  0.6000630000000  0.4785060000000 1.0
C      1  0.5950720000000  0.5066440000000  0.4571040000000 1.0
C      1  0.4874020000000  0.3981570000000  0.5327360000000 1.0
C      1  0.4710040000000  0.4629870000000  0.4084330000000 1.0
C      1  0.4999970000000  0.4253210000000  0.5334260000000 1.0
C      1  0.4955120000000  0.5135840000000  0.4760970000000 1.0
C      1  0.5228420000000  0.5018320000000  0.4812750000000 1.0
C      1  0.5182600000000  0.5851280000000  0.5547000000000 1.0
C      1  0.4484650000000  0.5800690000000  0.4388950000000 1.0
C      1  0.4250610000000  0.4706700000000  0.5874870000000 1.0
C      1  0.5951030000000  0.4912460000000  0.5512690000000 1.0
C      1  0.4727930000000  0.4124170000000  0.4934580000000 1.0
C      1  0.5568940000000  0.4135670000000  0.5168850000000 1.0
C      1  0.3954100000000  0.5526290000000  0.5123130000000 1.0
C      1  0.4339740000000  0.5112280000000  0.4938520000000 1.0
C      1  0.5283370000000  0.4818480000000  0.5253410000000 1.0
C      1  0.4440380000000  0.5152250000000  0.5325140000000 1.0
C      1  0.4382840000000  0.5514650000000  0.5766200000000 1.0
C      1  0.5929300000000  0.5673900000000  0.4824530000000 1.0
C      1  0.4491560000000  0.3820320000000  0.4963610000000 1.0
C      1  0.4073710000000  0.5144990000000  0.5685550000000 1.0
C      1  0.5133280000000  0.4349770000000  0.5069800000000 1.0
C      1  0.4101100000000  0.5780900000000  0.5104830000000 1.0
C      1  0.5698120000000  0.6002520000000  0.5067600000000 1.0
C      1  0.4587350000000  0.4884340000000  0.4009880000000 1.0
C      1  0.5189160000000  0.4773860000000  0.4965900000000 1.0
C      1  0.3955600000000  0.5223390000000  0.4801950000000 1.0
C      1  0.4765520000000  0.4895820000000  0.4681910000000 1.0
C      1  0.5162560000000  0.5670750000000  0.4759630000000 1.0
C      1  0.5582070000000  0.5318680000000  0.4554930000000 1.0
C      1  0.4964630000000  0.5204730000000  0.5530900000000 1.0
C      1  0.4917550000000  0.3828310000000  0.5093170000000 1.0
C      1  0.3917220000000  0.5000320000000  0.4968270000000 1.0
C      1  0.4741320000000  0.6005600000000  0.5601430000000 1.0
C      1  0.5155010000000  0.4567310000000  0.5850740000000 1.0
C      1  0.4749710000000  0.5968260000000  0.4489200000000 1.0
C      1  0.5410600000000  0.4390940000000  0.4610490000000 1.0
C      1  0.5766790000000  0.4790950000000  0.4216920000000 1.0
C      1  0.4725420000000  0.4962190000000  0.4365200000000 1.0
C      1  0.4712270000000  0.4621570000000  0.5997860000000 1.0
C      1  0.4571550000000  0.5085190000000  0.5911920000000 1.0
C      1  0.6029250000000  0.5049450000000  0.5075500000000 1.0
C      1  0.4577950000000  0.4159230000000  0.4100010000000 1.0
C      1  0.4677030000000  0.5158740000000  0.3949000000000 1.0
C      1  0.5708650000000  0.4027470000000  0.4542940000000 1.0
C      1  0.4406550000000  0.3969330000000  0.5196470000000 1.0
C      1  0.4962700000000  0.5941640000000  0.4267580000000 1.0
C      1  0.4308770000000  0.4428930000000  0.4697880000000 1.0
C      1  0.5222740000000  0.4026870000000  0.4446010000000 1.0
C      1  0.4214200000000  0.4161620000000  0.4801850000000 1.0
C      1  0.5172650000000  0.4724930000000  0.3929560000000 1.0
C      1  0.5963690000000  0.4676350000000  0.5331690000000 1.0
C      1  0.5233650000000  0.5464410000000  0.5859650000000 1.0
C      1  0.4292920000000  0.5844200000000  0.4879820000000 1.0
END
