TITL C-951333-8791-95 1.67480641643297e-06 125000 -506.897651845161 0 0 83 (C1) n - 1
REM
REM in /home/bkarasulu/work/CARBON/AIRSS/Generating-Clusters/EDIP-Nigel-Params/with-SteepDescent/Only-C1/SD-CG/HFTN-CG
REM
REM
REM
REM
REM
REM ./C.cell (11c1c37f851c82e70ff6c80c92926a4b)
REM
REM compiler GCC version 9.2.1 20190827 (Red Hat 9.2.1-1)
REM options -cpp -mtune=generic -march=x86-64 -g -O0 -fpre-include=/usr/include/finclude/math-vector-fortran.h
REM seed 1884904848 977481475 47091566 2055291687 724542166 -324543703 1133691367 -953592930 1047165523 1320645665 984447079 395658093 -872732530 -123132740 2109398683 -1351879070 1399650348 1793218010 1492746865 -90997358 738499427 2074970271 861743720 -1192852394 -637299248 5802136 -1881428512 26500699 -1771772489 -1848760927 -1658440279 1311310173 -857562215
REM
CELL 1.54180   50.00000   50.00000   50.00000   90.00000   90.00000   90.00000
LATT -1
SFAC C  
C      1  0.4746690000000  0.5074790000000  0.5302660000000 1.0
C      1  0.5644530000000  0.5335890000000  0.5455670000000 1.0
C      1  0.4938120000000  0.4254020000000  0.5195720000000 1.0
C      1  0.5055360000000  0.5011000000000  0.4632210000000 1.0
C      1  0.5411790000000  0.5514970000000  0.5505880000000 1.0
C      1  0.4571860000000  0.4508950000000  0.5614110000000 1.0
C      1  0.5128540000000  0.5034200000000  0.5077040000000 1.0
C      1  0.5165510000000  0.5050540000000  0.4161670000000 1.0
C      1  0.5166300000000  0.5291940000000  0.4694140000000 1.0
C      1  0.4627840000000  0.4773910000000  0.5686030000000 1.0
C      1  0.5727350000000  0.4964540000000  0.4801020000000 1.0
C      1  0.5009710000000  0.5445930000000  0.4290230000000 1.0
C      1  0.4394930000000  0.4560160000000  0.4762620000000 1.0
C      1  0.4911880000000  0.5552250000000  0.4553050000000 1.0
C      1  0.4670340000000  0.4706610000000  0.4379800000000 1.0
C      1  0.4486490000000  0.5508550000000  0.5424070000000 1.0
C      1  0.4278020000000  0.5516300000000  0.4749890000000 1.0
C      1  0.5674240000000  0.4549890000000  0.5089180000000 1.0
C      1  0.5729690000000  0.4682590000000  0.4841920000000 1.0
C      1  0.4166170000000  0.4612670000000  0.4915610000000 1.0
C      1  0.5631620000000  0.5082730000000  0.4540180000000 1.0
C      1  0.5557300000000  0.4849830000000  0.4382510000000 1.0
C      1  0.4227990000000  0.4875140000000  0.4453720000000 1.0
C      1  0.5160330000000  0.4319050000000  0.5400040000000 1.0
C      1  0.4917860000000  0.5073060000000  0.4329340000000 1.0
C      1  0.4866620000000  0.4500040000000  0.4411620000000 1.0
C      1  0.5358340000000  0.4849330000000  0.5012620000000 1.0
C      1  0.4232380000000  0.4842640000000  0.5063590000000 1.0
C      1  0.4413160000000  0.4673290000000  0.4500770000000 1.0
C      1  0.5241550000000  0.4540700000000  0.4639410000000 1.0
C      1  0.5417440000000  0.5321790000000  0.4519760000000 1.0
C      1  0.4869610000000  0.4785890000000  0.5812670000000 1.0
C      1  0.5437600000000  0.4329660000000  0.4665490000000 1.0
C      1  0.5217040000000  0.4586590000000  0.5111880000000 1.0
C      1  0.4707850000000  0.4916080000000  0.4202740000000 1.0
C      1  0.5418890000000  0.5781860000000  0.5026890000000 1.0
C      1  0.5320990000000  0.4826440000000  0.4691190000000 1.0
C      1  0.5275610000000  0.5321980000000  0.4248160000000 1.0
C      1  0.4494100000000  0.4518100000000  0.5346800000000 1.0
C      1  0.4304010000000  0.5085700000000  0.4621480000000 1.0
C      1  0.4291080000000  0.5350790000000  0.4520560000000 1.0
C      1  0.4839660000000  0.4335090000000  0.4680990000000 1.0
C      1  0.5572460000000  0.4825250000000  0.5766020000000 1.0
C      1  0.4259220000000  0.5484160000000  0.5240560000000 1.0
C      1  0.5127100000000  0.4555060000000  0.4276610000000 1.0
C      1  0.4582870000000  0.5594260000000  0.5055270000000 1.0
C      1  0.5300300000000  0.4914870000000  0.5819860000000 1.0
C      1  0.4719760000000  0.5360280000000  0.5774570000000 1.0
C      1  0.4353420000000  0.5079180000000  0.4923840000000 1.0
C      1  0.5300750000000  0.4803810000000  0.4250120000000 1.0
C      1  0.5060290000000  0.5708950000000  0.4777140000000 1.0
C      1  0.4609640000000  0.4398870000000  0.4861550000000 1.0
C      1  0.5030190000000  0.5014270000000  0.5356620000000 1.0
C      1  0.5058020000000  0.4144710000000  0.4932250000000 1.0
C      1  0.5242140000000  0.4569400000000  0.5546640000000 1.0
C      1  0.5523880000000  0.5060030000000  0.5464320000000 1.0
C      1  0.4688470000000  0.4414410000000  0.5142790000000 1.0
C      1  0.5036160000000  0.4523830000000  0.4860080000000 1.0
C      1  0.4761450000000  0.5720390000000  0.5237190000000 1.0
C      1  0.4721920000000  0.5381060000000  0.4918010000000 1.0
C      1  0.5406500000000  0.5496680000000  0.5130890000000 1.0
C      1  0.4965420000000  0.5462150000000  0.5742490000000 1.0
C      1  0.5210650000000  0.5922020000000  0.5163690000000 1.0
C      1  0.4977590000000  0.5804160000000  0.5055470000000 1.0
C      1  0.4508300000000  0.5279950000000  0.5614500000000 1.0
C      1  0.5350320000000  0.5761240000000  0.4738970000000 1.0
C      1  0.5125560000000  0.4684520000000  0.5792690000000 1.0
C      1  0.5431950000000  0.4365050000000  0.5126740000000 1.0
C      1  0.4645440000000  0.5443860000000  0.4645960000000 1.0
C      1  0.4221160000000  0.5351190000000  0.4985170000000 1.0
C      1  0.5206850000000  0.5310080000000  0.4991670000000 1.0
C      1  0.4358820000000  0.4785570000000  0.5320720000000 1.0
C      1  0.5652670000000  0.4729090000000  0.5313630000000 1.0
C      1  0.4671830000000  0.5103710000000  0.5005900000000 1.0
C      1  0.5511120000000  0.5584620000000  0.4587560000000 1.0
C      1  0.5355760000000  0.4196820000000  0.4897440000000 1.0
C      1  0.5530640000000  0.4630920000000  0.5555480000000 1.0
C      1  0.5665020000000  0.5082700000000  0.5053500000000 1.0
C      1  0.5236710000000  0.5090510000000  0.5575930000000 1.0
C      1  0.5211890000000  0.5372620000000  0.5654520000000 1.0
C      1  0.5676020000000  0.5347750000000  0.5160020000000 1.0
C      1  0.4889400000000  0.4934580000000  0.4877140000000 1.0
C      1  0.4535940000000  0.4991960000000  0.5491580000000 1.0
END
