TITL C-951343-2256-381 -1.27247341220367e-06 125000 -1069.74354530271 0 0 169 (C1) n - 1
REM
REM in /home/bkarasulu/work/CARBON/AIRSS/Generating-Clusters/EDIP-Nigel-Params/with-SteepDescent/Only-C1/SD-CG/HFTN-CG
REM
REM
REM
REM
REM
REM ./C.cell (11c1c37f851c82e70ff6c80c92926a4b)
REM
REM compiler GCC version 9.2.1 20190827 (Red Hat 9.2.1-1)
REM options -cpp -mtune=generic -march=x86-64 -g -O0 -fpre-include=/usr/include/finclude/math-vector-fortran.h
REM seed 1119482845 1344271410 -1923723828 1244170785 -1467306225 -1170469411 -1555551347 356559249 1348501075 1916352349 -1617257132 1941159959 -1854800677 1855989177 -1467915556 1937077174 -2086177876 1065063577 514299397 643009114 1209558781 625365618 -565489739 23902401 1177849052 676599396 -1771816237 1883028249 -972395727 -696100582 666821269 128750402 -882601674
REM
CELL 1.54180   50.00000   50.00000   50.00000   90.00000   90.00000   90.00000
LATT -1
SFAC C  
C      1  0.4901340000000  0.5877470000000  0.5258440000000 1.0
C      1  0.5383220000000  0.5892320000000  0.4450070000000 1.0
C      1  0.5191900000000  0.5523020000000  0.6075780000000 1.0
C      1  0.4435690000000  0.4145180000000  0.5069790000000 1.0
C      1  0.4491760000000  0.5747770000000  0.4956070000000 1.0
C      1  0.4677180000000  0.5153450000000  0.5275220000000 1.0
C      1  0.4749280000000  0.5314170000000  0.5827310000000 1.0
C      1  0.5132310000000  0.5244290000000  0.5037600000000 1.0
C      1  0.5953240000000  0.5221410000000  0.4640180000000 1.0
C      1  0.4811560000000  0.4514300000000  0.4139910000000 1.0
C      1  0.4245870000000  0.5816370000000  0.4590890000000 1.0
C      1  0.5081860000000  0.4632170000000  0.4057690000000 1.0
C      1  0.5646540000000  0.5631690000000  0.4366750000000 1.0
C      1  0.5509950000000  0.5051750000000  0.6103720000000 1.0
C      1  0.5375440000000  0.3836450000000  0.5326940000000 1.0
C      1  0.4503650000000  0.4006280000000  0.5306970000000 1.0
C      1  0.5853070000000  0.4631640000000  0.4374110000000 1.0
C      1  0.4936200000000  0.5868250000000  0.5807700000000 1.0
C      1  0.4333430000000  0.5157530000000  0.4319100000000 1.0
C      1  0.4721520000000  0.4112170000000  0.5741620000000 1.0
C      1  0.5718790000000  0.5512460000000  0.5520530000000 1.0
C      1  0.5226830000000  0.5268340000000  0.4428190000000 1.0
C      1  0.4142340000000  0.5316610000000  0.5568530000000 1.0
C      1  0.5672710000000  0.5628400000000  0.4659100000000 1.0
C      1  0.6116690000000  0.5057770000000  0.5117110000000 1.0
C      1  0.5813230000000  0.4764400000000  0.4836270000000 1.0
C      1  0.5325710000000  0.4334750000000  0.5303100000000 1.0
C      1  0.4111090000000  0.4758820000000  0.4946630000000 1.0
C      1  0.4598980000000  0.4775030000000  0.4820550000000 1.0
C      1  0.4843890000000  0.5215330000000  0.5542770000000 1.0
C      1  0.4640720000000  0.4726230000000  0.4281190000000 1.0
C      1  0.5368040000000  0.5740970000000  0.5229740000000 1.0
C      1  0.5567080000000  0.4538740000000  0.4049700000000 1.0
C      1  0.4698740000000  0.4293820000000  0.5953210000000 1.0
C      1  0.5167960000000  0.4764440000000  0.4415220000000 1.0
C      1  0.5191720000000  0.3917870000000  0.4900450000000 1.0
C      1  0.4671500000000  0.5817090000000  0.5730410000000 1.0
C      1  0.5584490000000  0.4124870000000  0.5116730000000 1.0
C      1  0.4550450000000  0.4187490000000  0.5512640000000 1.0
C      1  0.4937200000000  0.4002490000000  0.4836950000000 1.0
C      1  0.5496230000000  0.5420340000000  0.4796340000000 1.0
C      1  0.4905790000000  0.5087610000000  0.4074260000000 1.0
C      1  0.5554490000000  0.5403140000000  0.5750710000000 1.0
C      1  0.5858620000000  0.5073600000000  0.5488850000000 1.0
C      1  0.6029580000000  0.4878490000000  0.5347640000000 1.0
C      1  0.5375150000000  0.4849120000000  0.5324130000000 1.0
C      1  0.5008320000000  0.5963200000000  0.4984930000000 1.0
C      1  0.5294810000000  0.4424820000000  0.4063190000000 1.0
C      1  0.5493960000000  0.4440590000000  0.4720400000000 1.0
C      1  0.4378850000000  0.5262790000000  0.4780150000000 1.0
C      1  0.3903370000000  0.5316300000000  0.5127350000000 1.0
C      1  0.4212720000000  0.4926080000000  0.5375420000000 1.0
C      1  0.4049600000000  0.5156360000000  0.4423040000000 1.0
C      1  0.4518790000000  0.5994020000000  0.4796590000000 1.0
C      1  0.5115370000000  0.5820020000000  0.4371240000000 1.0
C      1  0.5391470000000  0.4265780000000  0.4517130000000 1.0
C      1  0.5404310000000  0.5155780000000  0.4635310000000 1.0
C      1  0.4043520000000  0.5633990000000  0.4703160000000 1.0
C      1  0.5420320000000  0.3888210000000  0.5053010000000 1.0
C      1  0.5782660000000  0.5156530000000  0.4403170000000 1.0
C      1  0.5513620000000  0.5487570000000  0.5290820000000 1.0
C      1  0.5267890000000  0.5049860000000  0.4872060000000 1.0
C      1  0.5444980000000  0.4886310000000  0.4495030000000 1.0
C      1  0.4917300000000  0.4747910000000  0.5894520000000 1.0
C      1  0.5249340000000  0.4164440000000  0.5698290000000 1.0
C      1  0.4563920000000  0.5529190000000  0.4736010000000 1.0
C      1  0.4937690000000  0.4608650000000  0.5275430000000 1.0
C      1  0.5809970000000  0.4903820000000  0.4244150000000 1.0
C      1  0.5356770000000  0.4822620000000  0.6110690000000 1.0
C      1  0.4810790000000  0.5992160000000  0.4757480000000 1.0
C      1  0.4326470000000  0.4425310000000  0.4601900000000 1.0
C      1  0.4646840000000  0.5853410000000  0.4351790000000 1.0
C      1  0.5062360000000  0.5676130000000  0.4119140000000 1.0
C      1  0.5183900000000  0.5804870000000  0.5693020000000 1.0
C      1  0.4467690000000  0.4646470000000  0.5720920000000 1.0
C      1  0.4614550000000  0.5074680000000  0.5945260000000 1.0
C      1  0.4561030000000  0.5548200000000  0.5767830000000 1.0
C      1  0.4982240000000  0.4953340000000  0.5636700000000 1.0
C      1  0.4493010000000  0.5116290000000  0.4556880000000 1.0
C      1  0.5265800000000  0.5521510000000  0.4012420000000 1.0
C      1  0.4302740000000  0.4196540000000  0.4445730000000 1.0
C      1  0.4483050000000  0.4910650000000  0.5228590000000 1.0
C      1  0.4086650000000  0.5194610000000  0.5312810000000 1.0
C      1  0.4786100000000  0.5091410000000  0.4544290000000 1.0
C      1  0.5893650000000  0.4614250000000  0.5304240000000 1.0
C      1  0.3997650000000  0.5655000000000  0.4995120000000 1.0
C      1  0.5909780000000  0.5501500000000  0.5036660000000 1.0
C      1  0.4863840000000  0.5130630000000  0.5037460000000 1.0
C      1  0.5106050000000  0.4431910000000  0.5097670000000 1.0
C      1  0.5349620000000  0.5615970000000  0.5862520000000 1.0
C      1  0.4882110000000  0.5512860000000  0.4697010000000 1.0
C      1  0.5654260000000  0.4683440000000  0.4599520000000 1.0
C      1  0.4298180000000  0.5780390000000  0.5410540000000 1.0
C      1  0.5968270000000  0.5347120000000  0.5483860000000 1.0
C      1  0.4448580000000  0.4941560000000  0.5744220000000 1.0
C      1  0.5184100000000  0.5094940000000  0.5809450000000 1.0
C      1  0.5472630000000  0.4577070000000  0.5417450000000 1.0
C      1  0.5052220000000  0.5421700000000  0.5435790000000 1.0
C      1  0.4846100000000  0.4933330000000  0.4798490000000 1.0
C      1  0.4174910000000  0.4290080000000  0.5077320000000 1.0
C      1  0.4051340000000  0.4717620000000  0.5244290000000 1.0
C      1  0.5839640000000  0.4545750000000  0.5022280000000 1.0
C      1  0.4539250000000  0.5415850000000  0.5288810000000 1.0
C      1  0.4990930000000  0.4060750000000  0.5698320000000 1.0
C      1  0.5771030000000  0.4981700000000  0.5754330000000 1.0
C      1  0.5373810000000  0.5297960000000  0.4158710000000 1.0
C      1  0.5653530000000  0.5370700000000  0.4244310000000 1.0
C      1  0.4444260000000  0.4936640000000  0.4129000000000 1.0
C      1  0.5814990000000  0.4447700000000  0.5540170000000 1.0
C      1  0.4443710000000  0.4470470000000  0.5468370000000 1.0
C      1  0.5037760000000  0.5316580000000  0.5957310000000 1.0
C      1  0.5374410000000  0.5033250000000  0.3995340000000 1.0
C      1  0.4614370000000  0.4376690000000  0.5013440000000 1.0
C      1  0.5776170000000  0.4417450000000  0.4200060000000 1.0
C      1  0.5198600000000  0.4631690000000  0.5969250000000 1.0
C      1  0.4714170000000  0.4545100000000  0.5829400000000 1.0
C      1  0.5415280000000  0.4845210000000  0.5010930000000 1.0
C      1  0.5396350000000  0.5170550000000  0.5619900000000 1.0
C      1  0.5647740000000  0.4471790000000  0.5788290000000 1.0
C      1  0.5694340000000  0.5198990000000  0.5944380000000 1.0
C      1  0.4571480000000  0.5916930000000  0.5467870000000 1.0
C      1  0.5218100000000  0.4259200000000  0.4298720000000 1.0
C      1  0.5125980000000  0.5718360000000  0.5409440000000 1.0
C      1  0.4919200000000  0.4308460000000  0.4349090000000 1.0
C      1  0.5949150000000  0.5504340000000  0.4741710000000 1.0
C      1  0.3938320000000  0.4912590000000  0.4513160000000 1.0
C      1  0.4621840000000  0.5109010000000  0.3959470000000 1.0
C      1  0.5269180000000  0.4592660000000  0.4884010000000 1.0
C      1  0.4194810000000  0.5075250000000  0.5728160000000 1.0
C      1  0.5348840000000  0.4423170000000  0.5809740000000 1.0
C      1  0.3901040000000  0.4913920000000  0.4794650000000 1.0
C      1  0.5961590000000  0.5015480000000  0.4862860000000 1.0
C      1  0.5646630000000  0.5357280000000  0.5058820000000 1.0
C      1  0.4379540000000  0.4924910000000  0.4940430000000 1.0
C      1  0.4791650000000  0.4912050000000  0.6097260000000 1.0
C      1  0.4162280000000  0.4456910000000  0.5329750000000 1.0
C      1  0.4838840000000  0.3917040000000  0.4593390000000 1.0
C      1  0.4631190000000  0.4594630000000  0.5244780000000 1.0
C      1  0.5085390000000  0.4826430000000  0.5390910000000 1.0
C      1  0.4600520000000  0.5404660000000  0.4039410000000 1.0
C      1  0.4939480000000  0.5342300000000  0.4469920000000 1.0
C      1  0.4665190000000  0.5674810000000  0.5191210000000 1.0
C      1  0.4873220000000  0.4919020000000  0.4325800000000 1.0
C      1  0.4881170000000  0.4290540000000  0.4896940000000 1.0
C      1  0.5129860000000  0.5508410000000  0.4874890000000 1.0
C      1  0.6101660000000  0.5351520000000  0.5208110000000 1.0
C      1  0.4089250000000  0.5330000000000  0.4675960000000 1.0
C      1  0.4577350000000  0.4595800000000  0.4583360000000 1.0
C      1  0.4233550000000  0.5775260000000  0.5114580000000 1.0
C      1  0.5110320000000  0.4916870000000  0.3932550000000 1.0
C      1  0.4497660000000  0.4067470000000  0.4316950000000 1.0
C      1  0.4377090000000  0.5504530000000  0.5525820000000 1.0
C      1  0.5255090000000  0.5784810000000  0.4951870000000 1.0
C      1  0.5428370000000  0.4034180000000  0.5518490000000 1.0
C      1  0.4769590000000  0.4050370000000  0.4361270000000 1.0
C      1  0.4142760000000  0.4474140000000  0.4835280000000 1.0
C      1  0.5681870000000  0.4317210000000  0.4920660000000 1.0
C      1  0.5051350000000  0.4683150000000  0.4684290000000 1.0
C      1  0.4870530000000  0.5454370000000  0.4184020000000 1.0
C      1  0.5471080000000  0.5860930000000  0.4735960000000 1.0
C      1  0.5577560000000  0.4832130000000  0.4077110000000 1.0
C      1  0.3891630000000  0.5204070000000  0.4858230000000 1.0
C      1  0.4461260000000  0.5658930000000  0.4459470000000 1.0
C      1  0.4877360000000  0.5951810000000  0.4473740000000 1.0
C      1  0.5679750000000  0.5047500000000  0.5141350000000 1.0
C      1  0.5292990000000  0.5282750000000  0.5350850000000 1.0
C      1  0.5515930000000  0.4820190000000  0.5725120000000 1.0
C      1  0.4861920000000  0.4448750000000  0.4627620000000 1.0
C      1  0.4390100000000  0.5444410000000  0.4238100000000 1.0
END
