TITL C-950524-1808-153 -2.0726123478297e-06 125000 -482.45869650069 0 0 78 (C1) n - 1
REM
REM in /home/bkarasulu/work/CARBON/AIRSS/Generating-Clusters/EDIP-Nigel-Params/with-SteepDescent/Only-C1/SD-CG/HFTN-CG
REM
REM
REM
REM
REM
REM ./C.cell (11c1c37f851c82e70ff6c80c92926a4b)
REM
REM compiler GCC version 9.2.1 20190827 (Red Hat 9.2.1-1)
REM options -cpp -mtune=generic -march=x86-64 -g -O0 -fpre-include=/usr/include/finclude/math-vector-fortran.h
REM seed -1495208661 106593497 -444888352 -1345686052 579241020 1821408892 355009424 -1359877226 -1301369187 1232832597 -1383801812 -1359372930 48429344 -1805438263 1248245073 16065906 -1989628850 -1066416902 1673189118 1103495167 -794700443 1968257841 1650280326 427369807 -1177663101 -1632487433 -963653564 -224805188 -456075565 -1385740770 -56583723 1019826592 -831211630
REM
CELL 1.54180   50.00000   50.00000   50.00000   90.00000   90.00000   90.00000
LATT -1
SFAC C  
C      1  0.5010680000000  0.4878360000000  0.4720960000000 1.0
C      1  0.5260190000000  0.5133890000000  0.5694700000000 1.0
C      1  0.4928400000000  0.5778030000000  0.5279670000000 1.0
C      1  0.4566810000000  0.5479690000000  0.5128360000000 1.0
C      1  0.4844270000000  0.4752670000000  0.4950460000000 1.0
C      1  0.4795080000000  0.5108840000000  0.4367930000000 1.0
C      1  0.5836890000000  0.4903300000000  0.5181190000000 1.0
C      1  0.5214860000000  0.4273470000000  0.4732720000000 1.0
C      1  0.4702580000000  0.5628100000000  0.4335770000000 1.0
C      1  0.5722600000000  0.5343740000000  0.5065300000000 1.0
C      1  0.5736900000000  0.5064600000000  0.4950540000000 1.0
C      1  0.4797700000000  0.4806070000000  0.4341680000000 1.0
C      1  0.5497860000000  0.4680050000000  0.4640840000000 1.0
C      1  0.4991110000000  0.5252570000000  0.4176220000000 1.0
C      1  0.5427290000000  0.4456790000000  0.4820460000000 1.0
C      1  0.4524870000000  0.4720290000000  0.4424570000000 1.0
C      1  0.5151090000000  0.5518760000000  0.4525150000000 1.0
C      1  0.4374000000000  0.5398520000000  0.4918370000000 1.0
C      1  0.5315630000000  0.4693570000000  0.4401020000000 1.0
C      1  0.4710370000000  0.5533170000000  0.4623070000000 1.0
C      1  0.4391760000000  0.4847330000000  0.5196130000000 1.0
C      1  0.5195030000000  0.5697280000000  0.5269450000000 1.0
C      1  0.5030380000000  0.4677470000000  0.4495030000000 1.0
C      1  0.4501050000000  0.5203940000000  0.4379050000000 1.0
C      1  0.4257720000000  0.4933990000000  0.4756860000000 1.0
C      1  0.4725030000000  0.4380100000000  0.4750960000000 1.0
C      1  0.4980850000000  0.5538610000000  0.4269330000000 1.0
C      1  0.5291210000000  0.5567240000000  0.5511760000000 1.0
C      1  0.5121460000000  0.5669410000000  0.4779910000000 1.0
C      1  0.5163190000000  0.4681950000000  0.5744370000000 1.0
C      1  0.4977870000000  0.4397750000000  0.4599810000000 1.0
C      1  0.5751360000000  0.4639200000000  0.5152630000000 1.0
C      1  0.4837600000000  0.5234630000000  0.4651640000000 1.0
C      1  0.4589190000000  0.5047760000000  0.5726330000000 1.0
C      1  0.5163420000000  0.4053190000000  0.4900310000000 1.0
C      1  0.5375870000000  0.4667060000000  0.5538400000000 1.0
C      1  0.4835000000000  0.5734770000000  0.4811170000000 1.0
C      1  0.5112020000000  0.5364990000000  0.5612880000000 1.0
C      1  0.5382890000000  0.4419180000000  0.5355550000000 1.0
C      1  0.4227340000000  0.5075050000000  0.5234580000000 1.0
C      1  0.4520210000000  0.4527700000000  0.4630160000000 1.0
C      1  0.4941850000000  0.4496560000000  0.5718710000000 1.0
C      1  0.4905850000000  0.4989660000000  0.5386360000000 1.0
C      1  0.4509230000000  0.4851000000000  0.4931140000000 1.0
C      1  0.4198310000000  0.5168770000000  0.4961450000000 1.0
C      1  0.4946810000000  0.4473500000000  0.5419690000000 1.0
C      1  0.5748110000000  0.5045500000000  0.5437310000000 1.0
C      1  0.4552750000000  0.4776010000000  0.5660960000000 1.0
C      1  0.5273500000000  0.5170700000000  0.4255350000000 1.0
C      1  0.4712450000000  0.5118260000000  0.4921680000000 1.0
C      1  0.5054580000000  0.4944850000000  0.5737390000000 1.0
C      1  0.4700230000000  0.4599000000000  0.5818860000000 1.0
C      1  0.5443740000000  0.4978670000000  0.5494830000000 1.0
C      1  0.5310550000000  0.5275960000000  0.4530820000000 1.0
C      1  0.5751330000000  0.5334630000000  0.5361530000000 1.0
C      1  0.4565770000000  0.4709340000000  0.5376300000000 1.0
C      1  0.4416800000000  0.5481560000000  0.4641540000000 1.0
C      1  0.4582970000000  0.5376740000000  0.5389060000000 1.0
C      1  0.5001410000000  0.4160320000000  0.5103940000000 1.0
C      1  0.5354640000000  0.4905100000000  0.4227320000000 1.0
C      1  0.4339630000000  0.4955790000000  0.4464060000000 1.0
C      1  0.5008110000000  0.4732620000000  0.5221400000000 1.0
C      1  0.5339630000000  0.4776770000000  0.5111260000000 1.0
C      1  0.5241140000000  0.5089510000000  0.4768810000000 1.0
C      1  0.4752470000000  0.5223120000000  0.5564480000000 1.0
C      1  0.5561190000000  0.5491850000000  0.5496190000000 1.0
C      1  0.5264410000000  0.5544210000000  0.5018070000000 1.0
C      1  0.4900080000000  0.5189890000000  0.5147810000000 1.0
C      1  0.5546990000000  0.5540430000000  0.4967550000000 1.0
C      1  0.4738140000000  0.5711110000000  0.5085780000000 1.0
C      1  0.5314870000000  0.5050440000000  0.5235430000000 1.0
C      1  0.5176310000000  0.5238460000000  0.5040470000000 1.0
C      1  0.4474020000000  0.5469200000000  0.4243330000000 1.0
C      1  0.4765730000000  0.4331060000000  0.5041460000000 1.0
C      1  0.5553180000000  0.4443430000000  0.5103790000000 1.0
C      1  0.4605660000000  0.4429090000000  0.5278570000000 1.0
C      1  0.5132380000000  0.4253550000000  0.5349960000000 1.0
C      1  0.5475520000000  0.4910280000000  0.4842080000000 1.0
END
