TITL C-950521-2237-430 -3.07526035531616e-06 125000 -774.832554357617 0 0 124 (C1) n - 1
REM
REM in /home/bkarasulu/work/CARBON/AIRSS/Generating-Clusters/EDIP-Nigel-Params/with-SteepDescent/Only-C1/SD-CG/HFTN-CG
REM
REM
REM
REM
REM
REM ./C.cell (11c1c37f851c82e70ff6c80c92926a4b)
REM
REM compiler GCC version 9.2.1 20190827 (Red Hat 9.2.1-1)
REM options -cpp -mtune=generic -march=x86-64 -g -O0 -fpre-include=/usr/include/finclude/math-vector-fortran.h
REM seed 913426441 892958854 704812791 100110622 592232402 -119414007 -1341597153 -1212447390 -1064070430 -934790717 2019999282 845744703 -1744476200 787955976 1725145993 -309261953 -1050624398 2113966919 1800291550 -102135677 1106315135 -662040630 -873856570 -1877091434 -1261288506 -2121285105 -1738530733 -523674062 -319209733 1153418777 2146982776 -325973713 1661500890
REM
CELL 1.54180   50.00000   50.00000   50.00000   90.00000   90.00000   90.00000
LATT -1
SFAC C  
C      1  0.4140500000000  0.4719820000000  0.4690040000000 1.0
C      1  0.5735460000000  0.4938990000000  0.4716770000000 1.0
C      1  0.4958500000000  0.5030470000000  0.4607070000000 1.0
C      1  0.4366020000000  0.4219230000000  0.4663000000000 1.0
C      1  0.4106810000000  0.4997250000000  0.4687930000000 1.0
C      1  0.5517360000000  0.4856350000000  0.4332110000000 1.0
C      1  0.4304290000000  0.5682790000000  0.5467880000000 1.0
C      1  0.5056590000000  0.5151140000000  0.5709660000000 1.0
C      1  0.5223040000000  0.5444190000000  0.4726870000000 1.0
C      1  0.5413230000000  0.4352880000000  0.5810150000000 1.0
C      1  0.5546410000000  0.4456600000000  0.4836820000000 1.0
C      1  0.5481580000000  0.5298520000000  0.5473900000000 1.0
C      1  0.4730350000000  0.5524910000000  0.4531180000000 1.0
C      1  0.5910870000000  0.4802570000000  0.4921240000000 1.0
C      1  0.4304960000000  0.4347860000000  0.4419560000000 1.0
C      1  0.4997710000000  0.5527330000000  0.4906610000000 1.0
C      1  0.5737320000000  0.4579230000000  0.5546810000000 1.0
C      1  0.4158320000000  0.5443260000000  0.5529780000000 1.0
C      1  0.4325460000000  0.4620990000000  0.4479710000000 1.0
C      1  0.4477210000000  0.5692370000000  0.4531850000000 1.0
C      1  0.5112950000000  0.4873280000000  0.4113210000000 1.0
C      1  0.4622850000000  0.4705500000000  0.5639600000000 1.0
C      1  0.5065420000000  0.4369140000000  0.4020180000000 1.0
C      1  0.5053970000000  0.3984890000000  0.4537440000000 1.0
C      1  0.5663050000000  0.5754090000000  0.4849090000000 1.0
C      1  0.5493300000000  0.5124100000000  0.5221740000000 1.0
C      1  0.4416960000000  0.4170370000000  0.5127240000000 1.0
C      1  0.5359630000000  0.4665560000000  0.4761490000000 1.0
C      1  0.4546270000000  0.5066620000000  0.4468810000000 1.0
C      1  0.4983190000000  0.4811010000000  0.4385300000000 1.0
C      1  0.5765950000000  0.5192050000000  0.5080290000000 1.0
C      1  0.5010810000000  0.4920440000000  0.5398420000000 1.0
C      1  0.4767090000000  0.4712030000000  0.4194840000000 1.0
C      1  0.5367500000000  0.4709840000000  0.4128770000000 1.0
C      1  0.4757780000000  0.4780610000000  0.5387130000000 1.0
C      1  0.4441510000000  0.5074670000000  0.5441340000000 1.0
C      1  0.4302400000000  0.5718670000000  0.5174500000000 1.0
C      1  0.5290580000000  0.4124660000000  0.4571690000000 1.0
C      1  0.4454510000000  0.5978510000000  0.4946540000000 1.0
C      1  0.5316320000000  0.4419240000000  0.4132090000000 1.0
C      1  0.4795210000000  0.5337920000000  0.4785780000000 1.0
C      1  0.5791580000000  0.4488270000000  0.4636360000000 1.0
C      1  0.5707210000000  0.5531090000000  0.5414610000000 1.0
C      1  0.5319590000000  0.4791560000000  0.5720130000000 1.0
C      1  0.4676630000000  0.4714830000000  0.4917270000000 1.0
C      1  0.4264200000000  0.4747050000000  0.5212380000000 1.0
C      1  0.5839700000000  0.4830970000000  0.5438210000000 1.0
C      1  0.5046810000000  0.5859260000000  0.5547980000000 1.0
C      1  0.4674410000000  0.5467490000000  0.5741360000000 1.0
C      1  0.4939710000000  0.4843910000000  0.4855010000000 1.0
C      1  0.4768420000000  0.5903490000000  0.5510600000000 1.0
C      1  0.5118970000000  0.5450690000000  0.5159080000000 1.0
C      1  0.5791070000000  0.5227850000000  0.4707890000000 1.0
C      1  0.5619040000000  0.5801040000000  0.5334240000000 1.0
C      1  0.4788240000000  0.4044290000000  0.4489410000000 1.0
C      1  0.5279720000000  0.5616350000000  0.5356150000000 1.0
C      1  0.4710530000000  0.5291930000000  0.4353200000000 1.0
C      1  0.5360910000000  0.5124380000000  0.5710330000000 1.0
C      1  0.5374630000000  0.4201130000000  0.4841780000000 1.0
C      1  0.4915600000000  0.4978190000000  0.5904400000000 1.0
C      1  0.4355650000000  0.5378560000000  0.4814360000000 1.0
C      1  0.4670200000000  0.6125290000000  0.5065370000000 1.0
C      1  0.4154600000000  0.5158470000000  0.5528090000000 1.0
C      1  0.5512810000000  0.5862600000000  0.5072920000000 1.0
C      1  0.4841660000000  0.5985040000000  0.4641600000000 1.0
C      1  0.4952030000000  0.4307440000000  0.5623900000000 1.0
C      1  0.4248030000000  0.5565510000000  0.4635020000000 1.0
C      1  0.5132430000000  0.5646970000000  0.5708500000000 1.0
C      1  0.4377460000000  0.4568990000000  0.5451210000000 1.0
C      1  0.5067950000000  0.4483350000000  0.5107220000000 1.0
C      1  0.5188030000000  0.5164930000000  0.4150820000000 1.0
C      1  0.5358140000000  0.4197900000000  0.5351530000000 1.0
C      1  0.5248980000000  0.5140970000000  0.4637140000000 1.0
C      1  0.4339120000000  0.5440900000000  0.5096290000000 1.0
C      1  0.4970890000000  0.5741500000000  0.4519920000000 1.0
C      1  0.5438730000000  0.4939530000000  0.4785750000000 1.0
C      1  0.5535600000000  0.5634180000000  0.4595330000000 1.0
C      1  0.4698480000000  0.5165510000000  0.5046230000000 1.0
C      1  0.5621250000000  0.4536420000000  0.5122580000000 1.0
C      1  0.5549760000000  0.4599480000000  0.5773610000000 1.0
C      1  0.4940070000000  0.5280360000000  0.4198140000000 1.0
C      1  0.4538050000000  0.5288980000000  0.5251990000000 1.0
C      1  0.5244550000000  0.4722410000000  0.5434560000000 1.0
C      1  0.5243010000000  0.5200810000000  0.5077070000000 1.0
C      1  0.4722630000000  0.4202250000000  0.4269350000000 1.0
C      1  0.4581660000000  0.5689980000000  0.5575600000000 1.0
C      1  0.4376050000000  0.5094950000000  0.4724700000000 1.0
C      1  0.4775720000000  0.4561220000000  0.5180610000000 1.0
C      1  0.4549380000000  0.5938970000000  0.4670460000000 1.0
C      1  0.5873490000000  0.5442440000000  0.5187080000000 1.0
C      1  0.5180940000000  0.4205380000000  0.5102070000000 1.0
C      1  0.5053990000000  0.4718920000000  0.5886090000000 1.0
C      1  0.5268270000000  0.5737310000000  0.4482610000000 1.0
C      1  0.5378210000000  0.6100140000000  0.5037810000000 1.0
C      1  0.4900140000000  0.4051120000000  0.5171410000000 1.0
C      1  0.5924170000000  0.4948360000000  0.5178780000000 1.0
C      1  0.4262430000000  0.4312460000000  0.4921720000000 1.0
C      1  0.5999470000000  0.4542300000000  0.4832300000000 1.0
C      1  0.4790590000000  0.4259980000000  0.5374440000000 1.0
C      1  0.4628730000000  0.4960210000000  0.5824300000000 1.0
C      1  0.4624930000000  0.4104430000000  0.4713050000000 1.0
C      1  0.5103620000000  0.4612870000000  0.4856800000000 1.0
C      1  0.5631410000000  0.5358540000000  0.4498720000000 1.0
C      1  0.4092180000000  0.4967360000000  0.5315270000000 1.0
C      1  0.4510560000000  0.4805770000000  0.4338570000000 1.0
C      1  0.4959600000000  0.5426220000000  0.5742900000000 1.0
C      1  0.4839560000000  0.4528650000000  0.5780930000000 1.0
C      1  0.5762440000000  0.4758330000000  0.4470260000000 1.0
C      1  0.5240590000000  0.4358620000000  0.5572560000000 1.0
C      1  0.5876380000000  0.5621680000000  0.4971710000000 1.0
C      1  0.4485470000000  0.4295840000000  0.5384390000000 1.0
C      1  0.5008550000000  0.5023330000000  0.5111880000000 1.0
C      1  0.5626020000000  0.4314870000000  0.5313410000000 1.0
C      1  0.4651690000000  0.4033810000000  0.4996740000000 1.0
C      1  0.4908300000000  0.6089830000000  0.4905420000000 1.0
C      1  0.4502210000000  0.4942750000000  0.4970210000000 1.0
C      1  0.5149860000000  0.6211350000000  0.4959650000000 1.0
C      1  0.5492430000000  0.4800780000000  0.5270250000000 1.0
C      1  0.4691490000000  0.6107300000000  0.5340430000000 1.0
C      1  0.5409270000000  0.5147650000000  0.4371770000000 1.0
C      1  0.4807560000000  0.4417710000000  0.4113790000000 1.0
C      1  0.4513540000000  0.5227650000000  0.5776740000000 1.0
C      1  0.4156110000000  0.4586640000000  0.4959750000000 1.0
C      1  0.5396620000000  0.4262210000000  0.4351460000000 1.0
END
