TITL C-950528-5794-461 -1.83499229153804e-06 125000 -764.572449384072 0 0 122 (C1) n - 1
REM
REM in /home/bkarasulu/work/CARBON/AIRSS/Generating-Clusters/EDIP-Nigel-Params/with-SteepDescent/Only-C1/SD-CG/HFTN-CG
REM
REM
REM
REM
REM
REM ./C.cell (11c1c37f851c82e70ff6c80c92926a4b)
REM
REM compiler GCC version 9.2.1 20190827 (Red Hat 9.2.1-1)
REM options -cpp -mtune=generic -march=x86-64 -g -O0 -fpre-include=/usr/include/finclude/math-vector-fortran.h
REM seed 54647534 1358081032 -647386986 -862941885 1510146656 -1898493425 327475171 2043440799 -59573040 -1900857121 270954589 1947867783 -1027880848 870958792 148938661 -886902889 952449055 -466877162 533881675 -426256116 984829043 905389562 -858030582 -737834866 339233822 -1057128559 -1329611946 1271500425 -381555463 -1980723148 -1115601126 -979814607 2030149248
REM
CELL 1.54180   50.00000   50.00000   50.00000   90.00000   90.00000   90.00000
LATT -1
SFAC C  
C      1  0.5319750000000  0.4537680000000  0.5103410000000 1.0
C      1  0.4910590000000  0.5567860000000  0.4279200000000 1.0
C      1  0.5201950000000  0.4310230000000  0.4485030000000 1.0
C      1  0.4605340000000  0.5230740000000  0.4123720000000 1.0
C      1  0.5442360000000  0.4674170000000  0.4701570000000 1.0
C      1  0.5841530000000  0.4681730000000  0.4512560000000 1.0
C      1  0.4224900000000  0.4996620000000  0.4507220000000 1.0
C      1  0.4824290000000  0.4913310000000  0.4904310000000 1.0
C      1  0.4265080000000  0.5291500000000  0.4527160000000 1.0
C      1  0.4324530000000  0.4792220000000  0.5550760000000 1.0
C      1  0.5217880000000  0.4291980000000  0.5512720000000 1.0
C      1  0.4204270000000  0.5445830000000  0.4776900000000 1.0
C      1  0.4481460000000  0.5762010000000  0.5079620000000 1.0
C      1  0.4498490000000  0.5612970000000  0.5564610000000 1.0
C      1  0.4782170000000  0.4636820000000  0.5679820000000 1.0
C      1  0.5604420000000  0.5693850000000  0.4707570000000 1.0
C      1  0.5595900000000  0.4162360000000  0.5124290000000 1.0
C      1  0.4187380000000  0.5271420000000  0.5510000000000 1.0
C      1  0.4950820000000  0.4182400000000  0.5466370000000 1.0
C      1  0.4939180000000  0.5563760000000  0.5275020000000 1.0
C      1  0.4651520000000  0.5629180000000  0.4671770000000 1.0
C      1  0.5066740000000  0.5884750000000  0.4663110000000 1.0
C      1  0.5449810000000  0.5225080000000  0.5362610000000 1.0
C      1  0.4438210000000  0.5414690000000  0.4299810000000 1.0
C      1  0.5616800000000  0.4214680000000  0.4737180000000 1.0
C      1  0.5439160000000  0.4348570000000  0.5298740000000 1.0
C      1  0.4780560000000  0.4549820000000  0.4379450000000 1.0
C      1  0.4015050000000  0.4771480000000  0.4965180000000 1.0
C      1  0.5131420000000  0.4950310000000  0.4951730000000 1.0
C      1  0.5421450000000  0.5479220000000  0.5221580000000 1.0
C      1  0.4330390000000  0.4310680000000  0.4771240000000 1.0
C      1  0.5412510000000  0.5590690000000  0.4489340000000 1.0
C      1  0.4315850000000  0.4567870000000  0.5339510000000 1.0
C      1  0.5270280000000  0.5885030000000  0.5126190000000 1.0
C      1  0.3845690000000  0.5180580000000  0.5002990000000 1.0
C      1  0.5559590000000  0.5839180000000  0.4999840000000 1.0
C      1  0.5819120000000  0.4678240000000  0.5314440000000 1.0
C      1  0.5385610000000  0.5126340000000  0.4308890000000 1.0
C      1  0.4342570000000  0.4566350000000  0.4640130000000 1.0
C      1  0.4895620000000  0.4279140000000  0.4441260000000 1.0
C      1  0.4648060000000  0.5157060000000  0.5728200000000 1.0
C      1  0.5567540000000  0.4876390000000  0.4328550000000 1.0
C      1  0.5210420000000  0.5719200000000  0.4865020000000 1.0
C      1  0.5246120000000  0.4501680000000  0.5718280000000 1.0
C      1  0.5181870000000  0.4834240000000  0.5436020000000 1.0
C      1  0.4910100000000  0.5304620000000  0.5846270000000 1.0
C      1  0.4429510000000  0.4880920000000  0.4332630000000 1.0
C      1  0.5681350000000  0.5633380000000  0.5207000000000 1.0
C      1  0.5390870000000  0.4679860000000  0.4180050000000 1.0
C      1  0.5569200000000  0.5009260000000  0.5177420000000 1.0
C      1  0.4689340000000  0.5178180000000  0.5000930000000 1.0
C      1  0.5077730000000  0.5436280000000  0.4888140000000 1.0
C      1  0.5437150000000  0.4413660000000  0.4302570000000 1.0
C      1  0.4735960000000  0.4620200000000  0.5205520000000 1.0
C      1  0.5102100000000  0.4455970000000  0.4933570000000 1.0
C      1  0.5065920000000  0.4158220000000  0.4899550000000 1.0
C      1  0.5911770000000  0.4775160000000  0.4785040000000 1.0
C      1  0.5219020000000  0.5666510000000  0.5333680000000 1.0
C      1  0.4830050000000  0.5172130000000  0.4541290000000 1.0
C      1  0.4862600000000  0.4787320000000  0.5426900000000 1.0
C      1  0.4508290000000  0.4745260000000  0.5055880000000 1.0
C      1  0.5126440000000  0.5090760000000  0.4163990000000 1.0
C      1  0.5819290000000  0.4600270000000  0.5018700000000 1.0
C      1  0.5305230000000  0.4823450000000  0.5159800000000 1.0
C      1  0.4357740000000  0.5046050000000  0.5396560000000 1.0
C      1  0.5190940000000  0.5131610000000  0.5494420000000 1.0
C      1  0.5845010000000  0.5521590000000  0.4770100000000 1.0
C      1  0.4616540000000  0.4144730000000  0.5139080000000 1.0
C      1  0.5630120000000  0.4512360000000  0.5464860000000 1.0
C      1  0.5177530000000  0.4563200000000  0.4664180000000 1.0
C      1  0.5459700000000  0.4672420000000  0.5638400000000 1.0
C      1  0.4765610000000  0.5830790000000  0.5072100000000 1.0
C      1  0.5618200000000  0.4484110000000  0.4551000000000 1.0
C      1  0.4801870000000  0.5364300000000  0.4773870000000 1.0
C      1  0.5886000000000  0.5268060000000  0.4629850000000 1.0
C      1  0.5882230000000  0.5191950000000  0.5433360000000 1.0
C      1  0.4771050000000  0.5701340000000  0.5585090000000 1.0
C      1  0.5026840000000  0.4644140000000  0.5848850000000 1.0
C      1  0.5521380000000  0.5382000000000  0.4314630000000 1.0
C      1  0.5788700000000  0.4925240000000  0.5479610000000 1.0
C      1  0.5784800000000  0.5312820000000  0.4375010000000 1.0
C      1  0.4396490000000  0.5661100000000  0.4815030000000 1.0
C      1  0.5056010000000  0.4791650000000  0.4507220000000 1.0
C      1  0.5109520000000  0.4792230000000  0.4210720000000 1.0
C      1  0.4139330000000  0.4316150000000  0.4974440000000 1.0
C      1  0.5776100000000  0.5042440000000  0.4807730000000 1.0
C      1  0.4550030000000  0.4828040000000  0.5752290000000 1.0
C      1  0.4783160000000  0.4882380000000  0.4596150000000 1.0
C      1  0.4413590000000  0.5362710000000  0.5697060000000 1.0
C      1  0.5248510000000  0.5641830000000  0.5644590000000 1.0
C      1  0.4490960000000  0.4979750000000  0.4079010000000 1.0
C      1  0.4881740000000  0.5258660000000  0.4260990000000 1.0
C      1  0.5398720000000  0.5278530000000  0.5925610000000 1.0
C      1  0.4795140000000  0.5863060000000  0.4778090000000 1.0
C      1  0.4954380000000  0.5259000000000  0.5345850000000 1.0
C      1  0.5473350000000  0.5466390000000  0.5731950000000 1.0
C      1  0.4384760000000  0.5609760000000  0.5300010000000 1.0
C      1  0.4496700000000  0.4613410000000  0.4404020000000 1.0
C      1  0.5316320000000  0.4109440000000  0.4700030000000 1.0
C      1  0.3784190000000  0.4921230000000  0.5018220000000 1.0
C      1  0.5906300000000  0.5206490000000  0.5138870000000 1.0
C      1  0.4062420000000  0.5352120000000  0.5018060000000 1.0
C      1  0.4970630000000  0.5587480000000  0.5762500000000 1.0
C      1  0.5119290000000  0.4895170000000  0.5923100000000 1.0
C      1  0.4630380000000  0.5634990000000  0.4375370000000 1.0
C      1  0.4148090000000  0.4774110000000  0.4697480000000 1.0
C      1  0.4580140000000  0.4387460000000  0.5322430000000 1.0
C      1  0.5139120000000  0.5706540000000  0.4428770000000 1.0
C      1  0.5720780000000  0.5439860000000  0.5541030000000 1.0
C      1  0.4078380000000  0.4534810000000  0.5139000000000 1.0
C      1  0.5490800000000  0.4976290000000  0.4694820000000 1.0
C      1  0.5247020000000  0.5202100000000  0.4875020000000 1.0
C      1  0.4448040000000  0.5032820000000  0.5101120000000 1.0
C      1  0.4828720000000  0.4149730000000  0.4703840000000 1.0
C      1  0.4139110000000  0.5462760000000  0.5282250000000 1.0
C      1  0.4731860000000  0.5077180000000  0.5430610000000 1.0
C      1  0.5794950000000  0.4307140000000  0.4974630000000 1.0
C      1  0.5885190000000  0.5484020000000  0.5055220000000 1.0
C      1  0.4590300000000  0.4216430000000  0.4858550000000 1.0
C      1  0.5163280000000  0.5153100000000  0.5807710000000 1.0
C      1  0.4897090000000  0.4065570000000  0.5192930000000 1.0
C      1  0.4718640000000  0.4348020000000  0.5584850000000 1.0
END
