TITL C-950522-5749-626 -3.1481476541291e-06 125000 -978.507928832415 0 0 157 (C1) n - 1
REM
REM in /home/bkarasulu/work/CARBON/AIRSS/Generating-Clusters/EDIP-Nigel-Params/with-SteepDescent/Only-C1/SD-CG/HFTN-CG
REM
REM
REM
REM
REM
REM ./C.cell (11c1c37f851c82e70ff6c80c92926a4b)
REM
REM compiler GCC version 9.2.1 20190827 (Red Hat 9.2.1-1)
REM options -cpp -mtune=generic -march=x86-64 -g -O0 -fpre-include=/usr/include/finclude/math-vector-fortran.h
REM seed -1815587029 1848196662 -1084466190 -330844708 1879826702 1132335738 -646334290 -962745149 847623358 116236613 1096152722 238340595 2129843040 946898730 162187036 -413109443 2051135143 1315451631 144581267 259675695 -392980026 -1181360567 2012150364 -437892097 -637997294 -1438795161 1123432137 94860305 -2125115849 1845481377 -1855732527 -738409593 -1342048396
REM
CELL 1.54180   50.00000   50.00000   50.00000   90.00000   90.00000   90.00000
LATT -1
SFAC C  
C      1  0.4593980000000  0.4899560000000  0.5277600000000 1.0
C      1  0.4116880000000  0.4999900000000  0.4415620000000 1.0
C      1  0.5480770000000  0.5091680000000  0.4172130000000 1.0
C      1  0.5407760000000  0.4282120000000  0.5542570000000 1.0
C      1  0.4829860000000  0.4996420000000  0.5078360000000 1.0
C      1  0.4512160000000  0.5107950000000  0.5764300000000 1.0
C      1  0.5059910000000  0.5073600000000  0.5265210000000 1.0
C      1  0.5129240000000  0.5464260000000  0.5464130000000 1.0
C      1  0.4160810000000  0.4676480000000  0.5239720000000 1.0
C      1  0.5716430000000  0.4461360000000  0.4219350000000 1.0
C      1  0.5468850000000  0.5962230000000  0.4840860000000 1.0
C      1  0.5053390000000  0.5075970000000  0.6073380000000 1.0
C      1  0.4579580000000  0.5616400000000  0.5188270000000 1.0
C      1  0.4984280000000  0.4254330000000  0.5275490000000 1.0
C      1  0.4669680000000  0.4010640000000  0.4494340000000 1.0
C      1  0.5376540000000  0.5290530000000  0.5496160000000 1.0
C      1  0.5112990000000  0.5805380000000  0.4573870000000 1.0
C      1  0.5789700000000  0.4957950000000  0.5726200000000 1.0
C      1  0.5534580000000  0.4649990000000  0.4324480000000 1.0
C      1  0.6029270000000  0.4663010000000  0.4993220000000 1.0
C      1  0.4295850000000  0.5202630000000  0.4327770000000 1.0
C      1  0.4511810000000  0.5844490000000  0.4663390000000 1.0
C      1  0.6019010000000  0.4485260000000  0.4559520000000 1.0
C      1  0.4131290000000  0.5518180000000  0.5221230000000 1.0
C      1  0.5541930000000  0.5076030000000  0.5782220000000 1.0
C      1  0.5598630000000  0.4242680000000  0.4626770000000 1.0
C      1  0.5607340000000  0.4927550000000  0.4408500000000 1.0
C      1  0.3834630000000  0.4899850000000  0.4943790000000 1.0
C      1  0.5560640000000  0.4925790000000  0.4793080000000 1.0
C      1  0.4393230000000  0.4107470000000  0.4540960000000 1.0
C      1  0.5407580000000  0.5751360000000  0.5654200000000 1.0
C      1  0.4167990000000  0.4599360000000  0.4744570000000 1.0
C      1  0.4554490000000  0.3970670000000  0.4921620000000 1.0
C      1  0.4677850000000  0.5892280000000  0.5203620000000 1.0
C      1  0.4119580000000  0.4943040000000  0.5403420000000 1.0
C      1  0.4937600000000  0.4586350000000  0.5251600000000 1.0
C      1  0.5416760000000  0.5860510000000  0.4571320000000 1.0
C      1  0.4268810000000  0.4290970000000  0.4736370000000 1.0
C      1  0.4667160000000  0.4481350000000  0.4085810000000 1.0
C      1  0.4106190000000  0.5560160000000  0.4641120000000 1.0
C      1  0.5124170000000  0.4531310000000  0.4135020000000 1.0
C      1  0.5137820000000  0.5545690000000  0.6015330000000 1.0
C      1  0.4916000000000  0.4335840000000  0.4124830000000 1.0
C      1  0.3950470000000  0.5115440000000  0.5234810000000 1.0
C      1  0.4296820000000  0.5064240000000  0.4878440000000 1.0
C      1  0.4392830000000  0.4784170000000  0.4848260000000 1.0
C      1  0.5884620000000  0.4855200000000  0.5493130000000 1.0
C      1  0.5815880000000  0.4332400000000  0.4446750000000 1.0
C      1  0.4424640000000  0.4716590000000  0.5123160000000 1.0
C      1  0.5419960000000  0.5224080000000  0.5199450000000 1.0
C      1  0.4350730000000  0.5544600000000  0.5013290000000 1.0
C      1  0.4967130000000  0.4012590000000  0.5086570000000 1.0
C      1  0.5436360000000  0.4110180000000  0.5076150000000 1.0
C      1  0.4677610000000  0.5222840000000  0.4541870000000 1.0
C      1  0.4567680000000  0.4517590000000  0.5649540000000 1.0
C      1  0.5425430000000  0.5492350000000  0.5042630000000 1.0
C      1  0.5143490000000  0.4817560000000  0.5406430000000 1.0
C      1  0.4748510000000  0.5334860000000  0.4119650000000 1.0
C      1  0.4711830000000  0.5972400000000  0.4840940000000 1.0
C      1  0.5999070000000  0.4714330000000  0.4716590000000 1.0
C      1  0.4382370000000  0.5113450000000  0.5479110000000 1.0
C      1  0.5664700000000  0.5283060000000  0.4059180000000 1.0
C      1  0.4546610000000  0.5632650000000  0.4460030000000 1.0
C      1  0.4184130000000  0.5371490000000  0.5498560000000 1.0
C      1  0.4760110000000  0.5253050000000  0.4916220000000 1.0
C      1  0.4677320000000  0.5351780000000  0.5868570000000 1.0
C      1  0.4270420000000  0.4189990000000  0.5239180000000 1.0
C      1  0.4522020000000  0.4247930000000  0.5517210000000 1.0
C      1  0.4521430000000  0.5137220000000  0.4145160000000 1.0
C      1  0.5108980000000  0.4230630000000  0.4727600000000 1.0
C      1  0.5155370000000  0.5588230000000  0.5173350000000 1.0
C      1  0.5508770000000  0.5572070000000  0.4504740000000 1.0
C      1  0.4655740000000  0.4733660000000  0.4704650000000 1.0
C      1  0.5600700000000  0.4993230000000  0.5121860000000 1.0
C      1  0.5873650000000  0.5283460000000  0.4259550000000 1.0
C      1  0.5588600000000  0.5353150000000  0.5898620000000 1.0
C      1  0.5431650000000  0.4568080000000  0.5879350000000 1.0
C      1  0.5480630000000  0.4763320000000  0.5287090000000 1.0
C      1  0.6009360000000  0.5003780000000  0.4629880000000 1.0
C      1  0.4462590000000  0.5298050000000  0.4842470000000 1.0
C      1  0.5118030000000  0.4734200000000  0.3943890000000 1.0
C      1  0.5109890000000  0.4817490000000  0.5713030000000 1.0
C      1  0.5912790000000  0.5278330000000  0.4724340000000 1.0
C      1  0.5278730000000  0.5313920000000  0.4076000000000 1.0
C      1  0.5375330000000  0.5136850000000  0.4705180000000 1.0
C      1  0.5169060000000  0.5888320000000  0.5233070000000 1.0
C      1  0.4980510000000  0.5268990000000  0.4542740000000 1.0
C      1  0.5883030000000  0.5039420000000  0.5253800000000 1.0
C      1  0.5774240000000  0.5544590000000  0.5401870000000 1.0
C      1  0.4460890000000  0.4859540000000  0.5913480000000 1.0
C      1  0.5665240000000  0.5786880000000  0.5267250000000 1.0
C      1  0.5296140000000  0.5553210000000  0.4251570000000 1.0
C      1  0.4934600000000  0.4919970000000  0.4035390000000 1.0
C      1  0.5131780000000  0.5707080000000  0.5767850000000 1.0
C      1  0.4935000000000  0.5339860000000  0.6031600000000 1.0
C      1  0.4331510000000  0.4657250000000  0.5758670000000 1.0
C      1  0.4993470000000  0.5201340000000  0.4031380000000 1.0
C      1  0.4826190000000  0.4160420000000  0.5519450000000 1.0
C      1  0.4212800000000  0.5746040000000  0.5403450000000 1.0
C      1  0.4641160000000  0.4473650000000  0.4576610000000 1.0
C      1  0.4869620000000  0.5779840000000  0.5639230000000 1.0
C      1  0.5084010000000  0.5509820000000  0.4703390000000 1.0
C      1  0.5925790000000  0.5342360000000  0.5239250000000 1.0
C      1  0.5655800000000  0.5793250000000  0.4983500000000 1.0
C      1  0.6087210000000  0.4912620000000  0.5103380000000 1.0
C      1  0.5266130000000  0.4547140000000  0.4397080000000 1.0
C      1  0.3974540000000  0.4649410000000  0.4984460000000 1.0
C      1  0.4774930000000  0.5569270000000  0.4290860000000 1.0
C      1  0.5836480000000  0.4476890000000  0.5124450000000 1.0
C      1  0.4893730000000  0.4733630000000  0.4898410000000 1.0
C      1  0.5810120000000  0.5448910000000  0.4500710000000 1.0
C      1  0.5982440000000  0.5398710000000  0.4969670000000 1.0
C      1  0.4919970000000  0.5270580000000  0.5435870000000 1.0
C      1  0.4017290000000  0.5135150000000  0.4939280000000 1.0
C      1  0.5302340000000  0.4303390000000  0.5260060000000 1.0
C      1  0.4943770000000  0.5504190000000  0.4964190000000 1.0
C      1  0.4899950000000  0.4927170000000  0.5881570000000 1.0
C      1  0.5133910000000  0.4735610000000  0.4670500000000 1.0
C      1  0.4315250000000  0.5459840000000  0.4461370000000 1.0
C      1  0.3945730000000  0.5376100000000  0.4789100000000 1.0
C      1  0.4265700000000  0.5756390000000  0.4808260000000 1.0
C      1  0.5643850000000  0.4441960000000  0.5619650000000 1.0
C      1  0.5141240000000  0.5029620000000  0.4602320000000 1.0
C      1  0.4627590000000  0.5599860000000  0.5710640000000 1.0
C      1  0.5424620000000  0.5899530000000  0.5402930000000 1.0
C      1  0.5295140000000  0.4258770000000  0.4500170000000 1.0
C      1  0.4761510000000  0.3833250000000  0.5024260000000 1.0
C      1  0.4246640000000  0.4591820000000  0.4287070000000 1.0
C      1  0.5898790000000  0.5001500000000  0.4361770000000 1.0
C      1  0.4958980000000  0.4128580000000  0.4344880000000 1.0
C      1  0.5382500000000  0.4682740000000  0.4830290000000 1.0
C      1  0.4387320000000  0.4185360000000  0.4978590000000 1.0
C      1  0.4693680000000  0.5393400000000  0.5325750000000 1.0
C      1  0.4738510000000  0.4421210000000  0.5880530000000 1.0
C      1  0.5353240000000  0.4575540000000  0.5107200000000 1.0
C      1  0.4797740000000  0.4229310000000  0.4675660000000 1.0
C      1  0.4194210000000  0.4419580000000  0.5387670000000 1.0
C      1  0.5038390000000  0.5709760000000  0.4298190000000 1.0
C      1  0.4954100000000  0.4262220000000  0.5767040000000 1.0
C      1  0.5655440000000  0.4255390000000  0.4929150000000 1.0
C      1  0.4704460000000  0.4924160000000  0.4483800000000 1.0
C      1  0.5393900000000  0.5448930000000  0.6074570000000 1.0
C      1  0.5339050000000  0.4875180000000  0.5906860000000 1.0
C      1  0.5568060000000  0.5493860000000  0.5625020000000 1.0
C      1  0.5220350000000  0.4391070000000  0.5734120000000 1.0
C      1  0.4902710000000  0.5935200000000  0.5384100000000 1.0
C      1  0.4675620000000  0.4850030000000  0.4178250000000 1.0
C      1  0.4334420000000  0.5629110000000  0.5647790000000 1.0
C      1  0.5199960000000  0.4024330000000  0.4912430000000 1.0
C      1  0.4095260000000  0.4724560000000  0.4472570000000 1.0
C      1  0.5203640000000  0.6033850000000  0.4967110000000 1.0
C      1  0.5369630000000  0.5426310000000  0.4745900000000 1.0
C      1  0.4494870000000  0.4467190000000  0.4309210000000 1.0
C      1  0.4709550000000  0.4761540000000  0.6021180000000 1.0
C      1  0.4987260000000  0.6012290000000  0.4756800000000 1.0
C      1  0.5728100000000  0.4616670000000  0.5392310000000 1.0
C      1  0.4723310000000  0.4690450000000  0.5447630000000 1.0
END
