TITL C-950532-2784-290 1.20571008309788e-06 125000 -1143.73072516293 0 0 179 (C1) n - 1
REM
REM in /home/bkarasulu/work/CARBON/AIRSS/Generating-Clusters/EDIP-Nigel-Params/with-SteepDescent/Only-C1/SD-CG/HFTN-CG
REM
REM
REM
REM
REM
REM ./C.cell (11c1c37f851c82e70ff6c80c92926a4b)
REM
REM compiler GCC version 9.2.1 20190827 (Red Hat 9.2.1-1)
REM options -cpp -mtune=generic -march=x86-64 -g -O0 -fpre-include=/usr/include/finclude/math-vector-fortran.h
REM seed 81074235 -1879833954 -1284427047 755180185 343429736 1125275937 -2111941919 844617243 1329283596 -1336932964 252566589 1483708460 2086879493 -894264119 1410180820 -557371712 -801601385 -1327066368 -520023360 1260541831 -256337078 1192401551 1405474534 268009274 -116736723 -409017558 637506437 1903436537 -1410713472 -1461387343 -1344893110 -693891316 227665830
REM
CELL 1.54180   50.00000   50.00000   50.00000   90.00000   90.00000   90.00000
LATT -1
SFAC C  
C      1  0.4109850000000  0.5384690000000  0.5049010000000 1.0
C      1  0.4537210000000  0.4427100000000  0.4619490000000 1.0
C      1  0.4820650000000  0.6046150000000  0.4616900000000 1.0
C      1  0.5521520000000  0.4177200000000  0.4563300000000 1.0
C      1  0.4377840000000  0.3938340000000  0.5001700000000 1.0
C      1  0.5983300000000  0.4331650000000  0.4908670000000 1.0
C      1  0.5281870000000  0.5339370000000  0.5945670000000 1.0
C      1  0.5323900000000  0.4393370000000  0.4956320000000 1.0
C      1  0.4805180000000  0.3952970000000  0.4388470000000 1.0
C      1  0.5351640000000  0.5952630000000  0.5488970000000 1.0
C      1  0.4708380000000  0.4631730000000  0.5822580000000 1.0
C      1  0.5175590000000  0.5047160000000  0.5056640000000 1.0
C      1  0.5566880000000  0.5271290000000  0.4811180000000 1.0
C      1  0.5473150000000  0.4469090000000  0.5818820000000 1.0
C      1  0.6011640000000  0.5562450000000  0.5203010000000 1.0
C      1  0.4081880000000  0.5099260000000  0.5715100000000 1.0
C      1  0.5509960000000  0.5824380000000  0.4595870000000 1.0
C      1  0.4143550000000  0.5681270000000  0.4979750000000 1.0
C      1  0.4199850000000  0.5376210000000  0.5756130000000 1.0
C      1  0.5174290000000  0.4606390000000  0.5433900000000 1.0
C      1  0.6048540000000  0.4787320000000  0.5093350000000 1.0
C      1  0.4014400000000  0.5351130000000  0.5326870000000 1.0
C      1  0.4679710000000  0.5651520000000  0.5193960000000 1.0
C      1  0.5467100000000  0.5658100000000  0.5137310000000 1.0
C      1  0.4465950000000  0.5400050000000  0.5866030000000 1.0
C      1  0.5243410000000  0.4349640000000  0.4156140000000 1.0
C      1  0.4501580000000  0.5484180000000  0.4779320000000 1.0
C      1  0.4259180000000  0.5656300000000  0.4708150000000 1.0
C      1  0.4751540000000  0.4855030000000  0.5613350000000 1.0
C      1  0.4461860000000  0.4485780000000  0.5781220000000 1.0
C      1  0.5512530000000  0.5468390000000  0.4080010000000 1.0
C      1  0.5786490000000  0.4702100000000  0.5507490000000 1.0
C      1  0.5115610000000  0.5257470000000  0.4470120000000 1.0
C      1  0.5584730000000  0.4644810000000  0.6016720000000 1.0
C      1  0.5442830000000  0.4728390000000  0.5322960000000 1.0
C      1  0.5066680000000  0.5401640000000  0.5376260000000 1.0
C      1  0.5097430000000  0.5223800000000  0.4161450000000 1.0
C      1  0.4854130000000  0.5138400000000  0.4597580000000 1.0
C      1  0.4461060000000  0.4361340000000  0.5525380000000 1.0
C      1  0.5367730000000  0.4864160000000  0.4700910000000 1.0
C      1  0.4891430000000  0.5617480000000  0.5931950000000 1.0
C      1  0.5169880000000  0.4107170000000  0.5627720000000 1.0
C      1  0.4113670000000  0.4314950000000  0.4832570000000 1.0
C      1  0.4297220000000  0.4893800000000  0.5721770000000 1.0
C      1  0.5990800000000  0.4219360000000  0.4650520000000 1.0
C      1  0.5551810000000  0.5512390000000  0.5405960000000 1.0
C      1  0.5495820000000  0.4630610000000  0.4281420000000 1.0
C      1  0.5105420000000  0.3866330000000  0.4751180000000 1.0
C      1  0.5372120000000  0.5457310000000  0.4913150000000 1.0
C      1  0.5102610000000  0.5781640000000  0.5831340000000 1.0
C      1  0.4329860000000  0.5814610000000  0.5159960000000 1.0
C      1  0.5789980000000  0.4996380000000  0.5583170000000 1.0
C      1  0.4090640000000  0.4609890000000  0.4443400000000 1.0
C      1  0.4425080000000  0.4939560000000  0.5970610000000 1.0
C      1  0.4156830000000  0.4642880000000  0.5202770000000 1.0
C      1  0.5242370000000  0.5450290000000  0.4026410000000 1.0
C      1  0.4021960000000  0.4595110000000  0.4924370000000 1.0
C      1  0.5605710000000  0.6022080000000  0.4837910000000 1.0
C      1  0.5760450000000  0.4561830000000  0.4414180000000 1.0
C      1  0.5249660000000  0.4965090000000  0.4096450000000 1.0
C      1  0.5313700000000  0.3953360000000  0.4929310000000 1.0
C      1  0.5046070000000  0.4507260000000  0.4974850000000 1.0
C      1  0.5570210000000  0.4050490000000  0.4846300000000 1.0
C      1  0.4591690000000  0.4337780000000  0.4957310000000 1.0
C      1  0.5076190000000  0.5969130000000  0.5607130000000 1.0
C      1  0.5140270000000  0.5301170000000  0.4953710000000 1.0
C      1  0.4831140000000  0.5160340000000  0.6086590000000 1.0
C      1  0.4925450000000  0.3910450000000  0.5188560000000 1.0
C      1  0.4842550000000  0.4833340000000  0.4639400000000 1.0
C      1  0.5203380000000  0.4587870000000  0.5738450000000 1.0
C      1  0.5307660000000  0.4107650000000  0.4343190000000 1.0
C      1  0.5879150000000  0.5491100000000  0.4738460000000 1.0
C      1  0.4704760000000  0.5667430000000  0.4898060000000 1.0
C      1  0.4483890000000  0.4900930000000  0.5481680000000 1.0
C      1  0.5025620000000  0.4685070000000  0.4443430000000 1.0
C      1  0.5350520000000  0.5628560000000  0.5843090000000 1.0
C      1  0.4807910000000  0.4185980000000  0.5216170000000 1.0
C      1  0.5716470000000  0.5111800000000  0.5827120000000 1.0
C      1  0.5005830000000  0.5384240000000  0.6074950000000 1.0
C      1  0.5349140000000  0.4079670000000  0.5416100000000 1.0
C      1  0.4925710000000  0.4957530000000  0.5164640000000 1.0
C      1  0.5941340000000  0.5067210000000  0.5079290000000 1.0
C      1  0.4589720000000  0.3859250000000  0.4828410000000 1.0
C      1  0.4626180000000  0.5635530000000  0.5818240000000 1.0
C      1  0.4319520000000  0.4222610000000  0.5036310000000 1.0
C      1  0.5786610000000  0.4276790000000  0.4465430000000 1.0
C      1  0.4572690000000  0.5816850000000  0.5589760000000 1.0
C      1  0.4985770000000  0.5679640000000  0.5292350000000 1.0
C      1  0.5228070000000  0.4870920000000  0.5836160000000 1.0
C      1  0.5850060000000  0.5439320000000  0.5392760000000 1.0
C      1  0.5419100000000  0.6182350000000  0.5028300000000 1.0
C      1  0.4834240000000  0.6084800000000  0.5127840000000 1.0
C      1  0.4234760000000  0.4361700000000  0.4551600000000 1.0
C      1  0.5410260000000  0.5027810000000  0.5231580000000 1.0
C      1  0.3957850000000  0.5083050000000  0.5449220000000 1.0
C      1  0.4737650000000  0.4164530000000  0.4216620000000 1.0
C      1  0.5118360000000  0.5696770000000  0.4029730000000 1.0
C      1  0.4955960000000  0.4797120000000  0.5406470000000 1.0
C      1  0.5644150000000  0.5119040000000  0.4388050000000 1.0
C      1  0.6029850000000  0.4623450000000  0.4854330000000 1.0
C      1  0.4249530000000  0.4363080000000  0.5311590000000 1.0
C      1  0.5068670000000  0.4363600000000  0.5238430000000 1.0
C      1  0.5127940000000  0.5553200000000  0.4505490000000 1.0
C      1  0.4948290000000  0.4457910000000  0.5843420000000 1.0
C      1  0.5598650000000  0.4794820000000  0.4858620000000 1.0
C      1  0.4193850000000  0.4759420000000  0.4228990000000 1.0
C      1  0.5526220000000  0.4919700000000  0.4182660000000 1.0
C      1  0.5533260000000  0.4580660000000  0.5068580000000 1.0
C      1  0.3975000000000  0.4817040000000  0.5347260000000 1.0
C      1  0.4328440000000  0.5752330000000  0.5438080000000 1.0
C      1  0.4863590000000  0.3826730000000  0.4918360000000 1.0
C      1  0.5078780000000  0.3968430000000  0.4481810000000 1.0
C      1  0.5699670000000  0.5839090000000  0.5048670000000 1.0
C      1  0.4362300000000  0.4899900000000  0.4706330000000 1.0
C      1  0.4644100000000  0.5698560000000  0.4273790000000 1.0
C      1  0.3751110000000  0.4713650000000  0.4949330000000 1.0
C      1  0.4595300000000  0.3857960000000  0.4550770000000 1.0
C      1  0.5099500000000  0.4711540000000  0.4139410000000 1.0
C      1  0.4833180000000  0.5886540000000  0.4359660000000 1.0
C      1  0.5584130000000  0.4246750000000  0.5359090000000 1.0
C      1  0.5110000000000  0.5782600000000  0.4306300000000 1.0
C      1  0.4779870000000  0.5226020000000  0.4097650000000 1.0
C      1  0.5342660000000  0.5267580000000  0.5438350000000 1.0
C      1  0.4071710000000  0.5274220000000  0.4577390000000 1.0
C      1  0.4418120000000  0.4775460000000  0.4063530000000 1.0
C      1  0.5995400000000  0.5203890000000  0.4770760000000 1.0
C      1  0.5832470000000  0.4742110000000  0.4658060000000 1.0
C      1  0.4556290000000  0.5180210000000  0.6027190000000 1.0
C      1  0.5522540000000  0.5148560000000  0.6028260000000 1.0
C      1  0.5473140000000  0.6129660000000  0.5300910000000 1.0
C      1  0.5717860000000  0.4235620000000  0.5055930000000 1.0
C      1  0.5502940000000  0.5725390000000  0.5610660000000 1.0
C      1  0.3794870000000  0.4985010000000  0.4906510000000 1.0
C      1  0.4693050000000  0.5959310000000  0.4876220000000 1.0
C      1  0.5171190000000  0.5148030000000  0.5725840000000 1.0
C      1  0.5907770000000  0.5161450000000  0.5374610000000 1.0
C      1  0.5679270000000  0.5404260000000  0.4290830000000 1.0
C      1  0.4670280000000  0.4944940000000  0.4071620000000 1.0
C      1  0.4774730000000  0.4498400000000  0.3923740000000 1.0
C      1  0.4417840000000  0.5000180000000  0.4980290000000 1.0
C      1  0.5259670000000  0.6213540000000  0.4488960000000 1.0
C      1  0.5130810000000  0.6095270000000  0.4990350000000 1.0
C      1  0.4947370000000  0.4302010000000  0.4065520000000 1.0
C      1  0.4595770000000  0.5372390000000  0.5254670000000 1.0
C      1  0.4832090000000  0.5222260000000  0.5367070000000 1.0
C      1  0.4574930000000  0.4725400000000  0.4594950000000 1.0
C      1  0.5891640000000  0.5021500000000  0.4556510000000 1.0
C      1  0.5354830000000  0.4397960000000  0.4671710000000 1.0
C      1  0.4623750000000  0.4614170000000  0.5067070000000 1.0
C      1  0.4614680000000  0.5418160000000  0.4268340000000 1.0
C      1  0.4149380000000  0.5528580000000  0.5516570000000 1.0
C      1  0.4421000000000  0.4795100000000  0.5191830000000 1.0
C      1  0.5182590000000  0.5808670000000  0.5105480000000 1.0
C      1  0.3937300000000  0.5227890000000  0.4846520000000 1.0
C      1  0.4495550000000  0.4494940000000  0.4024860000000 1.0
C      1  0.4480310000000  0.4301040000000  0.4255490000000 1.0
C      1  0.5344930000000  0.5969110000000  0.4383300000000 1.0
C      1  0.5649830000000  0.4437730000000  0.5581630000000 1.0
C      1  0.4410470000000  0.5293690000000  0.5025390000000 1.0
C      1  0.4872720000000  0.4767190000000  0.3961490000000 1.0
C      1  0.5735470000000  0.5613600000000  0.4497400000000 1.0
C      1  0.5416440000000  0.4872330000000  0.6051580000000 1.0
C      1  0.5306860000000  0.4644430000000  0.4527610000000 1.0
C      1  0.4802530000000  0.5983250000000  0.5453140000000 1.0
C      1  0.5411700000000  0.5130850000000  0.4585820000000 1.0
C      1  0.5219370000000  0.3947830000000  0.5197140000000 1.0
C      1  0.5639160000000  0.5053620000000  0.5013190000000 1.0
C      1  0.5080010000000  0.6141460000000  0.4694000000000 1.0
C      1  0.4850610000000  0.5140720000000  0.5702290000000 1.0
C      1  0.4863800000000  0.4740230000000  0.4951440000000 1.0
C      1  0.6000180000000  0.4651630000000  0.5328650000000 1.0
C      1  0.4106540000000  0.4762080000000  0.4690940000000 1.0
C      1  0.4697560000000  0.4199430000000  0.5488640000000 1.0
C      1  0.4336610000000  0.5131840000000  0.4536680000000 1.0
C      1  0.4088610000000  0.5548940000000  0.4514400000000 1.0
C      1  0.4589850000000  0.5294650000000  0.4539640000000 1.0
C      1  0.4914740000000  0.4205100000000  0.5697380000000 1.0
C      1  0.5300770000000  0.5646960000000  0.4708470000000 1.0
C      1  0.5932660000000  0.5679720000000  0.4965050000000 1.0
END
