TITL C-950527-2551-268 4.51050911621813e-07 125000 -253.263941095847 0 0 42 (C1) n - 1
REM
REM in /home/bkarasulu/work/CARBON/AIRSS/Generating-Clusters/EDIP-Nigel-Params/with-SteepDescent/Only-C1/SD-CG/HFTN-CG
REM
REM
REM
REM
REM
REM ./C.cell (11c1c37f851c82e70ff6c80c92926a4b)
REM
REM compiler GCC version 9.2.1 20190827 (Red Hat 9.2.1-1)
REM options -cpp -mtune=generic -march=x86-64 -g -O0 -fpre-include=/usr/include/finclude/math-vector-fortran.h
REM seed -773589311 2107481849 -742248078 1397356236 -361248973 1517738593 385427341 -133986161 -2068770392 -2005601863 -488979378 298606625 1344463548 317683111 -319222112 1537652546 248384178 -1838614100 133296164 267714232 -1003610963 2074005181 379273927 1522586471 -1449996537 755607355 750156894 1162537473 1702016872 1032977688 -82204666 -1327145639 -945487658
REM
CELL 1.54180   50.00000   50.00000   50.00000   90.00000   90.00000   90.00000
LATT -1
SFAC C  
C      1  0.5277030000000  0.4422220000000  0.5139540000000 1.0
C      1  0.4833110000000  0.4994970000000  0.5617300000000 1.0
C      1  0.4987240000000  0.4425150000000  0.5188740000000 1.0
C      1  0.4829650000000  0.5069280000000  0.4396040000000 1.0
C      1  0.4622060000000  0.4547320000000  0.4844140000000 1.0
C      1  0.5338950000000  0.5568060000000  0.4877570000000 1.0
C      1  0.4946810000000  0.4814020000000  0.5399930000000 1.0
C      1  0.5271970000000  0.5260290000000  0.5551080000000 1.0
C      1  0.4802080000000  0.4934740000000  0.5144680000000 1.0
C      1  0.4828220000000  0.5344820000000  0.4487880000000 1.0
C      1  0.5394510000000  0.5291430000000  0.4807060000000 1.0
C      1  0.5560510000000  0.4858910000000  0.5015340000000 1.0
C      1  0.5117810000000  0.4976120000000  0.4461670000000 1.0
C      1  0.4560840000000  0.4784780000000  0.5018150000000 1.0
C      1  0.4769920000000  0.5545780000000  0.5195850000000 1.0
C      1  0.4682010000000  0.4646090000000  0.4568670000000 1.0
C      1  0.5323100000000  0.4409890000000  0.4847500000000 1.0
C      1  0.5378800000000  0.4713560000000  0.4827240000000 1.0
C      1  0.4937730000000  0.5323630000000  0.5269620000000 1.0
C      1  0.4851290000000  0.4371230000000  0.4933530000000 1.0
C      1  0.4610730000000  0.4921940000000  0.4526240000000 1.0
C      1  0.4439180000000  0.4995340000000  0.4857910000000 1.0
C      1  0.4963190000000  0.5261790000000  0.5566310000000 1.0
C      1  0.4536360000000  0.5145930000000  0.5325870000000 1.0
C      1  0.5103590000000  0.5465580000000  0.4467410000000 1.0
C      1  0.5417850000000  0.4680430000000  0.5219980000000 1.0
C      1  0.4977180000000  0.4621240000000  0.4561520000000 1.0
C      1  0.4553380000000  0.5026310000000  0.5580890000000 1.0
C      1  0.5247250000000  0.4843380000000  0.5401530000000 1.0
C      1  0.4873390000000  0.4532450000000  0.5425800000000 1.0
C      1  0.5503410000000  0.5137410000000  0.5027080000000 1.0
C      1  0.5055830000000  0.4367400000000  0.4714330000000 1.0
C      1  0.4460710000000  0.5218990000000  0.5048590000000 1.0
C      1  0.5105120000000  0.5616440000000  0.4720660000000 1.0
C      1  0.5115040000000  0.4852380000000  0.4739810000000 1.0
C      1  0.4871670000000  0.5330870000000  0.4807430000000 1.0
C      1  0.5370900000000  0.5002860000000  0.5595350000000 1.0
C      1  0.4641080000000  0.5440760000000  0.4965780000000 1.0
C      1  0.4972290000000  0.5054510000000  0.4924200000000 1.0
C      1  0.5282370000000  0.5230750000000  0.4528480000000 1.0
C      1  0.5256230000000  0.5340280000000  0.5244370000000 1.0
C      1  0.5329620000000  0.5610700000000  0.5158920000000 1.0
END
