TITL C-951333-8791-145 -1.74659976197234e-06 125000 -816.932618235381 0 0 132 (C1) n - 1
REM
REM in /home/bkarasulu/work/CARBON/AIRSS/Generating-Clusters/EDIP-Nigel-Params/with-SteepDescent/Only-C1/SD-CG/HFTN-CG
REM
REM
REM
REM
REM
REM ./C.cell (11c1c37f851c82e70ff6c80c92926a4b)
REM
REM compiler GCC version 9.2.1 20190827 (Red Hat 9.2.1-1)
REM options -cpp -mtune=generic -march=x86-64 -g -O0 -fpre-include=/usr/include/finclude/math-vector-fortran.h
REM seed 1944342498 1410221850 -1845451633 -2118402008 540452876 -1392761970 1699695564 1302097541 -282809910 1245242570 -111164068 -754291065 306737195 -144899060 137735958 -171878371 1842502087 646062549 -819743669 -1770434315 707074744 -1753472419 -1285300291 883972080 506690591 -725484900 1176999770 -74775845 -1289411839 -1774795286 -1904223348 -1618203081 1278365518
REM
CELL 1.54180   50.00000   50.00000   50.00000   90.00000   90.00000   90.00000
LATT -1
SFAC C  
C      1  0.5040900000000  0.4452100000000  0.5669100000000 1.0
C      1  0.5211600000000  0.4947290000000  0.5711150000000 1.0
C      1  0.4803960000000  0.3996380000000  0.5251430000000 1.0
C      1  0.5236820000000  0.4773840000000  0.4318970000000 1.0
C      1  0.4853790000000  0.5178170000000  0.3948860000000 1.0
C      1  0.4227660000000  0.5624300000000  0.5241300000000 1.0
C      1  0.5052200000000  0.5536910000000  0.4851940000000 1.0
C      1  0.5589930000000  0.4434870000000  0.4681740000000 1.0
C      1  0.4927530000000  0.5333650000000  0.4411420000000 1.0
C      1  0.5307780000000  0.5313300000000  0.5427240000000 1.0
C      1  0.4670120000000  0.5669440000000  0.5448620000000 1.0
C      1  0.5849090000000  0.4910350000000  0.4635050000000 1.0
C      1  0.4755830000000  0.4836650000000  0.5858450000000 1.0
C      1  0.4864690000000  0.5062300000000  0.4543500000000 1.0
C      1  0.5243020000000  0.4255380000000  0.4287910000000 1.0
C      1  0.5528460000000  0.5412920000000  0.5619700000000 1.0
C      1  0.5022280000000  0.5599500000000  0.5857590000000 1.0
C      1  0.4934600000000  0.4778050000000  0.4474640000000 1.0
C      1  0.4783440000000  0.6076140000000  0.4770890000000 1.0
C      1  0.4436230000000  0.5781990000000  0.4727540000000 1.0
C      1  0.4015790000000  0.4820770000000  0.5036820000000 1.0
C      1  0.4587760000000  0.5071130000000  0.4653390000000 1.0
C      1  0.3957660000000  0.4926570000000  0.4784290000000 1.0
C      1  0.5196530000000  0.5806850000000  0.4904500000000 1.0
C      1  0.5031930000000  0.4719340000000  0.5810020000000 1.0
C      1  0.5653210000000  0.4510580000000  0.4393450000000 1.0
C      1  0.5233310000000  0.4952630000000  0.5091540000000 1.0
C      1  0.5498930000000  0.5712570000000  0.5673990000000 1.0
C      1  0.4090480000000  0.4935600000000  0.5483170000000 1.0
C      1  0.5197600000000  0.5794020000000  0.5737730000000 1.0
C      1  0.5155990000000  0.4510160000000  0.5129630000000 1.0
C      1  0.5405040000000  0.4663080000000  0.4730810000000 1.0
C      1  0.4624370000000  0.4191890000000  0.5383060000000 1.0
C      1  0.4793550000000  0.4431350000000  0.5479290000000 1.0
C      1  0.5880280000000  0.5405080000000  0.4759990000000 1.0
C      1  0.4558170000000  0.5363390000000  0.4653380000000 1.0
C      1  0.5904270000000  0.5327320000000  0.5037390000000 1.0
C      1  0.5902190000000  0.5192370000000  0.4565420000000 1.0
C      1  0.5342970000000  0.5399680000000  0.5150800000000 1.0
C      1  0.5060520000000  0.6075300000000  0.4793970000000 1.0
C      1  0.4774220000000  0.5140730000000  0.5877560000000 1.0
C      1  0.4280260000000  0.4319320000000  0.5151100000000 1.0
C      1  0.4473370000000  0.4857550000000  0.4436440000000 1.0
C      1  0.4879130000000  0.4580120000000  0.5231350000000 1.0
C      1  0.5762300000000  0.4779470000000  0.4394760000000 1.0
C      1  0.5922200000000  0.4692370000000  0.5384290000000 1.0
C      1  0.5170000000000  0.5398750000000  0.4607610000000 1.0
C      1  0.5036330000000  0.5312620000000  0.5521400000000 1.0
C      1  0.5293650000000  0.4084140000000  0.5407800000000 1.0
C      1  0.5747040000000  0.5080320000000  0.5101360000000 1.0
C      1  0.5380920000000  0.4553980000000  0.5305350000000 1.0
C      1  0.5785440000000  0.5268790000000  0.4319870000000 1.0
C      1  0.4290270000000  0.5435420000000  0.5049710000000 1.0
C      1  0.5778670000000  0.4541920000000  0.5566450000000 1.0
C      1  0.5420010000000  0.5155020000000  0.4981440000000 1.0
C      1  0.4803370000000  0.4046520000000  0.4958560000000 1.0
C      1  0.4178590000000  0.4793450000000  0.4421730000000 1.0
C      1  0.4566860000000  0.5004700000000  0.4955240000000 1.0
C      1  0.4364020000000  0.5169490000000  0.5147770000000 1.0
C      1  0.4539250000000  0.5210280000000  0.5405210000000 1.0
C      1  0.5947490000000  0.4855570000000  0.5148020000000 1.0
C      1  0.5322560000000  0.4030870000000  0.4882110000000 1.0
C      1  0.5353080000000  0.4875140000000  0.5379580000000 1.0
C      1  0.5245200000000  0.4936820000000  0.4061230000000 1.0
C      1  0.5539880000000  0.5636150000000  0.5163020000000 1.0
C      1  0.4612780000000  0.5081730000000  0.4081810000000 1.0
C      1  0.5570850000000  0.4402550000000  0.5680380000000 1.0
C      1  0.4968760000000  0.4231900000000  0.4308790000000 1.0
C      1  0.5603920000000  0.5636770000000  0.4667240000000 1.0
C      1  0.5046600000000  0.4055720000000  0.4793280000000 1.0
C      1  0.4095640000000  0.5037790000000  0.5219720000000 1.0
C      1  0.4254700000000  0.4588560000000  0.4617040000000 1.0
C      1  0.4718760000000  0.5888440000000  0.5221460000000 1.0
C      1  0.4976390000000  0.6021470000000  0.5285490000000 1.0
C      1  0.5381830000000  0.4505470000000  0.4260000000000 1.0
C      1  0.4350990000000  0.4317980000000  0.4663630000000 1.0
C      1  0.4543770000000  0.5780070000000  0.4461870000000 1.0
C      1  0.4662380000000  0.4948410000000  0.5501300000000 1.0
C      1  0.5325250000000  0.5145090000000  0.4696120000000 1.0
C      1  0.5154250000000  0.5847940000000  0.5437720000000 1.0
C      1  0.4994240000000  0.4923750000000  0.3912520000000 1.0
C      1  0.5006640000000  0.4043200000000  0.4508770000000 1.0
C      1  0.4260800000000  0.4627750000000  0.5157240000000 1.0
C      1  0.5044190000000  0.5222410000000  0.5797720000000 1.0
C      1  0.5781490000000  0.5371070000000  0.5475370000000 1.0
C      1  0.5320940000000  0.4363140000000  0.5535380000000 1.0
C      1  0.5510760000000  0.5337720000000  0.4293580000000 1.0
C      1  0.5814300000000  0.5522000000000  0.5231810000000 1.0
C      1  0.5466480000000  0.4975870000000  0.5868140000000 1.0
C      1  0.5501100000000  0.5778720000000  0.4897870000000 1.0
C      1  0.5397230000000  0.4052350000000  0.5150700000000 1.0
C      1  0.5455710000000  0.5830880000000  0.5383030000000 1.0
C      1  0.4666750000000  0.4794000000000  0.4058120000000 1.0
C      1  0.4498130000000  0.4724320000000  0.4993470000000 1.0
C      1  0.4861980000000  0.5056060000000  0.5053600000000 1.0
C      1  0.5423890000000  0.4889460000000  0.4539090000000 1.0
C      1  0.4431050000000  0.4084330000000  0.5572720000000 1.0
C      1  0.4335490000000  0.5371080000000  0.4271210000000 1.0
C      1  0.4694140000000  0.4674950000000  0.4319710000000 1.0
C      1  0.4384580000000  0.5358350000000  0.5620460000000 1.0
C      1  0.4491070000000  0.4726970000000  0.5597530000000 1.0
C      1  0.5403140000000  0.5545170000000  0.4473800000000 1.0
C      1  0.4587250000000  0.5382770000000  0.5839820000000 1.0
C      1  0.4233150000000  0.4192160000000  0.4898040000000 1.0
C      1  0.5042070000000  0.3963900000000  0.5395680000000 1.0
C      1  0.4319320000000  0.5501580000000  0.4766780000000 1.0
C      1  0.5306660000000  0.5225300000000  0.4105150000000 1.0
C      1  0.4153180000000  0.5293590000000  0.4492800000000 1.0
C      1  0.5623660000000  0.4466010000000  0.5156020000000 1.0
C      1  0.5917430000000  0.4739500000000  0.4877980000000 1.0
C      1  0.4236930000000  0.4164580000000  0.5390300000000 1.0
C      1  0.5707890000000  0.4955720000000  0.5701830000000 1.0
C      1  0.4362370000000  0.5201750000000  0.4047700000000 1.0
C      1  0.4908750000000  0.5363230000000  0.5066910000000 1.0
C      1  0.5119370000000  0.6148090000000  0.5067860000000 1.0
C      1  0.4370130000000  0.5623970000000  0.5480030000000 1.0
C      1  0.4628620000000  0.5902670000000  0.4926800000000 1.0
C      1  0.4032430000000  0.5024720000000  0.4532380000000 1.0
C      1  0.5771930000000  0.4486120000000  0.4909840000000 1.0
C      1  0.5487100000000  0.4166250000000  0.4705600000000 1.0
C      1  0.4858370000000  0.4871920000000  0.5300750000000 1.0
C      1  0.4593690000000  0.5498240000000  0.4392740000000 1.0
C      1  0.4930790000000  0.4659460000000  0.4756040000000 1.0
C      1  0.5032200000000  0.5337440000000  0.4124380000000 1.0
C      1  0.4723690000000  0.4548660000000  0.4957830000000 1.0
C      1  0.4610170000000  0.4270980000000  0.4876680000000 1.0
C      1  0.4746880000000  0.5630030000000  0.5766590000000 1.0
C      1  0.5538570000000  0.5257620000000  0.5874080000000 1.0
C      1  0.4245920000000  0.4700390000000  0.5458600000000 1.0
C      1  0.5638480000000  0.5024570000000  0.5414950000000 1.0
C      1  0.5183020000000  0.4698160000000  0.4909850000000 1.0
C      1  0.4794370000000  0.5394510000000  0.5349650000000 1.0
END
