TITL C-950527-2551-444 -1.15716902637388e-06 125000 -1095.7306176365 0 0 174 (C1) n - 1
REM
REM in /home/bkarasulu/work/CARBON/AIRSS/Generating-Clusters/EDIP-Nigel-Params/with-SteepDescent/Only-C1/SD-CG/HFTN-CG
REM
REM
REM
REM
REM
REM ./C.cell (11c1c37f851c82e70ff6c80c92926a4b)
REM
REM compiler GCC version 9.2.1 20190827 (Red Hat 9.2.1-1)
REM options -cpp -mtune=generic -march=x86-64 -g -O0 -fpre-include=/usr/include/finclude/math-vector-fortran.h
REM seed -177959913 -546854942 411568256 1772847429 -631254322 -1306888880 -251832757 -555469226 -1698537347 -2108533332 -889352169 1326899496 945238980 1529443970 -278786983 -1267374837 2131718177 1294866374 16299148 -369622816 266986863 -224029852 167772362 -2052021131 -1741589378 641681313 -695158215 -281976932 -1851305491 -1592444125 862334500 1183993682 1883168747
REM
CELL 1.54180   50.00000   50.00000   50.00000   90.00000   90.00000   90.00000
LATT -1
SFAC C  
C      1  0.5463320000000  0.5136570000000  0.4652420000000 1.0
C      1  0.4411390000000  0.5091830000000  0.4088050000000 1.0
C      1  0.5540400000000  0.5632440000000  0.5830140000000 1.0
C      1  0.5316100000000  0.4409460000000  0.5759970000000 1.0
C      1  0.5486480000000  0.4882330000000  0.6009850000000 1.0
C      1  0.5337480000000  0.4614120000000  0.6009900000000 1.0
C      1  0.5049880000000  0.4665960000000  0.6072940000000 1.0
C      1  0.5213890000000  0.5171190000000  0.5540640000000 1.0
C      1  0.5751010000000  0.4203440000000  0.4683520000000 1.0
C      1  0.5156130000000  0.5041230000000  0.4048350000000 1.0
C      1  0.4500000000000  0.4598940000000  0.4977110000000 1.0
C      1  0.4464620000000  0.5984710000000  0.5081990000000 1.0
C      1  0.4452460000000  0.4356490000000  0.5503470000000 1.0
C      1  0.5406020000000  0.4637490000000  0.4739450000000 1.0
C      1  0.5300220000000  0.5802820000000  0.4238590000000 1.0
C      1  0.5548380000000  0.4290540000000  0.4268510000000 1.0
C      1  0.5058740000000  0.5562410000000  0.4738110000000 1.0
C      1  0.4931110000000  0.4778230000000  0.5240810000000 1.0
C      1  0.4305690000000  0.4603770000000  0.4245560000000 1.0
C      1  0.4961010000000  0.5198220000000  0.4471590000000 1.0
C      1  0.4962490000000  0.4271100000000  0.4238220000000 1.0
C      1  0.4506530000000  0.4317010000000  0.4564490000000 1.0
C      1  0.5572250000000  0.5175090000000  0.5148730000000 1.0
C      1  0.5698590000000  0.5647570000000  0.4610160000000 1.0
C      1  0.5308110000000  0.4897910000000  0.5674120000000 1.0
C      1  0.5987670000000  0.4925610000000  0.5316100000000 1.0
C      1  0.5819370000000  0.4733670000000  0.5678660000000 1.0
C      1  0.4896570000000  0.4359620000000  0.4864730000000 1.0
C      1  0.6070200000000  0.4971930000000  0.4859800000000 1.0
C      1  0.5545950000000  0.5382310000000  0.5965000000000 1.0
C      1  0.5335280000000  0.4473510000000  0.4179520000000 1.0
C      1  0.5628810000000  0.5475850000000  0.4361970000000 1.0
C      1  0.4574590000000  0.4205050000000  0.5259900000000 1.0
C      1  0.3939550000000  0.4808360000000  0.5217440000000 1.0
C      1  0.4865650000000  0.4322230000000  0.5859400000000 1.0
C      1  0.5553910000000  0.4757390000000  0.5512130000000 1.0
C      1  0.5812110000000  0.5410290000000  0.5031360000000 1.0
C      1  0.5797070000000  0.4920620000000  0.4372270000000 1.0
C      1  0.4664530000000  0.4518830000000  0.4743270000000 1.0
C      1  0.4772150000000  0.4693440000000  0.4094490000000 1.0
C      1  0.4517030000000  0.4081130000000  0.4766260000000 1.0
C      1  0.5856230000000  0.5411870000000  0.4734050000000 1.0
C      1  0.5100130000000  0.4493280000000  0.4397470000000 1.0
C      1  0.5606000000000  0.5769660000000  0.5345670000000 1.0
C      1  0.5284430000000  0.5692560000000  0.5681090000000 1.0
C      1  0.5992760000000  0.4969990000000  0.5615230000000 1.0
C      1  0.4513300000000  0.5415000000000  0.4764890000000 1.0
C      1  0.4888330000000  0.3920560000000  0.5112560000000 1.0
C      1  0.5113770000000  0.4023160000000  0.4367880000000 1.0
C      1  0.4987110000000  0.5448230000000  0.3990570000000 1.0
C      1  0.5428550000000  0.4032240000000  0.4356500000000 1.0
C      1  0.5039260000000  0.5834430000000  0.4337350000000 1.0
C      1  0.5530400000000  0.4911550000000  0.4255900000000 1.0
C      1  0.4789320000000  0.5267950000000  0.5149610000000 1.0
C      1  0.5302620000000  0.4438240000000  0.5248890000000 1.0
C      1  0.5383420000000  0.5159590000000  0.6020530000000 1.0
C      1  0.5378450000000  0.5573450000000  0.5405150000000 1.0
C      1  0.5990470000000  0.4637400000000  0.5264170000000 1.0
C      1  0.5185380000000  0.4422760000000  0.4686210000000 1.0
C      1  0.5459760000000  0.5286040000000  0.5406100000000 1.0
C      1  0.4350540000000  0.5203360000000  0.4954370000000 1.0
C      1  0.5461560000000  0.4715350000000  0.4047600000000 1.0
C      1  0.4231480000000  0.5420710000000  0.5563270000000 1.0
C      1  0.5462940000000  0.4465500000000  0.5502610000000 1.0
C      1  0.5115700000000  0.5212030000000  0.5962320000000 1.0
C      1  0.5058420000000  0.3962560000000  0.4659800000000 1.0
C      1  0.4660810000000  0.4276520000000  0.4297680000000 1.0
C      1  0.4582700000000  0.5621100000000  0.4190890000000 1.0
C      1  0.4344550000000  0.5811270000000  0.4871230000000 1.0
C      1  0.4916490000000  0.4734380000000  0.4364940000000 1.0
C      1  0.4403330000000  0.5124560000000  0.5958460000000 1.0
C      1  0.4233280000000  0.4439140000000  0.4477130000000 1.0
C      1  0.5707800000000  0.5693170000000  0.5080260000000 1.0
C      1  0.5971800000000  0.5478100000000  0.5620620000000 1.0
C      1  0.5716970000000  0.5213090000000  0.4531100000000 1.0
C      1  0.4893180000000  0.5156670000000  0.3946990000000 1.0
C      1  0.5151030000000  0.5414780000000  0.4503330000000 1.0
C      1  0.4252450000000  0.4894360000000  0.5521450000000 1.0
C      1  0.4585680000000  0.4911210000000  0.5863500000000 1.0
C      1  0.5308990000000  0.5964810000000  0.4819280000000 1.0
C      1  0.5015350000000  0.4551520000000  0.3958700000000 1.0
C      1  0.4825250000000  0.4054100000000  0.4836030000000 1.0
C      1  0.4671110000000  0.4974130000000  0.4006750000000 1.0
C      1  0.5791630000000  0.4296510000000  0.4963410000000 1.0
C      1  0.4299370000000  0.4784510000000  0.5793220000000 1.0
C      1  0.5342810000000  0.5515490000000  0.4281440000000 1.0
C      1  0.5614810000000  0.4859150000000  0.5204890000000 1.0
C      1  0.4749340000000  0.6005950000000  0.5017420000000 1.0
C      1  0.4688340000000  0.5967890000000  0.5617120000000 1.0
C      1  0.4966510000000  0.6088990000000  0.5193460000000 1.0
C      1  0.4877200000000  0.4547180000000  0.5641370000000 1.0
C      1  0.6130640000000  0.5479700000000  0.5393500000000 1.0
C      1  0.5026900000000  0.4026060000000  0.5522880000000 1.0
C      1  0.4035640000000  0.5299960000000  0.4535830000000 1.0
C      1  0.5122630000000  0.5071380000000  0.4932900000000 1.0
C      1  0.5006400000000  0.4500660000000  0.5343570000000 1.0
C      1  0.4440720000000  0.5806160000000  0.4375490000000 1.0
C      1  0.4769120000000  0.5547330000000  0.5519200000000 1.0
C      1  0.5424770000000  0.6020830000000  0.5345420000000 1.0
C      1  0.5913880000000  0.4490300000000  0.5508970000000 1.0
C      1  0.5132890000000  0.4820190000000  0.5039410000000 1.0
C      1  0.5365690000000  0.4080900000000  0.5091940000000 1.0
C      1  0.4003050000000  0.5435860000000  0.4809000000000 1.0
C      1  0.4070780000000  0.4557550000000  0.5197780000000 1.0
C      1  0.3995070000000  0.4982380000000  0.5449190000000 1.0
C      1  0.4507730000000  0.4966520000000  0.4578730000000 1.0
C      1  0.3973160000000  0.4977470000000  0.4979440000000 1.0
C      1  0.5510900000000  0.5723110000000  0.4850900000000 1.0
C      1  0.5312260000000  0.4071080000000  0.4788610000000 1.0
C      1  0.4962560000000  0.5400600000000  0.5348260000000 1.0
C      1  0.4696800000000  0.3945530000000  0.5337860000000 1.0
C      1  0.4373980000000  0.4174590000000  0.5021640000000 1.0
C      1  0.5282160000000  0.5519180000000  0.4929700000000 1.0
C      1  0.4938460000000  0.4988900000000  0.5461440000000 1.0
C      1  0.4241690000000  0.4449820000000  0.4995910000000 1.0
C      1  0.5275420000000  0.5365380000000  0.4030530000000 1.0
C      1  0.4324910000000  0.4484340000000  0.5747470000000 1.0
C      1  0.4891330000000  0.5111420000000  0.4753100000000 1.0
C      1  0.5389890000000  0.4682450000000  0.5055770000000 1.0
C      1  0.4031160000000  0.5273060000000  0.5382850000000 1.0
C      1  0.4873930000000  0.5610100000000  0.4215500000000 1.0
C      1  0.4737990000000  0.4775590000000  0.4604120000000 1.0
C      1  0.4901900000000  0.5377480000000  0.5947410000000 1.0
C      1  0.5098170000000  0.4967620000000  0.4347490000000 1.0
C      1  0.5692490000000  0.4287480000000  0.5460480000000 1.0
C      1  0.4090290000000  0.5697980000000  0.4848970000000 1.0
C      1  0.4540930000000  0.5099800000000  0.5183900000000 1.0
C      1  0.6135230000000  0.5081560000000  0.5112270000000 1.0
C      1  0.4548770000000  0.5678260000000  0.5391850000000 1.0
C      1  0.4823260000000  0.4355510000000  0.5162880000000 1.0
C      1  0.5368970000000  0.5223430000000  0.4915290000000 1.0
C      1  0.5000740000000  0.4784190000000  0.5789290000000 1.0
C      1  0.4316650000000  0.4959000000000  0.4800310000000 1.0
C      1  0.4417150000000  0.5930260000000  0.5364670000000 1.0
C      1  0.5235960000000  0.5981640000000  0.5584990000000 1.0
C      1  0.4901300000000  0.4430430000000  0.6117060000000 1.0
C      1  0.5246030000000  0.6066300000000  0.5100040000000 1.0
C      1  0.4163490000000  0.5744820000000  0.4369040000000 1.0
C      1  0.5048740000000  0.5856980000000  0.4649140000000 1.0
C      1  0.4614330000000  0.4780500000000  0.5200860000000 1.0
C      1  0.4161040000000  0.5464250000000  0.4331730000000 1.0
C      1  0.4052550000000  0.5005510000000  0.4448150000000 1.0
C      1  0.3755840000000  0.4917580000000  0.4796990000000 1.0
C      1  0.5883610000000  0.4562810000000  0.5011960000000 1.0
C      1  0.5119760000000  0.4035650000000  0.5250780000000 1.0
C      1  0.4795820000000  0.5380360000000  0.4872430000000 1.0
C      1  0.5212920000000  0.4779880000000  0.3894140000000 1.0
C      1  0.4237070000000  0.4898840000000  0.4235630000000 1.0
C      1  0.5649150000000  0.4166450000000  0.5182860000000 1.0
C      1  0.5164030000000  0.5578540000000  0.5203800000000 1.0
C      1  0.5748260000000  0.4399990000000  0.4465190000000 1.0
C      1  0.4686280000000  0.5048650000000  0.5623400000000 1.0
C      1  0.5547320000000  0.3994690000000  0.4630380000000 1.0
C      1  0.4023030000000  0.4553520000000  0.4624230000000 1.0
C      1  0.5932220000000  0.5221170000000  0.5726220000000 1.0
C      1  0.4599120000000  0.4624930000000  0.5526220000000 1.0
C      1  0.4407030000000  0.5385020000000  0.5815260000000 1.0
C      1  0.6083560000000  0.5367110000000  0.5143710000000 1.0
C      1  0.4554890000000  0.4497370000000  0.4134840000000 1.0
C      1  0.4690620000000  0.5811090000000  0.5867940000000 1.0
C      1  0.3895120000000  0.4802250000000  0.4583820000000 1.0
C      1  0.5362630000000  0.4898280000000  0.4513190000000 1.0
C      1  0.3983060000000  0.5269110000000  0.5065430000000 1.0
C      1  0.4572000000000  0.5253180000000  0.4503790000000 1.0
C      1  0.4956100000000  0.6046700000000  0.5485810000000 1.0
C      1  0.5949250000000  0.4727450000000  0.4790850000000 1.0
C      1  0.4784380000000  0.5949380000000  0.4738870000000 1.0
C      1  0.4695470000000  0.5523730000000  0.5806600000000 1.0
C      1  0.5754710000000  0.4690320000000  0.4569060000000 1.0
C      1  0.4545000000000  0.5786840000000  0.4655260000000 1.0
C      1  0.5105760000000  0.4185600000000  0.5757730000000 1.0
C      1  0.5754390000000  0.5679460000000  0.5624460000000 1.0
C      1  0.4438650000000  0.5117280000000  0.5467560000000 1.0
C      1  0.4428680000000  0.5358710000000  0.4249410000000 1.0
END
