TITL C-951337-3020-576 -2.27222852144404e-06 125000 -426.735984041485 0 0 71 (C1) n - 1
REM
REM in /home/bkarasulu/work/CARBON/AIRSS/Generating-Clusters/EDIP-Nigel-Params/with-SteepDescent/Only-C1/SD-CG/HFTN-CG
REM
REM
REM
REM
REM
REM ./C.cell (11c1c37f851c82e70ff6c80c92926a4b)
REM
REM compiler GCC version 9.2.1 20190827 (Red Hat 9.2.1-1)
REM options -cpp -mtune=generic -march=x86-64 -g -O0 -fpre-include=/usr/include/finclude/math-vector-fortran.h
REM seed -994339930 -1880214697 399918226 1740226824 -1601434464 153667547 -346586072 -1978220560 699476527 1111352155 459496936 -400351121 -1422808867 -1062598139 -1559398823 -317087110 -1765541419 100331952 -2074173576 1247351430 -1995155650 10541809 469952522 -1621874778 1090650936 602328630 -16972142 -1357196188 -1603046132 600048734 -1703212567 1719165942 315999268
REM
CELL 1.54180   50.00000   50.00000   50.00000   90.00000   90.00000   90.00000
LATT -1
SFAC C  
C      1  0.4226160000000  0.5189040000000  0.4710060000000 1.0
C      1  0.4659170000000  0.5227310000000  0.5522230000000 1.0
C      1  0.4893440000000  0.5161270000000  0.5685110000000 1.0
C      1  0.5235450000000  0.5528010000000  0.4909810000000 1.0
C      1  0.5282470000000  0.4838900000000  0.5630070000000 1.0
C      1  0.4343560000000  0.5329810000000  0.4926510000000 1.0
C      1  0.4984140000000  0.4884650000000  0.5637740000000 1.0
C      1  0.5095480000000  0.4415180000000  0.4390770000000 1.0
C      1  0.5140190000000  0.5321540000000  0.4739540000000 1.0
C      1  0.4540010000000  0.5080210000000  0.4371870000000 1.0
C      1  0.4824470000000  0.5860340000000  0.5160390000000 1.0
C      1  0.5499370000000  0.5605730000000  0.4901850000000 1.0
C      1  0.4703900000000  0.5302540000000  0.4350100000000 1.0
C      1  0.4819250000000  0.4219380000000  0.5046390000000 1.0
C      1  0.4040730000000  0.5005630000000  0.5285110000000 1.0
C      1  0.5471550000000  0.5063480000000  0.5623150000000 1.0
C      1  0.4384250000000  0.4800250000000  0.5564820000000 1.0
C      1  0.5304510000000  0.4564260000000  0.4506740000000 1.0
C      1  0.5910690000000  0.5370660000000  0.5335860000000 1.0
C      1  0.5883520000000  0.4856040000000  0.4861670000000 1.0
C      1  0.5972310000000  0.5052320000000  0.5036930000000 1.0
C      1  0.4564700000000  0.4353860000000  0.4949150000000 1.0
C      1  0.5655120000000  0.4663730000000  0.5412840000000 1.0
C      1  0.4257750000000  0.5155190000000  0.5325750000000 1.0
C      1  0.5095880000000  0.5485040000000  0.5158670000000 1.0
C      1  0.5368290000000  0.5318100000000  0.5690880000000 1.0
C      1  0.4499400000000  0.4602380000000  0.5110740000000 1.0
C      1  0.5421040000000  0.5247980000000  0.4342810000000 1.0
C      1  0.4860430000000  0.4798740000000  0.5382130000000 1.0
C      1  0.4726700000000  0.4881670000000  0.4486300000000 1.0
C      1  0.4486440000000  0.5162130000000  0.5122080000000 1.0
C      1  0.4535470000000  0.5679030000000  0.4665840000000 1.0
C      1  0.5066900000000  0.4764950000000  0.5177120000000 1.0
C      1  0.4638440000000  0.4384790000000  0.4640630000000 1.0
C      1  0.4737950000000  0.4533280000000  0.5407790000000 1.0
C      1  0.4456840000000  0.5596260000000  0.4920240000000 1.0
C      1  0.4294800000000  0.4725150000000  0.4564410000000 1.0
C      1  0.5387530000000  0.4602460000000  0.5480150000000 1.0
C      1  0.4937050000000  0.5609140000000  0.5554250000000 1.0
C      1  0.4914170000000  0.4271010000000  0.4544610000000 1.0
C      1  0.5646410000000  0.4492790000000  0.4644590000000 1.0
C      1  0.5957080000000  0.5428450000000  0.5057130000000 1.0
C      1  0.4827840000000  0.5309090000000  0.5123140000000 1.0
C      1  0.4408590000000  0.5079830000000  0.5551750000000 1.0
C      1  0.4937170000000  0.4328560000000  0.5297570000000 1.0
C      1  0.4632390000000  0.5640520000000  0.5171520000000 1.0
C      1  0.5041810000000  0.5738090000000  0.5306050000000 1.0
C      1  0.5059380000000  0.4934600000000  0.4301030000000 1.0
C      1  0.5667440000000  0.4944240000000  0.5435200000000 1.0
C      1  0.4657500000000  0.5518440000000  0.5468250000000 1.0
C      1  0.5737170000000  0.4770890000000  0.4638680000000 1.0
C      1  0.4980080000000  0.4336630000000  0.4825480000000 1.0
C      1  0.5209400000000  0.4511370000000  0.5248120000000 1.0
C      1  0.4984980000000  0.4718590000000  0.4894810000000 1.0
C      1  0.4635460000000  0.5554580000000  0.4449710000000 1.0
C      1  0.5366550000000  0.4469100000000  0.4982940000000 1.0
C      1  0.5180140000000  0.5370370000000  0.4449190000000 1.0
C      1  0.5760700000000  0.5562830000000  0.4920910000000 1.0
C      1  0.4784890000000  0.4932300000000  0.4789010000000 1.0
C      1  0.4977780000000  0.5215250000000  0.4304570000000 1.0
C      1  0.4431100000000  0.4568360000000  0.5415050000000 1.0
C      1  0.4289700000000  0.4918880000000  0.4766070000000 1.0
C      1  0.5521340000000  0.4945760000000  0.4559760000000 1.0
C      1  0.5892300000000  0.5085260000000  0.5320330000000 1.0
C      1  0.5354610000000  0.4959340000000  0.4313400000000 1.0
C      1  0.5624300000000  0.4379340000000  0.4905230000000 1.0
C      1  0.5264510000000  0.4666100000000  0.4785760000000 1.0
C      1  0.4888280000000  0.5210910000000  0.4844660000000 1.0
C      1  0.5093410000000  0.5366290000000  0.5640930000000 1.0
C      1  0.4552310000000  0.4636420000000  0.4498280000000 1.0
C      1  0.4515880000000  0.4895370000000  0.4957750000000 1.0
END
