TITL C-950521-2237-155 0.0161174549534825 125000 -187.581871500652 0 0 33 (C1) n - 1
REM
REM in /home/bkarasulu/work/CARBON/AIRSS/Generating-Clusters/EDIP-Nigel-Params/with-SteepDescent/Only-C1/SD-CG/HFTN-CG
REM
REM
REM
REM
REM
REM ./C.cell (11c1c37f851c82e70ff6c80c92926a4b)
REM
REM compiler GCC version 9.2.1 20190827 (Red Hat 9.2.1-1)
REM options -cpp -mtune=generic -march=x86-64 -g -O0 -fpre-include=/usr/include/finclude/math-vector-fortran.h
REM seed 771017205 -888308267 -301373174 -1281311242 1474522789 -30750677 -288659354 1760171056 427038251 645765637 -891965213 430952364 199878894 -1245610942 246714033 733982441 1194753573 -665375566 -1754486439 -1185944734 -1961271815 -1465124107 1824712202 652571195 -2000960519 1669174786 805116933 -421824886 -166142529 -1948402372 -2084121705 -696033709 -69446010
REM
CELL 1.54180   50.00000   50.00000   50.00000   90.00000   90.00000   90.00000
LATT -1
SFAC C  
C      1  0.4981690000000  0.5400870000000  0.4569860000000 1.0
C      1  0.5036280000000  0.5514490000000  0.4821880000000 1.0
C      1  0.5167010000000  0.4592000000000  0.4520150000000 1.0
C      1  0.5439890000000  0.4947930000000  0.4747150000000 1.0
C      1  0.5491520000000  0.4548660000000  0.4924840000000 1.0
C      1  0.3743650000000  0.4978950000000  0.5501320000000 1.0
C      1  0.4867770000000  0.4655650000000  0.5079770000000 1.0
C      1  0.5288080000000  0.4406380000000  0.5052410000000 1.0
C      1  0.5175720000000  0.5048470000000  0.4841150000000 1.0
C      1  0.5540240000000  0.4909820000000  0.5311480000000 1.0
C      1  0.5137100000000  0.5035810000000  0.5518320000000 1.0
C      1  0.4393170000000  0.5268450000000  0.5311750000000 1.0
C      1  0.5577340000000  0.5187540000000  0.5321890000000 1.0
C      1  0.4159900000000  0.5143910000000  0.5316100000000 1.0
C      1  0.5061040000000  0.5170370000000  0.4431360000000 1.0
C      1  0.5545140000000  0.5119980000000  0.4536510000000 1.0
C      1  0.5208240000000  0.5318240000000  0.4942590000000 1.0
C      1  0.4844870000000  0.5549940000000  0.5034810000000 1.0
C      1  0.4737630000000  0.4419150000000  0.5173600000000 1.0
C      1  0.5287760000000  0.4840870000000  0.4248960000000 1.0
C      1  0.5311470000000  0.4835190000000  0.5456700000000 1.0
C      1  0.5603280000000  0.4786210000000  0.5058590000000 1.0
C      1  0.5017340000000  0.4396880000000  0.5117630000000 1.0
C      1  0.4874000000000  0.5345890000000  0.5235170000000 1.0
C      1  0.5014830000000  0.4876040000000  0.4991690000000 1.0
C      1  0.5110480000000  0.5290690000000  0.5401460000000 1.0
C      1  0.5027480000000  0.4792760000000  0.4366910000000 1.0
C      1  0.5415880000000  0.4656860000000  0.4655130000000 1.0
C      1  0.5336530000000  0.5108770000000  0.4346240000000 1.0
C      1  0.3681850000000  0.5086330000000  0.5261900000000 1.0
C      1  0.3941670000000  0.4978930000000  0.5298430000000 1.0
C      1  0.4616160000000  0.5422950000000  0.5323490000000 1.0
C      1  0.5365000000000  0.5365010000000  0.5280750000000 1.0
END
