TITL C-951347-9520-554 -1.47184339368589e-06 125000 -1229.58402478123 0 0 195 (C1) n - 1
REM
REM in /home/bkarasulu/work/CARBON/AIRSS/Generating-Clusters/EDIP-Nigel-Params/with-SteepDescent/Only-C1/SD-CG/HFTN-CG
REM
REM
REM
REM
REM
REM ./C.cell (11c1c37f851c82e70ff6c80c92926a4b)
REM
REM compiler GCC version 9.2.1 20190827 (Red Hat 9.2.1-1)
REM options -cpp -mtune=generic -march=x86-64 -g -O0 -fpre-include=/usr/include/finclude/math-vector-fortran.h
REM seed -1272082441 1967622830 1454316729 425435061 99735008 -1648354900 -749061797 1011871440 1336749244 684207064 -1920882541 1967674324 -696764522 1528031779 918388559 1414210244 -381904764 -207945998 -81944409 -1622958530 -933454464 1724188090 1715600860 -707106449 1319363789 -1169163314 2039181373 1559317584 -38764478 129374347 -1176219056 -865029895 818956730
REM
CELL 1.54180   50.00000   50.00000   50.00000   90.00000   90.00000   90.00000
LATT -1
SFAC C  
C      1  0.3927470000000  0.5206990000000  0.5157600000000 1.0
C      1  0.4222320000000  0.5100980000000  0.5707770000000 1.0
C      1  0.4996660000000  0.5783500000000  0.5208670000000 1.0
C      1  0.4826380000000  0.3968680000000  0.4611750000000 1.0
C      1  0.5699470000000  0.4667590000000  0.5833260000000 1.0
C      1  0.5895420000000  0.5669640000000  0.4504720000000 1.0
C      1  0.4792730000000  0.4257190000000  0.4231650000000 1.0
C      1  0.5029450000000  0.4907380000000  0.4984620000000 1.0
C      1  0.6217880000000  0.5301210000000  0.4580240000000 1.0
C      1  0.5203060000000  0.4212740000000  0.5791700000000 1.0
C      1  0.6083410000000  0.5481480000000  0.4419040000000 1.0
C      1  0.5140210000000  0.5188630000000  0.3906920000000 1.0
C      1  0.6101990000000  0.5024050000000  0.4599610000000 1.0
C      1  0.5265800000000  0.4642220000000  0.5651010000000 1.0
C      1  0.3858590000000  0.4534040000000  0.4948500000000 1.0
C      1  0.5693750000000  0.4054830000000  0.4737800000000 1.0
C      1  0.4978940000000  0.5466880000000  0.4573490000000 1.0
C      1  0.4217150000000  0.4184590000000  0.4630390000000 1.0
C      1  0.4624540000000  0.4857870000000  0.5168720000000 1.0
C      1  0.5573000000000  0.5600660000000  0.4078220000000 1.0
C      1  0.4844680000000  0.5301210000000  0.5320600000000 1.0
C      1  0.5424810000000  0.5091970000000  0.5924410000000 1.0
C      1  0.6083740000000  0.5151430000000  0.5255140000000 1.0
C      1  0.4039210000000  0.5344020000000  0.5674200000000 1.0
C      1  0.4122040000000  0.5699360000000  0.5313220000000 1.0
C      1  0.5055670000000  0.5546260000000  0.5019700000000 1.0
C      1  0.5048330000000  0.6032950000000  0.5057440000000 1.0
C      1  0.4931100000000  0.5668170000000  0.5705280000000 1.0
C      1  0.4822550000000  0.5547940000000  0.3889320000000 1.0
C      1  0.5336080000000  0.4357360000000  0.5107520000000 1.0
C      1  0.4458760000000  0.5487480000000  0.5846990000000 1.0
C      1  0.5772100000000  0.5556320000000  0.5770160000000 1.0
C      1  0.5297800000000  0.5686120000000  0.3974600000000 1.0
C      1  0.5235370000000  0.5112570000000  0.4854600000000 1.0
C      1  0.5776140000000  0.4547540000000  0.5581690000000 1.0
C      1  0.5110230000000  0.5776500000000  0.5494220000000 1.0
C      1  0.4576640000000  0.3929580000000  0.5344600000000 1.0
C      1  0.5209990000000  0.5087200000000  0.5434280000000 1.0
C      1  0.4144660000000  0.4809700000000  0.5720890000000 1.0
C      1  0.4762900000000  0.4643270000000  0.5305110000000 1.0
C      1  0.5595850000000  0.5912550000000  0.5397130000000 1.0
C      1  0.4597120000000  0.4751200000000  0.4148710000000 1.0
C      1  0.3736920000000  0.4945360000000  0.4820160000000 1.0
C      1  0.5329350000000  0.5380050000000  0.5858160000000 1.0
C      1  0.5033600000000  0.4680480000000  0.5208770000000 1.0
C      1  0.4509880000000  0.4695110000000  0.6046460000000 1.0
C      1  0.4618740000000  0.5644330000000  0.5645550000000 1.0
C      1  0.5834280000000  0.5575200000000  0.5237220000000 1.0
C      1  0.4914580000000  0.5372600000000  0.6064330000000 1.0
C      1  0.5195660000000  0.4479760000000  0.5359060000000 1.0
C      1  0.4963180000000  0.4867740000000  0.5990230000000 1.0
C      1  0.5950830000000  0.5376450000000  0.5654990000000 1.0
C      1  0.5812620000000  0.5330440000000  0.4867550000000 1.0
C      1  0.4958180000000  0.5190800000000  0.5569010000000 1.0
C      1  0.5809090000000  0.5143210000000  0.5124640000000 1.0
C      1  0.4750020000000  0.5310420000000  0.6270230000000 1.0
C      1  0.4572100000000  0.5117360000000  0.6168590000000 1.0
C      1  0.4109320000000  0.5496050000000  0.4365210000000 1.0
C      1  0.4965180000000  0.4755760000000  0.4720710000000 1.0
C      1  0.5545940000000  0.6089540000000  0.5185680000000 1.0
C      1  0.6224070000000  0.4891290000000  0.4838290000000 1.0
C      1  0.5634080000000  0.5718330000000  0.4364330000000 1.0
C      1  0.5983280000000  0.4672530000000  0.5427940000000 1.0
C      1  0.5386060000000  0.4916440000000  0.5581730000000 1.0
C      1  0.5548040000000  0.4538890000000  0.4096340000000 1.0
C      1  0.5812780000000  0.4336380000000  0.5153370000000 1.0
C      1  0.6176680000000  0.5373520000000  0.4858260000000 1.0
C      1  0.4620670000000  0.3929210000000  0.4809210000000 1.0
C      1  0.5807100000000  0.5078810000000  0.4690210000000 1.0
C      1  0.5118230000000  0.5196480000000  0.4566200000000 1.0
C      1  0.4369420000000  0.5308510000000  0.4991180000000 1.0
C      1  0.5536820000000  0.5488380000000  0.4834970000000 1.0
C      1  0.4459170000000  0.4407150000000  0.5673720000000 1.0
C      1  0.4708520000000  0.4859310000000  0.6150330000000 1.0
C      1  0.4872330000000  0.4880240000000  0.4209600000000 1.0
C      1  0.4701040000000  0.5024670000000  0.5633880000000 1.0
C      1  0.4009170000000  0.4724290000000  0.5475550000000 1.0
C      1  0.4126640000000  0.4617310000000  0.5069310000000 1.0
C      1  0.5479680000000  0.4930540000000  0.4834300000000 1.0
C      1  0.4406360000000  0.5363870000000  0.5289600000000 1.0
C      1  0.4893620000000  0.6015960000000  0.4796980000000 1.0
C      1  0.4521780000000  0.5239060000000  0.4407540000000 1.0
C      1  0.4189300000000  0.5055630000000  0.5016550000000 1.0
C      1  0.5376440000000  0.5019390000000  0.3915950000000 1.0
C      1  0.4181510000000  0.5540130000000  0.5822030000000 1.0
C      1  0.4790840000000  0.5092910000000  0.5089650000000 1.0
C      1  0.5125790000000  0.5969870000000  0.4614080000000 1.0
C      1  0.4898370000000  0.4973790000000  0.4515160000000 1.0
C      1  0.4881870000000  0.4164320000000  0.5121060000000 1.0
C      1  0.5235320000000  0.4925460000000  0.6101790000000 1.0
C      1  0.5362810000000  0.5293450000000  0.5289200000000 1.0
C      1  0.4980450000000  0.4647950000000  0.5780420000000 1.0
C      1  0.5277500000000  0.3996980000000  0.5383840000000 1.0
C      1  0.4747400000000  0.3891490000000  0.5084560000000 1.0
C      1  0.4939810000000  0.4437610000000  0.4027230000000 1.0
C      1  0.4340740000000  0.5835420000000  0.5467370000000 1.0
C      1  0.5425040000000  0.4008080000000  0.4645920000000 1.0
C      1  0.4209070000000  0.4546730000000  0.4305790000000 1.0
C      1  0.4271340000000  0.4287090000000  0.5490350000000 1.0
C      1  0.5894780000000  0.5092150000000  0.5675330000000 1.0
C      1  0.4651650000000  0.4361330000000  0.5169670000000 1.0
C      1  0.3878410000000  0.4543910000000  0.4661650000000 1.0
C      1  0.4956920000000  0.4355480000000  0.5853480000000 1.0
C      1  0.5393390000000  0.4709440000000  0.4607730000000 1.0
C      1  0.5790790000000  0.4441700000000  0.4543900000000 1.0
C      1  0.5302350000000  0.5370390000000  0.5006180000000 1.0
C      1  0.4399340000000  0.5109460000000  0.5452060000000 1.0
C      1  0.5054060000000  0.4231620000000  0.4877770000000 1.0
C      1  0.4648030000000  0.5817560000000  0.4790150000000 1.0
C      1  0.4824420000000  0.5515720000000  0.4820770000000 1.0
C      1  0.4025330000000  0.4890200000000  0.4750670000000 1.0
C      1  0.4686770000000  0.5292270000000  0.3976240000000 1.0
C      1  0.5811270000000  0.5831100000000  0.5081150000000 1.0
C      1  0.5021860000000  0.4162720000000  0.5387420000000 1.0
C      1  0.5713000000000  0.4965940000000  0.5869350000000 1.0
C      1  0.4341320000000  0.4615480000000  0.5840960000000 1.0
C      1  0.6263040000000  0.5137180000000  0.5017030000000 1.0
C      1  0.3719000000000  0.4777050000000  0.5049720000000 1.0
C      1  0.3956210000000  0.5291760000000  0.4520250000000 1.0
C      1  0.4498560000000  0.5188340000000  0.5878040000000 1.0
C      1  0.6056290000000  0.4948670000000  0.5479210000000 1.0
C      1  0.4700740000000  0.4239210000000  0.5747450000000 1.0
C      1  0.4163750000000  0.5757330000000  0.5021900000000 1.0
C      1  0.4710100000000  0.5734850000000  0.5219820000000 1.0
C      1  0.5033640000000  0.5405770000000  0.5806980000000 1.0
C      1  0.4835360000000  0.5756380000000  0.4103410000000 1.0
C      1  0.4444740000000  0.4819380000000  0.4630910000000 1.0
C      1  0.6048550000000  0.5432530000000  0.5378710000000 1.0
C      1  0.4399300000000  0.5937800000000  0.4987470000000 1.0
C      1  0.4643220000000  0.5501900000000  0.5371710000000 1.0
C      1  0.5114360000000  0.5766880000000  0.4195390000000 1.0
C      1  0.5257540000000  0.4152290000000  0.4431570000000 1.0
C      1  0.5332910000000  0.4744630000000  0.4008960000000 1.0
C      1  0.5399300000000  0.5764720000000  0.5545740000000 1.0
C      1  0.4787030000000  0.4029750000000  0.5553050000000 1.0
C      1  0.5780670000000  0.4623900000000  0.4308150000000 1.0
C      1  0.5439810000000  0.4561250000000  0.5905770000000 1.0
C      1  0.5255110000000  0.3990290000000  0.4878230000000 1.0
C      1  0.5395960000000  0.4306190000000  0.4213660000000 1.0
C      1  0.5414030000000  0.4154750000000  0.5594560000000 1.0
C      1  0.5373730000000  0.6088910000000  0.4724430000000 1.0
C      1  0.5662830000000  0.4297430000000  0.5476610000000 1.0
C      1  0.4435040000000  0.5230150000000  0.4136020000000 1.0
C      1  0.4122560000000  0.4846370000000  0.4243350000000 1.0
C      1  0.4188680000000  0.5515090000000  0.4847430000000 1.0
C      1  0.5507430000000  0.5320610000000  0.4107540000000 1.0
C      1  0.5578130000000  0.4504600000000  0.5021530000000 1.0
C      1  0.6069580000000  0.4647500000000  0.4917080000000 1.0
C      1  0.4491050000000  0.4624650000000  0.4398880000000 1.0
C      1  0.4211580000000  0.5414200000000  0.4112420000000 1.0
C      1  0.5645200000000  0.5265310000000  0.5357160000000 1.0
C      1  0.4358910000000  0.4942200000000  0.4076440000000 1.0
C      1  0.4628660000000  0.5792510000000  0.4288510000000 1.0
C      1  0.5163580000000  0.5691380000000  0.4487020000000 1.0
C      1  0.5640140000000  0.5080670000000  0.4450830000000 1.0
C      1  0.5547850000000  0.4814000000000  0.4374810000000 1.0
C      1  0.3929420000000  0.5367400000000  0.4814570000000 1.0
C      1  0.4293520000000  0.5580690000000  0.4573390000000 1.0
C      1  0.5182910000000  0.4539740000000  0.4436310000000 1.0
C      1  0.4047160000000  0.4447320000000  0.5405460000000 1.0
C      1  0.4378910000000  0.4649260000000  0.4873160000000 1.0
C      1  0.5404430000000  0.4056930000000  0.5127860000000 1.0
C      1  0.4336640000000  0.4894010000000  0.5238870000000 1.0
C      1  0.4892740000000  0.5093630000000  0.4004870000000 1.0
C      1  0.5085430000000  0.4659810000000  0.4163410000000 1.0
C      1  0.5627950000000  0.6004470000000  0.4620500000000 1.0
C      1  0.5544120000000  0.4792670000000  0.5098440000000 1.0
C      1  0.5429310000000  0.5275390000000  0.4391160000000 1.0
C      1  0.5333910000000  0.6043640000000  0.5001360000000 1.0
C      1  0.5117500000000  0.5476000000000  0.3823230000000 1.0
C      1  0.5816210000000  0.5825840000000  0.4765670000000 1.0
C      1  0.4971860000000  0.4064130000000  0.4387920000000 1.0
C      1  0.4624220000000  0.5072100000000  0.4611690000000 1.0
C      1  0.4423690000000  0.4159700000000  0.4821510000000 1.0
C      1  0.5498270000000  0.5590110000000  0.5753470000000 1.0
C      1  0.5898540000000  0.4185050000000  0.4891920000000 1.0
C      1  0.4500070000000  0.5779800000000  0.4532500000000 1.0
C      1  0.4519660000000  0.5952010000000  0.5263470000000 1.0
C      1  0.4570520000000  0.4418050000000  0.4887350000000 1.0
C      1  0.4649640000000  0.5249370000000  0.4869380000000 1.0
C      1  0.4756630000000  0.4725470000000  0.5597130000000 1.0
C      1  0.5563690000000  0.4504000000000  0.4721980000000 1.0
C      1  0.5352820000000  0.4675010000000  0.6148700000000 1.0
C      1  0.6037780000000  0.4532670000000  0.5181990000000 1.0
C      1  0.4060070000000  0.4384270000000  0.4505980000000 1.0
C      1  0.4080750000000  0.5023590000000  0.4490430000000 1.0
C      1  0.5447750000000  0.5549490000000  0.4536320000000 1.0
C      1  0.3985010000000  0.5427450000000  0.5388170000000 1.0
C      1  0.4689320000000  0.4414240000000  0.4459160000000 1.0
C      1  0.4847550000000  0.4462940000000  0.4713280000000 1.0
C      1  0.6025280000000  0.4414130000000  0.4730840000000 1.0
C      1  0.4667210000000  0.4518800000000  0.3972620000000 1.0
C      1  0.3861210000000  0.4906320000000  0.5276840000000 1.0
C      1  0.4419160000000  0.4172150000000  0.5265360000000 1.0
C      1  0.5628680000000  0.4907530000000  0.5375700000000 1.0
END
