TITL C-950524-1808-538 -2.67573636661704e-06 125000 -1239.89242377386 0 0 198 (C1) n - 1
REM
REM in /home/bkarasulu/work/CARBON/AIRSS/Generating-Clusters/EDIP-Nigel-Params/with-SteepDescent/Only-C1/SD-CG/HFTN-CG
REM
REM
REM
REM
REM
REM ./C.cell (11c1c37f851c82e70ff6c80c92926a4b)
REM
REM compiler GCC version 9.2.1 20190827 (Red Hat 9.2.1-1)
REM options -cpp -mtune=generic -march=x86-64 -g -O0 -fpre-include=/usr/include/finclude/math-vector-fortran.h
REM seed 374454891 397876573 1153832709 1012421022 -60880507 -1297229208 -1390792943 1967311256 835742521 327261768 -238791664 874340575 -1110146067 783808776 2118138208 2090456967 1213425043 1397932739 1702953984 530744267 -1997430349 -2032566730 -1907012793 -1130869038 -154437665 -1364480771 822375411 1304055622 -81242971 -720687849 134600739 -999415874 -611433291
REM
CELL 1.54180   50.00000   50.00000   50.00000   90.00000   90.00000   90.00000
LATT -1
SFAC C  
C      1  0.3971020000000  0.5109440000000  0.5438010000000 1.0
C      1  0.4669590000000  0.4920940000000  0.6084260000000 1.0
C      1  0.5216800000000  0.4804700000000  0.3812470000000 1.0
C      1  0.4259760000000  0.5341190000000  0.4980760000000 1.0
C      1  0.5483390000000  0.5392090000000  0.5446710000000 1.0
C      1  0.4882670000000  0.5082540000000  0.6193250000000 1.0
C      1  0.5830240000000  0.4603010000000  0.5380710000000 1.0
C      1  0.4920710000000  0.5028120000000  0.4625510000000 1.0
C      1  0.5180090000000  0.5711480000000  0.4652050000000 1.0
C      1  0.5033220000000  0.4820950000000  0.4799940000000 1.0
C      1  0.4614840000000  0.6191910000000  0.5257860000000 1.0
C      1  0.5327690000000  0.5242050000000  0.6054940000000 1.0
C      1  0.5858530000000  0.4292870000000  0.5037480000000 1.0
C      1  0.3915010000000  0.4475850000000  0.4960550000000 1.0
C      1  0.5503900000000  0.4517200000000  0.4604860000000 1.0
C      1  0.5957460000000  0.5474620000000  0.5362080000000 1.0
C      1  0.4655660000000  0.4884180000000  0.5018460000000 1.0
C      1  0.5337210000000  0.4424320000000  0.4007980000000 1.0
C      1  0.3923850000000  0.4568790000000  0.4675520000000 1.0
C      1  0.5650430000000  0.4757420000000  0.5578950000000 1.0
C      1  0.5800750000000  0.5688440000000  0.5464860000000 1.0
C      1  0.5711660000000  0.4993980000000  0.4632220000000 1.0
C      1  0.4591740000000  0.4168640000000  0.5511080000000 1.0
C      1  0.4454450000000  0.5052500000000  0.5929290000000 1.0
C      1  0.4387270000000  0.5415540000000  0.4043990000000 1.0
C      1  0.5948910000000  0.5258770000000  0.5558350000000 1.0
C      1  0.5320630000000  0.4267240000000  0.6000720000000 1.0
C      1  0.5971500000000  0.4530830000000  0.4898550000000 1.0
C      1  0.5548470000000  0.5075860000000  0.5403840000000 1.0
C      1  0.5050140000000  0.5676910000000  0.5375800000000 1.0
C      1  0.4453840000000  0.4760850000000  0.3989800000000 1.0
C      1  0.5564280000000  0.5803380000000  0.5577710000000 1.0
C      1  0.5197870000000  0.4082450000000  0.4636650000000 1.0
C      1  0.4806510000000  0.5319810000000  0.5140650000000 1.0
C      1  0.4876640000000  0.4209360000000  0.4309870000000 1.0
C      1  0.5372680000000  0.5688800000000  0.5774560000000 1.0
C      1  0.4800770000000  0.4388830000000  0.5977860000000 1.0
C      1  0.4388830000000  0.5983020000000  0.4825790000000 1.0
C      1  0.5396620000000  0.5144100000000  0.4923550000000 1.0
C      1  0.4725380000000  0.5444210000000  0.5793860000000 1.0
C      1  0.5074880000000  0.5835750000000  0.5788720000000 1.0
C      1  0.5471190000000  0.5777450000000  0.4656710000000 1.0
C      1  0.5474170000000  0.4187390000000  0.5758560000000 1.0
C      1  0.4601370000000  0.5058400000000  0.4191440000000 1.0
C      1  0.3985050000000  0.5570670000000  0.4630620000000 1.0
C      1  0.5154170000000  0.4812590000000  0.5855760000000 1.0
C      1  0.6098190000000  0.4745670000000  0.5337160000000 1.0
C      1  0.4939560000000  0.4745060000000  0.3838490000000 1.0
C      1  0.4105190000000  0.4369060000000  0.4525960000000 1.0
C      1  0.5197830000000  0.5556190000000  0.4157810000000 1.0
C      1  0.4800630000000  0.4358640000000  0.4991600000000 1.0
C      1  0.5332140000000  0.4363720000000  0.5000540000000 1.0
C      1  0.4743620000000  0.5574090000000  0.4338550000000 1.0
C      1  0.4509570000000  0.4183140000000  0.5047230000000 1.0
C      1  0.4395980000000  0.4591800000000  0.5279190000000 1.0
C      1  0.6196110000000  0.5222580000000  0.4936360000000 1.0
C      1  0.4044940000000  0.4877980000000  0.5612820000000 1.0
C      1  0.5110280000000  0.5427110000000  0.3895310000000 1.0
C      1  0.5491010000000  0.5534720000000  0.4198800000000 1.0
C      1  0.3889600000000  0.4687720000000  0.5178150000000 1.0
C      1  0.5456680000000  0.4812520000000  0.4587770000000 1.0
C      1  0.4811390000000  0.5571370000000  0.4950800000000 1.0
C      1  0.4730200000000  0.4623800000000  0.3984900000000 1.0
C      1  0.5389910000000  0.4654210000000  0.5072250000000 1.0
C      1  0.6180790000000  0.4690510000000  0.5053020000000 1.0
C      1  0.4505790000000  0.4838640000000  0.5464790000000 1.0
C      1  0.6185020000000  0.4997620000000  0.4534600000000 1.0
C      1  0.5693250000000  0.4696270000000  0.5119000000000 1.0
C      1  0.4486180000000  0.4919760000000  0.4466980000000 1.0
C      1  0.5584760000000  0.4203160000000  0.5070240000000 1.0
C      1  0.5311440000000  0.4861350000000  0.4851630000000 1.0
C      1  0.5992960000000  0.5407540000000  0.5069170000000 1.0
C      1  0.4340820000000  0.5744120000000  0.5236580000000 1.0
C      1  0.5052870000000  0.5290970000000  0.4602630000000 1.0
C      1  0.4492140000000  0.5033160000000  0.5234850000000 1.0
C      1  0.5879590000000  0.5569500000000  0.4856730000000 1.0
C      1  0.4062050000000  0.5577780000000  0.4914140000000 1.0
C      1  0.5762340000000  0.4717500000000  0.5853360000000 1.0
C      1  0.5251740000000  0.5087140000000  0.3771840000000 1.0
C      1  0.5416210000000  0.6085090000000  0.4674560000000 1.0
C      1  0.4753760000000  0.5868210000000  0.4442850000000 1.0
C      1  0.4992340000000  0.5943640000000  0.4627080000000 1.0
C      1  0.5760080000000  0.4252110000000  0.5722030000000 1.0
C      1  0.4556700000000  0.4616830000000  0.4493420000000 1.0
C      1  0.5095560000000  0.5254820000000  0.5241510000000 1.0
C      1  0.5420850000000  0.4245850000000  0.4218960000000 1.0
C      1  0.4967030000000  0.4386980000000  0.5571490000000 1.0
C      1  0.4823880000000  0.5399650000000  0.3883240000000 1.0
C      1  0.5363960000000  0.4089340000000  0.5503500000000 1.0
C      1  0.4069140000000  0.5199050000000  0.4341700000000 1.0
C      1  0.4901230000000  0.5137110000000  0.4158980000000 1.0
C      1  0.4322590000000  0.4477620000000  0.4343220000000 1.0
C      1  0.4559420000000  0.4522900000000  0.4780620000000 1.0
C      1  0.3899230000000  0.5285060000000  0.4565660000000 1.0
C      1  0.4602440000000  0.5891520000000  0.5693930000000 1.0
C      1  0.5714520000000  0.5261820000000  0.4467900000000 1.0
C      1  0.4327030000000  0.4866960000000  0.5726750000000 1.0
C      1  0.4945290000000  0.4640370000000  0.5381950000000 1.0
C      1  0.5607570000000  0.5650140000000  0.4893160000000 1.0
C      1  0.4755910000000  0.5666630000000  0.5419440000000 1.0
C      1  0.4644360000000  0.5551000000000  0.4051110000000 1.0
C      1  0.4228930000000  0.5410450000000  0.5735960000000 1.0
C      1  0.5262680000000  0.4375310000000  0.4707010000000 1.0
C      1  0.5716880000000  0.5304110000000  0.5742510000000 1.0
C      1  0.5639580000000  0.5646380000000  0.4430380000000 1.0
C      1  0.5750820000000  0.4850390000000  0.4181630000000 1.0
C      1  0.4220770000000  0.4692190000000  0.4173280000000 1.0
C      1  0.5268450000000  0.5017300000000  0.5330710000000 1.0
C      1  0.5173330000000  0.6157000000000  0.4535460000000 1.0
C      1  0.5982240000000  0.4556010000000  0.4594800000000 1.0
C      1  0.5416930000000  0.4725290000000  0.4052120000000 1.0
C      1  0.5684430000000  0.5133980000000  0.4909210000000 1.0
C      1  0.6021060000000  0.5029820000000  0.5292610000000 1.0
C      1  0.4477170000000  0.5310220000000  0.4770740000000 1.0
C      1  0.4877190000000  0.3876280000000  0.5003540000000 1.0
C      1  0.4029690000000  0.4849620000000  0.4668710000000 1.0
C      1  0.5569730000000  0.6005460000000  0.5148550000000 1.0
C      1  0.3851490000000  0.5072490000000  0.4770550000000 1.0
C      1  0.5833270000000  0.4289950000000  0.5424710000000 1.0
C      1  0.5852650000000  0.4456610000000  0.5889340000000 1.0
C      1  0.5782890000000  0.5144790000000  0.4197670000000 1.0
C      1  0.5293240000000  0.4871130000000  0.4316040000000 1.0
C      1  0.4624000000000  0.4622340000000  0.6035530000000 1.0
C      1  0.5939530000000  0.5457410000000  0.4582050000000 1.0
C      1  0.4990820000000  0.5398110000000  0.4328720000000 1.0
C      1  0.5157160000000  0.5965610000000  0.5358720000000 1.0
C      1  0.4213860000000  0.5051700000000  0.5072110000000 1.0
C      1  0.4728860000000  0.4054830000000  0.4537030000000 1.0
C      1  0.5482820000000  0.5429440000000  0.5880590000000 1.0
C      1  0.4460310000000  0.5795920000000  0.4598320000000 1.0
C      1  0.4603130000000  0.3906440000000  0.5102950000000 1.0
C      1  0.4722480000000  0.6094890000000  0.5523780000000 1.0
C      1  0.5448020000000  0.5993990000000  0.5403190000000 1.0
C      1  0.4799220000000  0.4845420000000  0.5519610000000 1.0
C      1  0.4976530000000  0.5281620000000  0.5776530000000 1.0
C      1  0.4215940000000  0.4170970000000  0.4715240000000 1.0
C      1  0.4948880000000  0.3887050000000  0.5375430000000 1.0
C      1  0.4431640000000  0.5144400000000  0.3951930000000 1.0
C      1  0.4132900000000  0.4361990000000  0.5545750000000 1.0
C      1  0.4928620000000  0.4013160000000  0.4745160000000 1.0
C      1  0.5394130000000  0.4611570000000  0.5539980000000 1.0
C      1  0.4685960000000  0.4215260000000  0.5780550000000 1.0
C      1  0.3910860000000  0.4996090000000  0.5139910000000 1.0
C      1  0.4038170000000  0.4633240000000  0.5434080000000 1.0
C      1  0.5367400000000  0.4953320000000  0.6001370000000 1.0
C      1  0.5382200000000  0.6130660000000  0.4967560000000 1.0
C      1  0.4619660000000  0.5046390000000  0.4720330000000 1.0
C      1  0.5015160000000  0.6075910000000  0.5591350000000 1.0
C      1  0.4212880000000  0.5661160000000  0.4451820000000 1.0
C      1  0.4336210000000  0.4595050000000  0.4963690000000 1.0
C      1  0.4364680000000  0.4292170000000  0.5359240000000 1.0
C      1  0.5081660000000  0.5493940000000  0.4814390000000 1.0
C      1  0.5632120000000  0.4389330000000  0.4381350000000 1.0
C      1  0.4625880000000  0.5808130000000  0.5197150000000 1.0
C      1  0.4190020000000  0.5839750000000  0.5007970000000 1.0
C      1  0.5237230000000  0.4728710000000  0.5324470000000 1.0
C      1  0.4627700000000  0.5544790000000  0.4711010000000 1.0
C      1  0.5082350000000  0.4347120000000  0.3912780000000 1.0
C      1  0.4626440000000  0.5377150000000  0.5369410000000 1.0
C      1  0.4892810000000  0.6005670000000  0.4905910000000 1.0
C      1  0.4662190000000  0.3913800000000  0.5390870000000 1.0
C      1  0.4244950000000  0.4856180000000  0.4861170000000 1.0
C      1  0.5490090000000  0.5625940000000  0.5172070000000 1.0
C      1  0.6182130000000  0.5275630000000  0.4639770000000 1.0
C      1  0.5936150000000  0.4834770000000  0.4477330000000 1.0
C      1  0.4804670000000  0.4632210000000  0.5127090000000 1.0
C      1  0.5330250000000  0.5151890000000  0.4047970000000 1.0
C      1  0.4464890000000  0.4071290000000  0.4629810000000 1.0
C      1  0.5614930000000  0.4836480000000  0.6054010000000 1.0
C      1  0.4827230000000  0.4348580000000  0.4036010000000 1.0
C      1  0.5585660000000  0.5296430000000  0.4049160000000 1.0
C      1  0.5160460000000  0.5417930000000  0.5498590000000 1.0
C      1  0.4983910000000  0.4889480000000  0.4349190000000 1.0
C      1  0.5200450000000  0.4532850000000  0.5749170000000 1.0
C      1  0.4133180000000  0.4264060000000  0.4985140000000 1.0
C      1  0.5088590000000  0.4149350000000  0.5401300000000 1.0
C      1  0.6258860000000  0.4929550000000  0.4902060000000 1.0
C      1  0.5080590000000  0.4251110000000  0.5120020000000 1.0
C      1  0.5169850000000  0.4127550000000  0.4349280000000 1.0
C      1  0.5051640000000  0.4303310000000  0.6080080000000 1.0
C      1  0.5741370000000  0.4998330000000  0.5167960000000 1.0
C      1  0.5566250000000  0.4045320000000  0.5306230000000 1.0
C      1  0.5271490000000  0.5391220000000  0.5031310000000 1.0
C      1  0.5014160000000  0.4557640000000  0.4666110000000 1.0
C      1  0.4853040000000  0.4583060000000  0.4405060000000 1.0
C      1  0.4336040000000  0.5449890000000  0.5268560000000 1.0
C      1  0.5108360000000  0.6096830000000  0.5084620000000 1.0
C      1  0.4787770000000  0.5731230000000  0.5849500000000 1.0
C      1  0.4135240000000  0.5359350000000  0.5478430000000 1.0
C      1  0.4228300000000  0.4385080000000  0.5807520000000 1.0
C      1  0.5039160000000  0.5290540000000  0.6069240000000 1.0
C      1  0.4460650000000  0.5335270000000  0.5872570000000 1.0
C      1  0.5906610000000  0.4337330000000  0.4430190000000 1.0
C      1  0.4171950000000  0.4920110000000  0.4403330000000 1.0
C      1  0.4369770000000  0.4615690000000  0.5881170000000 1.0
C      1  0.4630180000000  0.6143000000000  0.4955810000000 1.0
C      1  0.4261820000000  0.5412830000000  0.4301780000000 1.0
C      1  0.4939980000000  0.4976870000000  0.5738510000000 1.0
END
