TITL C-950528-5794-495 1.47877382331548e-07 125000 -158.998020396713 0 0 27 (C1) n - 1
REM
REM in /home/bkarasulu/work/CARBON/AIRSS/Generating-Clusters/EDIP-Nigel-Params/with-SteepDescent/Only-C1/SD-CG/HFTN-CG
REM
REM
REM
REM
REM
REM ./C.cell (11c1c37f851c82e70ff6c80c92926a4b)
REM
REM compiler GCC version 9.2.1 20190827 (Red Hat 9.2.1-1)
REM options -cpp -mtune=generic -march=x86-64 -g -O0 -fpre-include=/usr/include/finclude/math-vector-fortran.h
REM seed 648365697 1507800190 1679738221 1578468100 1457060365 1440035342 659206833 2020355295 973766692 1773937675 -1370575001 2127983853 6625417 2075964532 -1981288408 1974130545 -449420586 -913755647 -1549850541 -246638877 965645966 -489799926 1203528139 -221841578 -1303834406 1314768096 -366972613 96165595 874773063 1425752141 -1330859186 -1681411881 1296320328
REM
CELL 1.54180   50.00000   50.00000   50.00000   90.00000   90.00000   90.00000
LATT -1
SFAC C  
C      1  0.5318970000000  0.4953550000000  0.5344710000000 1.0
C      1  0.5199970000000  0.5495160000000  0.4670920000000 1.0
C      1  0.5184250000000  0.5077630000000  0.4524860000000 1.0
C      1  0.4862800000000  0.5462690000000  0.5029720000000 1.0
C      1  0.5320560000000  0.4727740000000  0.4871410000000 1.0
C      1  0.4673060000000  0.4898570000000  0.4335410000000 1.0
C      1  0.4658590000000  0.4885160000000  0.5140350000000 1.0
C      1  0.4874140000000  0.4585100000000  0.4789490000000 1.0
C      1  0.5246850000000  0.5340660000000  0.4453680000000 1.0
C      1  0.4712140000000  0.4982460000000  0.5411540000000 1.0
C      1  0.5152790000000  0.4532550000000  0.4761380000000 1.0
C      1  0.5402210000000  0.5206170000000  0.5267900000000 1.0
C      1  0.5105440000000  0.4525220000000  0.5241640000000 1.0
C      1  0.5348760000000  0.4947790000000  0.4707240000000 1.0
C      1  0.4725600000000  0.5257400000000  0.5461790000000 1.0
C      1  0.4767390000000  0.4612040000000  0.5076280000000 1.0
C      1  0.4754980000000  0.4748280000000  0.4570510000000 1.0
C      1  0.5138470000000  0.5484570000000  0.4942310000000 1.0
C      1  0.5241810000000  0.4757930000000  0.5146680000000 1.0
C      1  0.5335100000000  0.5425660000000  0.5129460000000 1.0
C      1  0.4897470000000  0.4810300000000  0.5564560000000 1.0
C      1  0.4587410000000  0.5078390000000  0.4950970000000 1.0
C      1  0.4938190000000  0.4953560000000  0.4421350000000 1.0
C      1  0.4675970000000  0.5322780000000  0.4875520000000 1.0
C      1  0.4817810000000  0.5454030000000  0.5304020000000 1.0
C      1  0.4898660000000  0.4551180000000  0.5431520000000 1.0
C      1  0.5160640000000  0.4923430000000  0.5574810000000 1.0
END
