TITL C-951336-9012-561 -7.52167670818043e-06 125000 -228.314590053658 0 0 38 (C1) n - 1
REM
REM in /home/bkarasulu/work/CARBON/AIRSS/Generating-Clusters/EDIP-Nigel-Params/with-SteepDescent/Only-C1/SD-CG/HFTN-CG
REM
REM
REM
REM
REM
REM ./C.cell (11c1c37f851c82e70ff6c80c92926a4b)
REM
REM compiler GCC version 9.2.1 20190827 (Red Hat 9.2.1-1)
REM options -cpp -mtune=generic -march=x86-64 -g -O0 -fpre-include=/usr/include/finclude/math-vector-fortran.h
REM seed -672045498 1842380281 489079713 1845978692 -2013737255 -439710731 874889387 -1394727868 -1272233378 -972796162 -1421223368 -126941928 -429192090 -2101108428 -1616456102 -1507413590 1612796279 -2048417653 -732096453 -960748403 -1239044579 1783296413 -1995769253 1932280243 950087148 2092006358 712922257 1115071157 -1659750186 -2141720741 -978716632 -145484137 -332597394
REM
CELL 1.54180   50.00000   50.00000   50.00000   90.00000   90.00000   90.00000
LATT -1
SFAC C  
C      1  0.4796590000000  0.5103560000000  0.5526520000000 1.0
C      1  0.4860750000000  0.4666660000000  0.5460160000000 1.0
C      1  0.4821640000000  0.5151450000000  0.4445060000000 1.0
C      1  0.4560450000000  0.5216230000000  0.5374580000000 1.0
C      1  0.5303870000000  0.5591820000000  0.5075860000000 1.0
C      1  0.4663320000000  0.5105400000000  0.4963570000000 1.0
C      1  0.4877940000000  0.4665540000000  0.4405230000000 1.0
C      1  0.4456170000000  0.5052590000000  0.4738540000000 1.0
C      1  0.4867180000000  0.5540410000000  0.5049280000000 1.0
C      1  0.4953120000000  0.4499610000000  0.4986110000000 1.0
C      1  0.5251890000000  0.4562340000000  0.5007560000000 1.0
C      1  0.4904070000000  0.5389160000000  0.4562380000000 1.0
C      1  0.5034700000000  0.5049530000000  0.5344060000000 1.0
C      1  0.5566200000000  0.4804760000000  0.5290750000000 1.0
C      1  0.4981210000000  0.5548540000000  0.4776990000000 1.0
C      1  0.5623980000000  0.5189030000000  0.5010810000000 1.0
C      1  0.4918670000000  0.4965580000000  0.5068820000000 1.0
C      1  0.5247920000000  0.5645930000000  0.4799720000000 1.0
C      1  0.4994920000000  0.4426870000000  0.4487370000000 1.0
C      1  0.5339730000000  0.4608810000000  0.5293460000000 1.0
C      1  0.4428150000000  0.4798350000000  0.4861520000000 1.0
C      1  0.5505510000000  0.5022680000000  0.5464020000000 1.0
C      1  0.4848330000000  0.4446080000000  0.4721770000000 1.0
C      1  0.4629580000000  0.5368470000000  0.5110550000000 1.0
C      1  0.4720360000000  0.4847430000000  0.5630060000000 1.0
C      1  0.4554190000000  0.5086780000000  0.4481870000000 1.0
C      1  0.5395490000000  0.4772520000000  0.4851490000000 1.0
C      1  0.4424160000000  0.4975040000000  0.5288790000000 1.0
C      1  0.4996610000000  0.4922980000000  0.4434520000000 1.0
C      1  0.5063050000000  0.5646760000000  0.5231570000000 1.0
C      1  0.4799080000000  0.4700260000000  0.5162890000000 1.0
C      1  0.5270600000000  0.4945890000000  0.4391200000000 1.0
C      1  0.5143550000000  0.4717490000000  0.5481740000000 1.0
C      1  0.5398270000000  0.5319400000000  0.5124810000000 1.0
C      1  0.5399430000000  0.4798870000000  0.4575830000000 1.0
C      1  0.4494490000000  0.4742130000000  0.5134500000000 1.0
C      1  0.5601340000000  0.4903700000000  0.5012770000000 1.0
C      1  0.5303510000000  0.5201340000000  0.5373290000000 1.0
END
