TITL C-951336-9012-489 1.47797239995531e-07 125000 -574.783974386907 0 0 92 (C1) n - 1
REM
REM in /home/bkarasulu/work/CARBON/AIRSS/Generating-Clusters/EDIP-Nigel-Params/with-SteepDescent/Only-C1/SD-CG/HFTN-CG
REM
REM
REM
REM
REM
REM ./C.cell (11c1c37f851c82e70ff6c80c92926a4b)
REM
REM compiler GCC version 9.2.1 20190827 (Red Hat 9.2.1-1)
REM options -cpp -mtune=generic -march=x86-64 -g -O0 -fpre-include=/usr/include/finclude/math-vector-fortran.h
REM seed 846202167 -450602154 1321293546 -330418229 -1150256131 1242147353 -1612880560 964882089 -982644738 1739942448 -1028738164 186781856 -1189159712 1065305739 -1218787095 -1150865093 -188915975 71308973 -2034098986 1693209141 -1022733858 1116737638 -300025841 1414003364 1860366462 -188419367 994787105 -534958104 -1444974573 1992738765 1623391347 -2039478796 1203732835
REM
CELL 1.54180   50.00000   50.00000   50.00000   90.00000   90.00000   90.00000
LATT -1
SFAC C  
C      1  0.5789780000000  0.5100450000000  0.5230770000000 1.0
C      1  0.5553750000000  0.5317860000000  0.4560950000000 1.0
C      1  0.4711610000000  0.4881450000000  0.4844080000000 1.0
C      1  0.5058830000000  0.4409170000000  0.4587860000000 1.0
C      1  0.5726640000000  0.4825920000000  0.4807040000000 1.0
C      1  0.5141850000000  0.5426910000000  0.4343150000000 1.0
C      1  0.4197100000000  0.5174030000000  0.4961720000000 1.0
C      1  0.5733590000000  0.5331250000000  0.4787700000000 1.0
C      1  0.4668900000000  0.5260510000000  0.4336000000000 1.0
C      1  0.4477070000000  0.4284790000000  0.4851540000000 1.0
C      1  0.4865620000000  0.5820280000000  0.4564290000000 1.0
C      1  0.4631060000000  0.4511450000000  0.4413520000000 1.0
C      1  0.4995670000000  0.5329670000000  0.5374550000000 1.0
C      1  0.4921730000000  0.5849130000000  0.5076330000000 1.0
C      1  0.5243850000000  0.4330040000000  0.5431550000000 1.0
C      1  0.5614960000000  0.5244710000000  0.5439680000000 1.0
C      1  0.4785300000000  0.5545550000000  0.5448040000000 1.0
C      1  0.4318500000000  0.4834490000000  0.5296800000000 1.0
C      1  0.4924930000000  0.5051070000000  0.5718930000000 1.0
C      1  0.5208870000000  0.4151990000000  0.4692140000000 1.0
C      1  0.5325440000000  0.5185580000000  0.5050340000000 1.0
C      1  0.5173050000000  0.5212010000000  0.5762330000000 1.0
C      1  0.5816550000000  0.4865470000000  0.5637730000000 1.0
C      1  0.4964900000000  0.4628290000000  0.5196590000000 1.0
C      1  0.4915510000000  0.5673800000000  0.4315850000000 1.0
C      1  0.4819180000000  0.4532490000000  0.5647260000000 1.0
C      1  0.4208500000000  0.5421310000000  0.5397330000000 1.0
C      1  0.4692020000000  0.4075980000000  0.4801490000000 1.0
C      1  0.5757690000000  0.4829730000000  0.5356440000000 1.0
C      1  0.4604240000000  0.5410010000000  0.5667130000000 1.0
C      1  0.5154840000000  0.4112040000000  0.4982020000000 1.0
C      1  0.4286470000000  0.5395760000000  0.5129410000000 1.0
C      1  0.5310310000000  0.5719190000000  0.4747730000000 1.0
C      1  0.5398990000000  0.4558580000000  0.5554900000000 1.0
C      1  0.5547430000000  0.4384090000000  0.4962770000000 1.0
C      1  0.4890250000000  0.5332440000000  0.4942920000000 1.0
C      1  0.4884050000000  0.4811690000000  0.4108140000000 1.0
C      1  0.5013730000000  0.5724730000000  0.5557350000000 1.0
C      1  0.5325420000000  0.5632310000000  0.5207810000000 1.0
C      1  0.4196530000000  0.4890560000000  0.5037910000000 1.0
C      1  0.5203190000000  0.4512130000000  0.4355920000000 1.0
C      1  0.4395380000000  0.4556200000000  0.5354910000000 1.0
C      1  0.5554750000000  0.4810690000000  0.4570570000000 1.0
C      1  0.4541900000000  0.4555840000000  0.5598580000000 1.0
C      1  0.4655420000000  0.5563120000000  0.4217280000000 1.0
C      1  0.5338300000000  0.4269950000000  0.5147980000000 1.0
C      1  0.5127150000000  0.5840930000000  0.5299160000000 1.0
C      1  0.4755380000000  0.4236120000000  0.5259160000000 1.0
C      1  0.5135770000000  0.5392680000000  0.5113700000000 1.0
C      1  0.4444860000000  0.5563620000000  0.4423440000000 1.0
C      1  0.4420350000000  0.4472660000000  0.4624450000000 1.0
C      1  0.4940920000000  0.5059920000000  0.4827920000000 1.0
C      1  0.4952670000000  0.4417150000000  0.5401770000000 1.0
C      1  0.4281000000000  0.4717790000000  0.4709410000000 1.0
C      1  0.5493710000000  0.5717510000000  0.4974900000000 1.0
C      1  0.4891580000000  0.5047660000000  0.5413910000000 1.0
C      1  0.5742220000000  0.5085180000000  0.4939690000000 1.0
C      1  0.5171190000000  0.4965520000000  0.4989780000000 1.0
C      1  0.4868220000000  0.4065100000000  0.5045060000000 1.0
C      1  0.4802600000000  0.5464490000000  0.4698860000000 1.0
C      1  0.4857250000000  0.4326030000000  0.4369930000000 1.0
C      1  0.4353070000000  0.5202100000000  0.4726800000000 1.0
C      1  0.5728650000000  0.5574720000000  0.4925140000000 1.0
C      1  0.5645860000000  0.5091050000000  0.5693160000000 1.0
C      1  0.4558780000000  0.4429380000000  0.5119690000000 1.0
C      1  0.5261870000000  0.5145930000000  0.4251060000000 1.0
C      1  0.5038080000000  0.5822180000000  0.4794390000000 1.0
C      1  0.4737550000000  0.4656100000000  0.5028800000000 1.0
C      1  0.5360300000000  0.5531550000000  0.4523970000000 1.0
C      1  0.4717310000000  0.5213030000000  0.5837570000000 1.0
C      1  0.5725600000000  0.4601770000000  0.4977230000000 1.0
C      1  0.5231350000000  0.5495670000000  0.5639370000000 1.0
C      1  0.5118410000000  0.4859840000000  0.5259130000000 1.0
C      1  0.4855990000000  0.4070460000000  0.4550170000000 1.0
C      1  0.5271050000000  0.4725070000000  0.5783050000000 1.0
C      1  0.5478780000000  0.4311140000000  0.4685960000000 1.0
C      1  0.4496840000000  0.5469080000000  0.4704300000000 1.0
C      1  0.4968970000000  0.4749390000000  0.5793200000000 1.0
C      1  0.4535350000000  0.4988390000000  0.4380810000000 1.0
C      1  0.4513470000000  0.5029040000000  0.5402400000000 1.0
C      1  0.5466960000000  0.4539430000000  0.4484110000000 1.0
C      1  0.5109480000000  0.4956440000000  0.4117450000000 1.0
C      1  0.4453190000000  0.5595400000000  0.4992870000000 1.0
C      1  0.4919960000000  0.5268940000000  0.4502550000000 1.0
C      1  0.5479450000000  0.5065530000000  0.4434840000000 1.0
C      1  0.4657770000000  0.4758650000000  0.4261820000000 1.0
C      1  0.5382020000000  0.5014380000000  0.5806110000000 1.0
C      1  0.4472190000000  0.4941140000000  0.4665000000000 1.0
C      1  0.4394280000000  0.5260300000000  0.5536230000000 1.0
C      1  0.4695960000000  0.5667540000000  0.5163830000000 1.0
C      1  0.5470300000000  0.5506570000000  0.5450370000000 1.0
C      1  0.5472660000000  0.4742720000000  0.5342180000000 1.0
END
