TITL C-951342-2639-14 -5.03328966892314e-06 125000 -717.174836506294 0 0 115 (C1) n - 1
REM
REM in /home/bkarasulu/work/CARBON/AIRSS/Generating-Clusters/EDIP-Nigel-Params/with-SteepDescent/Only-C1/SD-CG/HFTN-CG
REM
REM
REM
REM
REM
REM ./C.cell (11c1c37f851c82e70ff6c80c92926a4b)
REM
REM compiler GCC version 9.2.1 20190827 (Red Hat 9.2.1-1)
REM options -cpp -mtune=generic -march=x86-64 -g -O0 -fpre-include=/usr/include/finclude/math-vector-fortran.h
REM seed -1961559044 1615873648 -776480941 919960329 -497515174 1930579513 -1648140421 -1455965708 -1687827430 -391036360 1630662226 -397476140 -2086769678 231221829 -1412400455 1868642461 2091783222 -1038571222 1407591941 1558566993 523195572 943708498 511084676 10252732 542103634 -1418015892 554688797 1382732743 -742340620 505759850 -1527100774 -1937626274 -66145014
REM
CELL 1.54180   50.00000   50.00000   50.00000   90.00000   90.00000   90.00000
LATT -1
SFAC C  
C      1  0.4902000000000  0.5782290000000  0.4277820000000 1.0
C      1  0.5493840000000  0.4365200000000  0.4432180000000 1.0
C      1  0.5001180000000  0.4719560000000  0.4158080000000 1.0
C      1  0.4773470000000  0.4904420000000  0.5373510000000 1.0
C      1  0.4789680000000  0.5390830000000  0.5228920000000 1.0
C      1  0.4678550000000  0.4915580000000  0.5943830000000 1.0
C      1  0.4783540000000  0.4307150000000  0.5470380000000 1.0
C      1  0.4785070000000  0.4634750000000  0.4678510000000 1.0
C      1  0.4174670000000  0.5314840000000  0.4731130000000 1.0
C      1  0.4990970000000  0.4210770000000  0.5286660000000 1.0
C      1  0.5678730000000  0.5295890000000  0.5454800000000 1.0
C      1  0.5148690000000  0.4540220000000  0.5392070000000 1.0
C      1  0.4383270000000  0.4583660000000  0.5389880000000 1.0
C      1  0.5280540000000  0.5624960000000  0.5465580000000 1.0
C      1  0.5473120000000  0.4255770000000  0.5150140000000 1.0
C      1  0.4694160000000  0.5107880000000  0.4715510000000 1.0
C      1  0.5300590000000  0.4431740000000  0.5636480000000 1.0
C      1  0.5138520000000  0.5172550000000  0.5054230000000 1.0
C      1  0.4618200000000  0.5653680000000  0.4771980000000 1.0
C      1  0.5619180000000  0.4848310000000  0.4323230000000 1.0
C      1  0.5817810000000  0.5115990000000  0.4735020000000 1.0
C      1  0.5373970000000  0.5333840000000  0.5490510000000 1.0
C      1  0.5562770000000  0.5284710000000  0.4728010000000 1.0
C      1  0.4423880000000  0.5630530000000  0.5000880000000 1.0
C      1  0.5271900000000  0.5057970000000  0.5290040000000 1.0
C      1  0.5518500000000  0.5392740000000  0.5014160000000 1.0
C      1  0.5157670000000  0.4557040000000  0.4906170000000 1.0
C      1  0.5775430000000  0.5674160000000  0.4948820000000 1.0
C      1  0.4691700000000  0.4101040000000  0.4912140000000 1.0
C      1  0.5334740000000  0.4911330000000  0.4447620000000 1.0
C      1  0.4682100000000  0.5608040000000  0.4282640000000 1.0
C      1  0.4523020000000  0.4894050000000  0.4088840000000 1.0
C      1  0.5107420000000  0.4820490000000  0.5886050000000 1.0
C      1  0.5442590000000  0.5792980000000  0.5314510000000 1.0
C      1  0.4541330000000  0.4639010000000  0.4230450000000 1.0
C      1  0.4766730000000  0.4588620000000  0.4993630000000 1.0
C      1  0.5358220000000  0.4649840000000  0.4655480000000 1.0
C      1  0.5095590000000  0.4529680000000  0.5832120000000 1.0
C      1  0.4661360000000  0.4191120000000  0.4622080000000 1.0
C      1  0.4376590000000  0.4685460000000  0.5672270000000 1.0
C      1  0.5153700000000  0.4987590000000  0.4845430000000 1.0
C      1  0.4231380000000  0.5309390000000  0.5292090000000 1.0
C      1  0.5751610000000  0.4443470000000  0.5436810000000 1.0
C      1  0.4613010000000  0.4646290000000  0.5837950000000 1.0
C      1  0.5780510000000  0.5355040000000  0.5168130000000 1.0
C      1  0.4397300000000  0.5494370000000  0.5464780000000 1.0
C      1  0.4906830000000  0.4364220000000  0.4582490000000 1.0
C      1  0.5734690000000  0.5009100000000  0.5489280000000 1.0
C      1  0.4572780000000  0.4345180000000  0.5040150000000 1.0
C      1  0.5651560000000  0.5763750000000  0.4692910000000 1.0
C      1  0.5402630000000  0.4215370000000  0.4670800000000 1.0
C      1  0.4333030000000  0.4444880000000  0.4880710000000 1.0
C      1  0.5766030000000  0.4495460000000  0.4917720000000 1.0
C      1  0.5608320000000  0.4231740000000  0.4893590000000 1.0
C      1  0.5787300000000  0.4853480000000  0.4585140000000 1.0
C      1  0.4212260000000  0.5036030000000  0.5389270000000 1.0
C      1  0.5325160000000  0.4979200000000  0.5791180000000 1.0
C      1  0.5561580000000  0.5528270000000  0.4543390000000 1.0
C      1  0.4879470000000  0.5185020000000  0.5433350000000 1.0
C      1  0.5449820000000  0.5959470000000  0.4709150000000 1.0
C      1  0.5041520000000  0.4937290000000  0.4349300000000 1.0
C      1  0.5204030000000  0.6000420000000  0.4577300000000 1.0
C      1  0.4515580000000  0.4657270000000  0.4523170000000 1.0
C      1  0.4560540000000  0.5421940000000  0.5720230000000 1.0
C      1  0.5502180000000  0.4570560000000  0.4219960000000 1.0
C      1  0.4774210000000  0.5917180000000  0.4871310000000 1.0
C      1  0.4180420000000  0.5030620000000  0.4677670000000 1.0
C      1  0.4098920000000  0.4566130000000  0.5325580000000 1.0
C      1  0.4460340000000  0.4986580000000  0.4562620000000 1.0
C      1  0.4728060000000  0.5317180000000  0.4256660000000 1.0
C      1  0.4412470000000  0.4376250000000  0.4607490000000 1.0
C      1  0.5521450000000  0.4861450000000  0.5615180000000 1.0
C      1  0.4476720000000  0.5647540000000  0.4495740000000 1.0
C      1  0.4524300000000  0.4325210000000  0.5340180000000 1.0
C      1  0.4324100000000  0.4748770000000  0.4914330000000 1.0
C      1  0.5765870000000  0.4893240000000  0.5214150000000 1.0
C      1  0.4578210000000  0.5607620000000  0.5258910000000 1.0
C      1  0.5244290000000  0.5252930000000  0.5747640000000 1.0
C      1  0.4975190000000  0.4110720000000  0.5005350000000 1.0
C      1  0.4525240000000  0.5121850000000  0.5792080000000 1.0
C      1  0.4927610000000  0.5285430000000  0.5720530000000 1.0
C      1  0.4045890000000  0.4839430000000  0.4978330000000 1.0
C      1  0.5323710000000  0.5569070000000  0.4370810000000 1.0
C      1  0.5219370000000  0.5365670000000  0.4214310000000 1.0
C      1  0.5893940000000  0.5104380000000  0.5030470000000 1.0
C      1  0.4564520000000  0.4779970000000  0.5174570000000 1.0
C      1  0.4995310000000  0.5202840000000  0.4220980000000 1.0
C      1  0.5110500000000  0.5661100000000  0.4994840000000 1.0
C      1  0.5114170000000  0.4283290000000  0.4787110000000 1.0
C      1  0.4997850000000  0.5697330000000  0.5472420000000 1.0
C      1  0.4480610000000  0.5139950000000  0.4287340000000 1.0
C      1  0.4786000000000  0.5388030000000  0.4771360000000 1.0
C      1  0.4304180000000  0.5409450000000  0.4481150000000 1.0
C      1  0.5337480000000  0.4543830000000  0.5153400000000 1.0
C      1  0.4041470000000  0.4835860000000  0.5260830000000 1.0
C      1  0.5613090000000  0.4728150000000  0.4800050000000 1.0
C      1  0.4925450000000  0.5848620000000  0.5123510000000 1.0
C      1  0.5163980000000  0.5809350000000  0.4367820000000 1.0
C      1  0.5652030000000  0.4188830000000  0.5361720000000 1.0
C      1  0.5852370000000  0.4602230000000  0.5198230000000 1.0
C      1  0.4913810000000  0.4917110000000  0.4654110000000 1.0
C      1  0.4276510000000  0.5384180000000  0.5003110000000 1.0
C      1  0.5075060000000  0.4852450000000  0.5450800000000 1.0
C      1  0.4857850000000  0.5578110000000  0.5703350000000 1.0
C      1  0.4957870000000  0.6052320000000  0.4704130000000 1.0
C      1  0.4787730000000  0.4799970000000  0.3980390000000 1.0
C      1  0.4966390000000  0.5403700000000  0.5001210000000 1.0
C      1  0.5475150000000  0.4856100000000  0.5122160000000 1.0
C      1  0.5249410000000  0.4604870000000  0.4091040000000 1.0
C      1  0.4928090000000  0.4940620000000  0.6068310000000 1.0
C      1  0.4823930000000  0.4464530000000  0.5726520000000 1.0
C      1  0.5336090000000  0.5110600000000  0.4659380000000 1.0
C      1  0.4310220000000  0.4972510000000  0.5657320000000 1.0
C      1  0.5563020000000  0.4575350000000  0.5634490000000 1.0
C      1  0.5405440000000  0.5688030000000  0.5048430000000 1.0
END
