TITL C-950526-5686-511 3.47443082008387e-05 125000 -197.039925838876 0 0 34 (C1) n - 1
REM
REM in /home/bkarasulu/work/CARBON/AIRSS/Generating-Clusters/EDIP-Nigel-Params/with-SteepDescent/Only-C1/SD-CG/HFTN-CG
REM
REM
REM
REM
REM
REM ./C.cell (11c1c37f851c82e70ff6c80c92926a4b)
REM
REM compiler GCC version 9.2.1 20190827 (Red Hat 9.2.1-1)
REM options -cpp -mtune=generic -march=x86-64 -g -O0 -fpre-include=/usr/include/finclude/math-vector-fortran.h
REM seed 311431401 -1179616281 628754224 1366823052 -1581358354 -1766251510 1772969870 1921925518 -1018163094 289953605 1288794454 1968631029 -1367722643 729711859 2063091650 903654502 -95465954 714593101 2029951092 247476747 -340182678 -1571214289 2052604167 -1183616195 1102681367 -1077838475 -268623984 -814280158 35505488 -1222227793 1017110409 -1356786430 536900893
REM
CELL 1.54180   50.00000   50.00000   50.00000   90.00000   90.00000   90.00000
LATT -1
SFAC C  
C      1  0.5041120000000  0.5411760000000  0.5431860000000 1.0
C      1  0.4842930000000  0.4284820000000  0.4942090000000 1.0
C      1  0.4734430000000  0.4822240000000  0.5435290000000 1.0
C      1  0.4969190000000  0.5521000000000  0.5187100000000 1.0
C      1  0.5561560000000  0.4686940000000  0.4934610000000 1.0
C      1  0.5099660000000  0.5186070000000  0.5565170000000 1.0
C      1  0.5359300000000  0.4858500000000  0.5051560000000 1.0
C      1  0.5070380000000  0.5623740000000  0.4727980000000 1.0
C      1  0.5527350000000  0.5353060000000  0.5218120000000 1.0
C      1  0.5162110000000  0.5555840000000  0.4969730000000 1.0
C      1  0.5191310000000  0.4493490000000  0.4704670000000 1.0
C      1  0.5318240000000  0.5100840000000  0.4871450000000 1.0
C      1  0.4997920000000  0.4748240000000  0.5379920000000 1.0
C      1  0.4444090000000  0.5180890000000  0.5213820000000 1.0
C      1  0.4802000000000  0.5085010000000  0.4421410000000 1.0
C      1  0.4504700000000  0.5385330000000  0.5037720000000 1.0
C      1  0.5607790000000  0.5155030000000  0.5381520000000 1.0
C      1  0.4533430000000  0.4988030000000  0.5375520000000 1.0
C      1  0.4701360000000  0.5559980000000  0.5126100000000 1.0
C      1  0.5078250000000  0.4708290000000  0.5089440000000 1.0
C      1  0.4601860000000  0.4699470000000  0.4908630000000 1.0
C      1  0.5195370000000  0.4930140000000  0.5500050000000 1.0
C      1  0.5224760000000  0.5068830000000  0.4609920000000 1.0
C      1  0.4866120000000  0.4837860000000  0.4916080000000 1.0
C      1  0.5091140000000  0.4416460000000  0.4975170000000 1.0
C      1  0.4613710000000  0.5231050000000  0.4542340000000 1.0
C      1  0.4505130000000  0.5326350000000  0.4767260000000 1.0
C      1  0.4397930000000  0.4827360000000  0.4797410000000 1.0
C      1  0.5390520000000  0.5367170000000  0.4974170000000 1.0
C      1  0.4953090000000  0.4684370000000  0.4644150000000 1.0
C      1  0.5438550000000  0.4934720000000  0.5335240000000 1.0
C      1  0.5454640000000  0.4581270000000  0.4711380000000 1.0
C      1  0.5024330000000  0.4929160000000  0.4477340000000 1.0
C      1  0.4695720000000  0.4456690000000  0.4775760000000 1.0
END
