TITL C-950523-3027-537 -1.38828130443367e-07 125000 -339.050844935363 0 0 56 (C1) n - 1
REM
REM in /home/bkarasulu/work/CARBON/AIRSS/Generating-Clusters/EDIP-Nigel-Params/with-SteepDescent/Only-C1/SD-CG/HFTN-CG
REM
REM
REM
REM
REM
REM ./C.cell (11c1c37f851c82e70ff6c80c92926a4b)
REM
REM compiler GCC version 9.2.1 20190827 (Red Hat 9.2.1-1)
REM options -cpp -mtune=generic -march=x86-64 -g -O0 -fpre-include=/usr/include/finclude/math-vector-fortran.h
REM seed 667595478 -1028074228 -1787721957 613297707 -720450841 -538472990 390409349 -319961004 1857776671 724222842 139172991 -1630827191 -325870373 -2125575028 -834525501 438287921 1060614085 -1061291134 407600108 1055447719 177082670 -90195561 -181594778 410017003 420357200 -1072997719 -1141823320 -1185999316 1148639786 -1769162378 -1591019768 -498979955 497234921
REM
CELL 1.54180   50.00000   50.00000   50.00000   90.00000   90.00000   90.00000
LATT -1
SFAC C  
C      1  0.5426320000000  0.5190390000000  0.5003510000000 1.0
C      1  0.5122310000000  0.4872270000000  0.4241790000000 1.0
C      1  0.5227620000000  0.4669820000000  0.4431710000000 1.0
C      1  0.5452570000000  0.5403420000000  0.4619490000000 1.0
C      1  0.5408300000000  0.4490450000000  0.4836340000000 1.0
C      1  0.4734130000000  0.5495400000000  0.5561460000000 1.0
C      1  0.4848230000000  0.4665320000000  0.5463110000000 1.0
C      1  0.4609390000000  0.4848590000000  0.4357200000000 1.0
C      1  0.5286890000000  0.5090400000000  0.4300480000000 1.0
C      1  0.4784320000000  0.4244620000000  0.4902840000000 1.0
C      1  0.5347340000000  0.4706940000000  0.5390650000000 1.0
C      1  0.5147760000000  0.5197140000000  0.5569250000000 1.0
C      1  0.5354030000000  0.5495610000000  0.4889720000000 1.0
C      1  0.5118860000000  0.4719310000000  0.5592860000000 1.0
C      1  0.5474530000000  0.4679270000000  0.4608700000000 1.0
C      1  0.4670810000000  0.5228030000000  0.5155590000000 1.0
C      1  0.5165200000000  0.5044470000000  0.4960470000000 1.0
C      1  0.5032680000000  0.5504150000000  0.4904940000000 1.0
C      1  0.4850010000000  0.5524870000000  0.4660000000000 1.0
C      1  0.5614020000000  0.4920030000000  0.4714060000000 1.0
C      1  0.5338070000000  0.4458090000000  0.5206020000000 1.0
C      1  0.4361440000000  0.4965180000000  0.4833070000000 1.0
C      1  0.4821440000000  0.4820880000000  0.5210940000000 1.0
C      1  0.4637030000000  0.4819500000000  0.5614040000000 1.0
C      1  0.4816650000000  0.4980820000000  0.4684960000000 1.0
C      1  0.4696780000000  0.5517050000000  0.5263660000000 1.0
C      1  0.5072810000000  0.4973890000000  0.5739370000000 1.0
C      1  0.4832140000000  0.5271180000000  0.4249550000000 1.0
C      1  0.5034630000000  0.5467790000000  0.5591650000000 1.0
C      1  0.5107090000000  0.4309830000000  0.5274400000000 1.0
C      1  0.5405530000000  0.5207140000000  0.5442800000000 1.0
C      1  0.5530370000000  0.4949940000000  0.5356830000000 1.0
C      1  0.5629340000000  0.5183140000000  0.4618710000000 1.0
C      1  0.4985450000000  0.5449700000000  0.4409050000000 1.0
C      1  0.5645740000000  0.4989190000000  0.5088380000000 1.0
C      1  0.4617690000000  0.4671880000000  0.5047850000000 1.0
C      1  0.4642100000000  0.5319710000000  0.4664140000000 1.0
C      1  0.4838050000000  0.4985970000000  0.4247370000000 1.0
C      1  0.5125640000000  0.4607270000000  0.4860420000000 1.0
C      1  0.4541570000000  0.5054040000000  0.5454990000000 1.0
C      1  0.5236080000000  0.5313840000000  0.4456770000000 1.0
C      1  0.4887850000000  0.4455670000000  0.4747690000000 1.0
C      1  0.5409220000000  0.5461620000000  0.5277290000000 1.0
C      1  0.4945720000000  0.5648630000000  0.5153770000000 1.0
C      1  0.4660640000000  0.4377580000000  0.5120830000000 1.0
C      1  0.4505480000000  0.5213590000000  0.4896200000000 1.0
C      1  0.4406750000000  0.4855740000000  0.4559210000000 1.0
C      1  0.5097660000000  0.4799670000000  0.5106360000000 1.0
C      1  0.5161780000000  0.5619720000000  0.5364940000000 1.0
C      1  0.5130250000000  0.4947870000000  0.4672200000000 1.0
C      1  0.4345800000000  0.4782200000000  0.5053650000000 1.0
C      1  0.4937880000000  0.5230240000000  0.4980010000000 1.0
C      1  0.4787270000000  0.4977180000000  0.5815470000000 1.0
C      1  0.4698380000000  0.4688660000000  0.4758920000000 1.0
C      1  0.4843010000000  0.4377260000000  0.5356050000000 1.0
C      1  0.4591330000000  0.5257850000000  0.5658260000000 1.0
END
