TITL C-951339-9237-644 -1.76953553770387e-06 125000 -707.189280927154 0 0 113 (C1) n - 1
REM
REM in /home/bkarasulu/work/CARBON/AIRSS/Generating-Clusters/EDIP-Nigel-Params/with-SteepDescent/Only-C1/SD-CG/HFTN-CG
REM
REM
REM
REM
REM
REM ./C.cell (11c1c37f851c82e70ff6c80c92926a4b)
REM
REM compiler GCC version 9.2.1 20190827 (Red Hat 9.2.1-1)
REM options -cpp -mtune=generic -march=x86-64 -g -O0 -fpre-include=/usr/include/finclude/math-vector-fortran.h
REM seed -1223673232 -498451128 -1807293991 -482499613 -558307084 1512574040 -598286904 -578485992 2016262419 235552455 1107871756 596253751 -1490599236 1563289079 -1185823896 -892262056 1377126462 1550997188 -1187524490 1712189945 1046823837 -1316800507 1544995503 850669276 -127993180 1359886436 -261862634 -193171726 1437475908 -93544737 1263696179 1158376236 1495144920
REM
CELL 1.54180   50.00000   50.00000   50.00000   90.00000   90.00000   90.00000
LATT -1
SFAC C  
C      1  0.4547300000000  0.4842460000000  0.4920480000000 1.0
C      1  0.5464330000000  0.5297390000000  0.4414260000000 1.0
C      1  0.4861060000000  0.5515370000000  0.5214230000000 1.0
C      1  0.4919610000000  0.5299170000000  0.4790450000000 1.0
C      1  0.4645390000000  0.5818820000000  0.4500460000000 1.0
C      1  0.4972550000000  0.4344850000000  0.5448960000000 1.0
C      1  0.5843000000000  0.4955110000000  0.4439530000000 1.0
C      1  0.5253380000000  0.5166370000000  0.4261820000000 1.0
C      1  0.4862760000000  0.4873030000000  0.3884360000000 1.0
C      1  0.4675200000000  0.4956100000000  0.4076480000000 1.0
C      1  0.5372120000000  0.4853150000000  0.5840230000000 1.0
C      1  0.4649210000000  0.5275080000000  0.5215530000000 1.0
C      1  0.4907550000000  0.5741560000000  0.4575410000000 1.0
C      1  0.4399530000000  0.4631970000000  0.5389940000000 1.0
C      1  0.5800290000000  0.5288030000000  0.5287230000000 1.0
C      1  0.4139260000000  0.5021000000000  0.5454470000000 1.0
C      1  0.5235420000000  0.4355170000000  0.5011920000000 1.0
C      1  0.5757790000000  0.5117370000000  0.5032930000000 1.0
C      1  0.4503010000000  0.4335830000000  0.4897770000000 1.0
C      1  0.5069220000000  0.4643340000000  0.4500090000000 1.0
C      1  0.5311390000000  0.4264650000000  0.4739850000000 1.0
C      1  0.4601060000000  0.4939420000000  0.4506590000000 1.0
C      1  0.4670360000000  0.5760760000000  0.5231220000000 1.0
C      1  0.5268440000000  0.4894270000000  0.4835630000000 1.0
C      1  0.4803100000000  0.4799110000000  0.5326590000000 1.0
C      1  0.5344400000000  0.5530920000000  0.4527400000000 1.0
C      1  0.4959170000000  0.4217020000000  0.5069160000000 1.0
C      1  0.4422090000000  0.4558130000000  0.4379530000000 1.0
C      1  0.5077760000000  0.5562790000000  0.4421160000000 1.0
C      1  0.4543980000000  0.5026350000000  0.5743920000000 1.0
C      1  0.5278080000000  0.5089760000000  0.5375000000000 1.0
C      1  0.5185490000000  0.4630130000000  0.5909870000000 1.0
C      1  0.4710320000000  0.4410110000000  0.5098880000000 1.0
C      1  0.4804610000000  0.4327740000000  0.4210910000000 1.0
C      1  0.5005480000000  0.5323300000000  0.4257980000000 1.0
C      1  0.5670640000000  0.4645500000000  0.4956170000000 1.0
C      1  0.4863650000000  0.4829380000000  0.4623430000000 1.0
C      1  0.4526210000000  0.5876900000000  0.4764130000000 1.0
C      1  0.5697680000000  0.5179000000000  0.4542690000000 1.0
C      1  0.4119290000000  0.4972660000000  0.5174570000000 1.0
C      1  0.4919880000000  0.4682430000000  0.5798880000000 1.0
C      1  0.4871290000000  0.5643180000000  0.5697120000000 1.0
C      1  0.4997790000000  0.5017180000000  0.4795830000000 1.0
C      1  0.5030010000000  0.5501750000000  0.5486020000000 1.0
C      1  0.5278460000000  0.5297010000000  0.5128060000000 1.0
C      1  0.4334350000000  0.5435440000000  0.5343470000000 1.0
C      1  0.4513600000000  0.5634460000000  0.4341890000000 1.0
C      1  0.5000790000000  0.4534720000000  0.4230830000000 1.0
C      1  0.4992000000000  0.4646490000000  0.5500260000000 1.0
C      1  0.4805060000000  0.5424420000000  0.5887720000000 1.0
C      1  0.5686140000000  0.4501190000000  0.4700860000000 1.0
C      1  0.5883770000000  0.4840780000000  0.5013370000000 1.0
C      1  0.4807320000000  0.4703070000000  0.5045130000000 1.0
C      1  0.5677310000000  0.5551660000000  0.4896990000000 1.0
C      1  0.5065290000000  0.5470810000000  0.4988730000000 1.0
C      1  0.4423990000000  0.5530460000000  0.5604520000000 1.0
C      1  0.5465050000000  0.4260530000000  0.5192940000000 1.0
C      1  0.4483040000000  0.4763280000000  0.4178820000000 1.0
C      1  0.4532380000000  0.5326840000000  0.5799390000000 1.0
C      1  0.6039510000000  0.4721110000000  0.5218220000000 1.0
C      1  0.4988400000000  0.5176980000000  0.5834240000000 1.0
C      1  0.4290580000000  0.4934810000000  0.4576440000000 1.0
C      1  0.4658880000000  0.4234990000000  0.4677130000000 1.0
C      1  0.5418910000000  0.5634740000000  0.4785800000000 1.0
C      1  0.5186220000000  0.4213540000000  0.5603650000000 1.0
C      1  0.5295680000000  0.5144430000000  0.5870370000000 1.0
C      1  0.5248180000000  0.4771690000000  0.5338550000000 1.0
C      1  0.5171130000000  0.4674510000000  0.5039370000000 1.0
C      1  0.4338390000000  0.4863860000000  0.5585150000000 1.0
C      1  0.5671450000000  0.5183370000000  0.5535840000000 1.0
C      1  0.4289570000000  0.4540240000000  0.4871380000000 1.0
C      1  0.5328750000000  0.5554920000000  0.5542870000000 1.0
C      1  0.5779530000000  0.4753430000000  0.4265700000000 1.0
C      1  0.4790970000000  0.5083260000000  0.5381310000000 1.0
C      1  0.4200410000000  0.5363480000000  0.4507580000000 1.0
C      1  0.4154780000000  0.5536610000000  0.4732880000000 1.0
C      1  0.4500470000000  0.5366270000000  0.4446840000000 1.0
C      1  0.5940530000000  0.4476270000000  0.5304310000000 1.0
C      1  0.5498570000000  0.5669350000000  0.5350660000000 1.0
C      1  0.4599790000000  0.4410950000000  0.5379860000000 1.0
C      1  0.5131070000000  0.4081820000000  0.4627180000000 1.0
C      1  0.5460060000000  0.5326960000000  0.5688890000000 1.0
C      1  0.5707760000000  0.5558530000000  0.5196530000000 1.0
C      1  0.4741010000000  0.5942560000000  0.4973370000000 1.0
C      1  0.5328350000000  0.4809800000000  0.4507040000000 1.0
C      1  0.4985920000000  0.5866420000000  0.4821980000000 1.0
C      1  0.4628690000000  0.5748200000000  0.5558120000000 1.0
C      1  0.5388220000000  0.4134950000000  0.5429810000000 1.0
C      1  0.4236350000000  0.4646900000000  0.4594960000000 1.0
C      1  0.5067810000000  0.4749490000000  0.4033670000000 1.0
C      1  0.4721160000000  0.5205760000000  0.4247080000000 1.0
C      1  0.5612500000000  0.4769050000000  0.5682650000000 1.0
C      1  0.5657090000000  0.4493690000000  0.5221050000000 1.0
C      1  0.4303470000000  0.4740810000000  0.5118820000000 1.0
C      1  0.4901060000000  0.4105880000000  0.4787650000000 1.0
C      1  0.4510700000000  0.5155240000000  0.4962120000000 1.0
C      1  0.5514170000000  0.4666580000000  0.5419750000000 1.0
C      1  0.5442050000000  0.5074470000000  0.5018410000000 1.0
C      1  0.4109770000000  0.5150400000000  0.4707640000000 1.0
C      1  0.4601440000000  0.4327430000000  0.4404300000000 1.0
C      1  0.4802360000000  0.4940080000000  0.5876270000000 1.0
C      1  0.5282740000000  0.4914250000000  0.4137620000000 1.0
C      1  0.5806300000000  0.4973200000000  0.5666920000000 1.0
C      1  0.5019840000000  0.5199960000000  0.5525900000000 1.0
C      1  0.5242360000000  0.5806240000000  0.4932940000000 1.0
C      1  0.5804990000000  0.5298360000000  0.4791290000000 1.0
C      1  0.4618700000000  0.5358240000000  0.4750430000000 1.0
C      1  0.5592420000000  0.4656610000000  0.4465660000000 1.0
C      1  0.5262480000000  0.4373270000000  0.5821960000000 1.0
C      1  0.4407850000000  0.5641090000000  0.5152380000000 1.0
C      1  0.4211650000000  0.5187660000000  0.4995230000000 1.0
C      1  0.4416430000000  0.5610400000000  0.4856430000000 1.0
C      1  0.5583830000000  0.4242120000000  0.4695700000000 1.0
END
