TITL C-950521-2237-147 -2.16131316029955e-06 125000 -735.837729933341 0 0 118 (C1) n - 1
REM
REM in /home/bkarasulu/work/CARBON/AIRSS/Generating-Clusters/EDIP-Nigel-Params/with-SteepDescent/Only-C1/SD-CG/HFTN-CG
REM
REM
REM
REM
REM
REM ./C.cell (11c1c37f851c82e70ff6c80c92926a4b)
REM
REM compiler GCC version 9.2.1 20190827 (Red Hat 9.2.1-1)
REM options -cpp -mtune=generic -march=x86-64 -g -O0 -fpre-include=/usr/include/finclude/math-vector-fortran.h
REM seed -64673200 1834351008 -58556451 393252434 -1852577759 -1685844140 -1353056819 -1669367816 -762816232 -124151274 -1223060556 1582471398 -1501096544 -1722933230 -988207668 280765428 -796795920 -773399483 1057711882 1996241130 -1253311510 1990170390 -631990559 -1117780018 -1442074889 -1325891741 679109037 1780416978 1153100356 678482263 -1685373242 -928773198 -513757363
REM
CELL 1.54180   50.00000   50.00000   50.00000   90.00000   90.00000   90.00000
LATT -1
SFAC C  
C      1  0.5849090000000  0.5160630000000  0.5348690000000 1.0
C      1  0.4214350000000  0.5006110000000  0.5539900000000 1.0
C      1  0.5222040000000  0.4137110000000  0.5343960000000 1.0
C      1  0.5030750000000  0.5616500000000  0.5729710000000 1.0
C      1  0.5712390000000  0.5717070000000  0.5402550000000 1.0
C      1  0.4369540000000  0.5720680000000  0.4809610000000 1.0
C      1  0.4512990000000  0.5466880000000  0.4373070000000 1.0
C      1  0.5682250000000  0.4351300000000  0.4754880000000 1.0
C      1  0.4788440000000  0.4695810000000  0.4194650000000 1.0
C      1  0.5423220000000  0.4281440000000  0.5173220000000 1.0
C      1  0.5559980000000  0.4143680000000  0.4950170000000 1.0
C      1  0.5385540000000  0.5153580000000  0.4524410000000 1.0
C      1  0.4303470000000  0.4797880000000  0.4560620000000 1.0
C      1  0.5112820000000  0.4834220000000  0.5776060000000 1.0
C      1  0.4487580000000  0.4566550000000  0.4597810000000 1.0
C      1  0.5818040000000  0.5076250000000  0.4818740000000 1.0
C      1  0.5468410000000  0.4620910000000  0.4216380000000 1.0
C      1  0.4968350000000  0.4916840000000  0.4904880000000 1.0
C      1  0.4160400000000  0.5276860000000  0.4686080000000 1.0
C      1  0.4561510000000  0.4694470000000  0.5156540000000 1.0
C      1  0.5145410000000  0.5592130000000  0.4953580000000 1.0
C      1  0.4420960000000  0.4569800000000  0.5642970000000 1.0
C      1  0.4384490000000  0.4985030000000  0.4344060000000 1.0
C      1  0.5299710000000  0.5715590000000  0.5178250000000 1.0
C      1  0.4138750000000  0.4653380000000  0.5092790000000 1.0
C      1  0.4896980000000  0.4625080000000  0.4870400000000 1.0
C      1  0.4652010000000  0.4949000000000  0.4230890000000 1.0
C      1  0.4306630000000  0.5267590000000  0.4413620000000 1.0
C      1  0.5438940000000  0.5156890000000  0.5014620000000 1.0
C      1  0.4557600000000  0.5371110000000  0.5616110000000 1.0
C      1  0.5822280000000  0.4975660000000  0.5108130000000 1.0
C      1  0.4774900000000  0.5435070000000  0.4254770000000 1.0
C      1  0.4424860000000  0.5535500000000  0.5399770000000 1.0
C      1  0.4818730000000  0.5168330000000  0.4142180000000 1.0
C      1  0.4928510000000  0.4657430000000  0.5625360000000 1.0
C      1  0.5082370000000  0.5060460000000  0.4121530000000 1.0
C      1  0.4751430000000  0.5499940000000  0.5836900000000 1.0
C      1  0.4217740000000  0.5105360000000  0.5261530000000 1.0
C      1  0.5908460000000  0.5425390000000  0.5258090000000 1.0
C      1  0.5067840000000  0.4774540000000  0.4103530000000 1.0
C      1  0.5436500000000  0.5287240000000  0.4260310000000 1.0
C      1  0.5389540000000  0.4753010000000  0.5726880000000 1.0
C      1  0.4945280000000  0.4357010000000  0.5681430000000 1.0
C      1  0.5279910000000  0.4683910000000  0.4616470000000 1.0
C      1  0.4277330000000  0.5464940000000  0.4897350000000 1.0
C      1  0.5703120000000  0.5444100000000  0.5042120000000 1.0
C      1  0.4866620000000  0.5722710000000  0.4612690000000 1.0
C      1  0.4798400000000  0.5202910000000  0.5951740000000 1.0
C      1  0.4821170000000  0.4557320000000  0.5141770000000 1.0
C      1  0.4698060000000  0.4975850000000  0.5051310000000 1.0
C      1  0.4571450000000  0.5004620000000  0.5894850000000 1.0
C      1  0.5577970000000  0.4945580000000  0.5674860000000 1.0
C      1  0.4255950000000  0.5004420000000  0.4788970000000 1.0
C      1  0.5632380000000  0.4836860000000  0.4353750000000 1.0
C      1  0.5155800000000  0.4965590000000  0.4483930000000 1.0
C      1  0.5517180000000  0.5687220000000  0.5626260000000 1.0
C      1  0.5367350000000  0.5159520000000  0.5298090000000 1.0
C      1  0.4639020000000  0.4767740000000  0.5686980000000 1.0
C      1  0.5188810000000  0.5970000000000  0.5262930000000 1.0
C      1  0.4757310000000  0.4220630000000  0.5486320000000 1.0
C      1  0.4684210000000  0.5245270000000  0.4638740000000 1.0
C      1  0.4289600000000  0.5380510000000  0.5186110000000 1.0
C      1  0.4697420000000  0.5531310000000  0.4772690000000 1.0
C      1  0.4370980000000  0.5165570000000  0.5738760000000 1.0
C      1  0.4684730000000  0.4476280000000  0.4374810000000 1.0
C      1  0.4134510000000  0.4926090000000  0.5048690000000 1.0
C      1  0.5641890000000  0.5092730000000  0.4224330000000 1.0
C      1  0.5328150000000  0.5371030000000  0.4792400000000 1.0
C      1  0.5227510000000  0.4284070000000  0.5602390000000 1.0
C      1  0.5298340000000  0.4882250000000  0.4954330000000 1.0
C      1  0.4506910000000  0.5893890000000  0.4986380000000 1.0
C      1  0.4993030000000  0.5587270000000  0.4393260000000 1.0
C      1  0.5164790000000  0.5341940000000  0.5367890000000 1.0
C      1  0.5585730000000  0.5172120000000  0.5506930000000 1.0
C      1  0.5239150000000  0.5811310000000  0.5605500000000 1.0
C      1  0.5084170000000  0.5839060000000  0.4783500000000 1.0
C      1  0.5364600000000  0.4048040000000  0.4734170000000 1.0
C      1  0.5693980000000  0.4704190000000  0.5123160000000 1.0
C      1  0.4681790000000  0.4129820000000  0.4544700000000 1.0
C      1  0.5144510000000  0.4489290000000  0.4831340000000 1.0
C      1  0.5004800000000  0.5122120000000  0.5748950000000 1.0
C      1  0.5409900000000  0.4516450000000  0.5561510000000 1.0
C      1  0.4547830000000  0.5791900000000  0.5350350000000 1.0
C      1  0.4502650000000  0.4426600000000  0.4872130000000 1.0
C      1  0.4626100000000  0.4919510000000  0.5424550000000 1.0
C      1  0.4940190000000  0.4147800000000  0.5255610000000 1.0
C      1  0.4854200000000  0.5523830000000  0.5041810000000 1.0
C      1  0.5817590000000  0.5373690000000  0.4771760000000 1.0
C      1  0.5594860000000  0.4486900000000  0.5322820000000 1.0
C      1  0.4943640000000  0.5074240000000  0.4659440000000 1.0
C      1  0.4903070000000  0.5305240000000  0.5253400000000 1.0
C      1  0.4996000000000  0.4696220000000  0.5325770000000 1.0
C      1  0.5177690000000  0.5362780000000  0.5662880000000 1.0
C      1  0.4753630000000  0.5805890000000  0.5132380000000 1.0
C      1  0.5503300000000  0.5557240000000  0.4333620000000 1.0
C      1  0.5303260000000  0.4659130000000  0.3992410000000 1.0
C      1  0.4626980000000  0.4145710000000  0.4831360000000 1.0
C      1  0.4962440000000  0.4159250000000  0.4500110000000 1.0
C      1  0.4191510000000  0.4726740000000  0.5593810000000 1.0
C      1  0.5255040000000  0.5731430000000  0.4346500000000 1.0
C      1  0.5586690000000  0.5705360000000  0.5139380000000 1.0
C      1  0.4768060000000  0.5182750000000  0.5491760000000 1.0
C      1  0.4498030000000  0.4365590000000  0.5447450000000 1.0
C      1  0.5324340000000  0.4460640000000  0.4411920000000 1.0
C      1  0.5256990000000  0.4648670000000  0.5168660000000 1.0
C      1  0.4890510000000  0.4079420000000  0.4967170000000 1.0
C      1  0.5096220000000  0.4183780000000  0.4763110000000 1.0
C      1  0.5682430000000  0.4859690000000  0.4652010000000 1.0
C      1  0.5483980000000  0.5397110000000  0.5699950000000 1.0
C      1  0.4980250000000  0.6003490000000  0.5064570000000 1.0
C      1  0.5504230000000  0.4241100000000  0.4524920000000 1.0
C      1  0.5646980000000  0.4633520000000  0.4840930000000 1.0
C      1  0.5052220000000  0.4362700000000  0.4323900000000 1.0
C      1  0.4299390000000  0.4259880000000  0.5278290000000 1.0
C      1  0.4254260000000  0.4406420000000  0.5043160000000 1.0
C      1  0.5336240000000  0.5855070000000  0.4614440000000 1.0
C      1  0.4530580000000  0.5103900000000  0.4853930000000 1.0
C      1  0.5529020000000  0.5576980000000  0.4653200000000 1.0
END
