TITL C-951347-9520-370 -3.9326360227361e-06 125000 -850.628358150283 0 0 137 (C1) n - 1
REM
REM in /home/bkarasulu/work/CARBON/AIRSS/Generating-Clusters/EDIP-Nigel-Params/with-SteepDescent/Only-C1/SD-CG/HFTN-CG
REM
REM
REM
REM
REM
REM ./C.cell (11c1c37f851c82e70ff6c80c92926a4b)
REM
REM compiler GCC version 9.2.1 20190827 (Red Hat 9.2.1-1)
REM options -cpp -mtune=generic -march=x86-64 -g -O0 -fpre-include=/usr/include/finclude/math-vector-fortran.h
REM seed 1164491101 -587117036 1253945562 1667197790 -112371431 -1480506160 -710142306 -1459801584 -1578345218 142295076 1380895491 -1786802608 -461691415 1006069017 -520140252 -568511416 1621288673 1595307827 1557700113 1286759569 1210777014 1692859272 2019609691 -2031530914 811851743 181691808 -1236457401 1732053708 182891897 1537166972 432903058 -886175701 63362073
REM
CELL 1.54180   50.00000   50.00000   50.00000   90.00000   90.00000   90.00000
LATT -1
SFAC C  
C      1  0.5595550000000  0.4842680000000  0.4201450000000 1.0
C      1  0.5250390000000  0.5230420000000  0.5609000000000 1.0
C      1  0.5136160000000  0.4910370000000  0.4454150000000 1.0
C      1  0.4155730000000  0.4437470000000  0.4391690000000 1.0
C      1  0.5015810000000  0.4129170000000  0.4581610000000 1.0
C      1  0.4355130000000  0.4915450000000  0.5492480000000 1.0
C      1  0.4694680000000  0.5614780000000  0.4229760000000 1.0
C      1  0.4471580000000  0.5519360000000  0.4395210000000 1.0
C      1  0.5583520000000  0.5495330000000  0.5728610000000 1.0
C      1  0.4327980000000  0.5643680000000  0.5095680000000 1.0
C      1  0.4153460000000  0.4451990000000  0.4660870000000 1.0
C      1  0.5236630000000  0.5834190000000  0.4991470000000 1.0
C      1  0.5678940000000  0.5127850000000  0.4152590000000 1.0
C      1  0.5455550000000  0.4388430000000  0.5295530000000 1.0
C      1  0.5473530000000  0.4898500000000  0.4900400000000 1.0
C      1  0.4248300000000  0.4347700000000  0.4902510000000 1.0
C      1  0.4531400000000  0.4270080000000  0.4863530000000 1.0
C      1  0.4485150000000  0.5912710000000  0.5065480000000 1.0
C      1  0.4283360000000  0.5000350000000  0.4689500000000 1.0
C      1  0.5041920000000  0.4945040000000  0.5970970000000 1.0
C      1  0.4749460000000  0.5484230000000  0.3990310000000 1.0
C      1  0.5498760000000  0.4244690000000  0.5033120000000 1.0
C      1  0.5832860000000  0.5375490000000  0.5606650000000 1.0
C      1  0.5211280000000  0.5787100000000  0.5492200000000 1.0
C      1  0.4979290000000  0.4031950000000  0.4854030000000 1.0
C      1  0.4625590000000  0.4460560000000  0.5722070000000 1.0
C      1  0.5207450000000  0.4005630000000  0.5326230000000 1.0
C      1  0.5912020000000  0.5215420000000  0.4288800000000 1.0
C      1  0.5508610000000  0.5605370000000  0.4222630000000 1.0
C      1  0.4778460000000  0.5348860000000  0.5501650000000 1.0
C      1  0.4172320000000  0.5204040000000  0.5156920000000 1.0
C      1  0.5189680000000  0.4576440000000  0.5210690000000 1.0
C      1  0.4485170000000  0.4675050000000  0.5836290000000 1.0
C      1  0.5758520000000  0.4649780000000  0.4351440000000 1.0
C      1  0.5079170000000  0.4622840000000  0.5994550000000 1.0
C      1  0.5649410000000  0.4428200000000  0.4864800000000 1.0
C      1  0.4581900000000  0.4342510000000  0.4310420000000 1.0
C      1  0.4813110000000  0.5231030000000  0.3899220000000 1.0
C      1  0.5415140000000  0.4153150000000  0.5493720000000 1.0
C      1  0.5625810000000  0.5657590000000  0.5260510000000 1.0
C      1  0.5227020000000  0.4091840000000  0.5035460000000 1.0
C      1  0.4926480000000  0.5277970000000  0.4679250000000 1.0
C      1  0.5790220000000  0.4718460000000  0.5684390000000 1.0
C      1  0.4091620000000  0.5335500000000  0.4738710000000 1.0
C      1  0.5059170000000  0.5454640000000  0.5606200000000 1.0
C      1  0.4603320000000  0.4833690000000  0.4051260000000 1.0
C      1  0.4944610000000  0.4626070000000  0.5372350000000 1.0
C      1  0.4568580000000  0.4354920000000  0.5448440000000 1.0
C      1  0.4707400000000  0.5032830000000  0.5095100000000 1.0
C      1  0.5919890000000  0.4940900000000  0.4689840000000 1.0
C      1  0.4045140000000  0.4751960000000  0.5123720000000 1.0
C      1  0.4763220000000  0.5007060000000  0.6008080000000 1.0
C      1  0.5394270000000  0.4667580000000  0.4697280000000 1.0
C      1  0.5047600000000  0.5187000000000  0.4404680000000 1.0
C      1  0.5327350000000  0.4432330000000  0.4291990000000 1.0
C      1  0.4702190000000  0.5478210000000  0.5882720000000 1.0
C      1  0.4922900000000  0.4889690000000  0.5480450000000 1.0
C      1  0.5967140000000  0.5336940000000  0.5108860000000 1.0
C      1  0.4820460000000  0.5520430000000  0.5253110000000 1.0
C      1  0.5042470000000  0.4431350000000  0.4987910000000 1.0
C      1  0.5560060000000  0.4474030000000  0.4489980000000 1.0
C      1  0.4201040000000  0.5457460000000  0.5321400000000 1.0
C      1  0.4992630000000  0.5090850000000  0.4985070000000 1.0
C      1  0.4719690000000  0.4133080000000  0.5322690000000 1.0
C      1  0.5403900000000  0.5685570000000  0.4479030000000 1.0
C      1  0.4694150000000  0.5939060000000  0.5271040000000 1.0
C      1  0.5064030000000  0.4323730000000  0.4371180000000 1.0
C      1  0.4516100000000  0.5225660000000  0.4970360000000 1.0
C      1  0.5322750000000  0.4215160000000  0.5765820000000 1.0
C      1  0.5411780000000  0.5281160000000  0.5858910000000 1.0
C      1  0.5111360000000  0.5596070000000  0.4550450000000 1.0
C      1  0.4667470000000  0.4697470000000  0.4542540000000 1.0
C      1  0.5037770000000  0.5112840000000  0.4027360000000 1.0
C      1  0.5451600000000  0.5629430000000  0.5493730000000 1.0
C      1  0.5842590000000  0.5190440000000  0.4560740000000 1.0
C      1  0.4616200000000  0.4315360000000  0.4592800000000 1.0
C      1  0.5973700000000  0.4736500000000  0.4507610000000 1.0
C      1  0.5456750000000  0.5333560000000  0.4147210000000 1.0
C      1  0.4521170000000  0.5613790000000  0.5702180000000 1.0
C      1  0.4741720000000  0.4531450000000  0.5153930000000 1.0
C      1  0.5357470000000  0.4797940000000  0.5612780000000 1.0
C      1  0.4511130000000  0.4946720000000  0.5906210000000 1.0
C      1  0.4915980000000  0.5743560000000  0.4366270000000 1.0
C      1  0.4141520000000  0.4485880000000  0.5122870000000 1.0
C      1  0.4973080000000  0.4095440000000  0.5465390000000 1.0
C      1  0.5874530000000  0.4991270000000  0.5624010000000 1.0
C      1  0.5324390000000  0.4713910000000  0.4176990000000 1.0
C      1  0.4150360000000  0.4954820000000  0.5304350000000 1.0
C      1  0.4406680000000  0.5683670000000  0.4633420000000 1.0
C      1  0.5583810000000  0.5607090000000  0.4709300000000 1.0
C      1  0.5165790000000  0.5306800000000  0.6034500000000 1.0
C      1  0.5036220000000  0.5762540000000  0.4791250000000 1.0
C      1  0.4614580000000  0.5296360000000  0.4680450000000 1.0
C      1  0.4986370000000  0.5485490000000  0.5888310000000 1.0
C      1  0.4382260000000  0.5116770000000  0.5694400000000 1.0
C      1  0.5804540000000  0.4607790000000  0.5050370000000 1.0
C      1  0.4576510000000  0.5479960000000  0.5084420000000 1.0
C      1  0.4441410000000  0.5134350000000  0.4454840000000 1.0
C      1  0.5858780000000  0.5488740000000  0.5322340000000 1.0
C      1  0.4901330000000  0.4437790000000  0.5826160000000 1.0
C      1  0.4699550000000  0.5054920000000  0.5400970000000 1.0
C      1  0.5281510000000  0.4872250000000  0.5132030000000 1.0
C      1  0.5874300000000  0.5078900000000  0.5155620000000 1.0
C      1  0.4555840000000  0.5906980000000  0.4763750000000 1.0
C      1  0.4835190000000  0.5937390000000  0.4675470000000 1.0
C      1  0.4463230000000  0.4754760000000  0.4762340000000 1.0
C      1  0.5682420000000  0.4597170000000  0.5332980000000 1.0
C      1  0.3967460000000  0.4898180000000  0.4883810000000 1.0
C      1  0.5137590000000  0.5930800000000  0.5250110000000 1.0
C      1  0.4916370000000  0.6105540000000  0.5240660000000 1.0
C      1  0.5047340000000  0.5362580000000  0.5093670000000 1.0
C      1  0.4674920000000  0.5777360000000  0.5507970000000 1.0
C      1  0.5531290000000  0.4719100000000  0.5821490000000 1.0
C      1  0.4839700000000  0.4411070000000  0.4197050000000 1.0
C      1  0.4946550000000  0.4769480000000  0.4632830000000 1.0
C      1  0.5460770000000  0.5633690000000  0.4996860000000 1.0
C      1  0.5780550000000  0.4885150000000  0.4950480000000 1.0
C      1  0.4351540000000  0.5402230000000  0.5578550000000 1.0
C      1  0.4606980000000  0.4767520000000  0.5024530000000 1.0
C      1  0.5712360000000  0.5075860000000  0.5393580000000 1.0
C      1  0.5039480000000  0.4203160000000  0.5729480000000 1.0
C      1  0.5418240000000  0.5177440000000  0.4840460000000 1.0
C      1  0.3973860000000  0.5182440000000  0.4940670000000 1.0
C      1  0.4600560000000  0.4909770000000  0.4336130000000 1.0
C      1  0.5574500000000  0.5308730000000  0.4637830000000 1.0
C      1  0.4207940000000  0.5585360000000  0.4817530000000 1.0
C      1  0.5130370000000  0.4968540000000  0.5670540000000 1.0
C      1  0.4844150000000  0.4654520000000  0.4018710000000 1.0
C      1  0.5364170000000  0.4530190000000  0.5968160000000 1.0
C      1  0.5088160000000  0.4826150000000  0.4023690000000 1.0
C      1  0.4731820000000  0.4119540000000  0.5017010000000 1.0
C      1  0.5503550000000  0.4855670000000  0.5364070000000 1.0
C      1  0.5331170000000  0.5370150000000  0.5037570000000 1.0
C      1  0.4602850000000  0.5050230000000  0.3869630000000 1.0
C      1  0.5345320000000  0.5255180000000  0.4413910000000 1.0
C      1  0.4329690000000  0.4388290000000  0.4191730000000 1.0
C      1  0.5115690000000  0.4569250000000  0.4736960000000 1.0
END
