TITL C-950536-5891-81 -9.92044304664706e-07 125000 -824.09927439147 0 0 133 (C1) n - 1
REM
REM in /home/bkarasulu/work/CARBON/AIRSS/Generating-Clusters/EDIP-Nigel-Params/with-SteepDescent/Only-C1/SD-CG/HFTN-CG
REM
REM
REM
REM
REM
REM ./C.cell (11c1c37f851c82e70ff6c80c92926a4b)
REM
REM compiler GCC version 9.2.1 20190827 (Red Hat 9.2.1-1)
REM options -cpp -mtune=generic -march=x86-64 -g -O0 -fpre-include=/usr/include/finclude/math-vector-fortran.h
REM seed 786717613 823058726 -689203701 614201226 -2065480785 -128128672 1079287908 -958838794 -858057020 -44411303 1487129988 -535189837 -1876297323 2013963434 -1074302107 1362318236 936115194 1874226004 -1252717901 171909273 1177025668 -1026216757 1529484948 769373355 -1836539054 142699129 407575950 -205427348 -671169870 -246259409 -768856889 -1126299359 1846310133
REM
CELL 1.54180   50.00000   50.00000   50.00000   90.00000   90.00000   90.00000
LATT -1
SFAC C  
C      1  0.5263640000000  0.5485760000000  0.4490920000000 1.0
C      1  0.4951380000000  0.5221810000000  0.5194790000000 1.0
C      1  0.5860810000000  0.4615020000000  0.4887570000000 1.0
C      1  0.3982200000000  0.4911360000000  0.4599640000000 1.0
C      1  0.4366700000000  0.5567840000000  0.5539420000000 1.0
C      1  0.4221870000000  0.4380320000000  0.4647050000000 1.0
C      1  0.5059950000000  0.4604240000000  0.4701480000000 1.0
C      1  0.4549060000000  0.4548960000000  0.5600160000000 1.0
C      1  0.4285350000000  0.5013390000000  0.5578520000000 1.0
C      1  0.4440620000000  0.5474500000000  0.4321060000000 1.0
C      1  0.4652570000000  0.4430750000000  0.4533020000000 1.0
C      1  0.4982260000000  0.5785100000000  0.5509670000000 1.0
C      1  0.4962960000000  0.4961500000000  0.5085490000000 1.0
C      1  0.5253090000000  0.5762630000000  0.4890750000000 1.0
C      1  0.5321230000000  0.5460470000000  0.5205850000000 1.0
C      1  0.5675360000000  0.5163030000000  0.5611190000000 1.0
C      1  0.4988450000000  0.4199770000000  0.5432080000000 1.0
C      1  0.4770990000000  0.5028180000000  0.4218400000000 1.0
C      1  0.4761040000000  0.5655700000000  0.5353850000000 1.0
C      1  0.5265870000000  0.4931150000000  0.5022290000000 1.0
C      1  0.4117410000000  0.5156510000000  0.5371930000000 1.0
C      1  0.5120360000000  0.5980830000000  0.5051070000000 1.0
C      1  0.5636730000000  0.4433680000000  0.4922760000000 1.0
C      1  0.5344540000000  0.4653090000000  0.5160400000000 1.0
C      1  0.5912560000000  0.4701050000000  0.5172960000000 1.0
C      1  0.4219870000000  0.4652180000000  0.5290590000000 1.0
C      1  0.4680270000000  0.5924190000000  0.4763160000000 1.0
C      1  0.5481090000000  0.4171840000000  0.5352330000000 1.0
C      1  0.5784510000000  0.5461220000000  0.5505940000000 1.0
C      1  0.5173420000000  0.4893280000000  0.5518740000000 1.0
C      1  0.4741590000000  0.5577580000000  0.4356730000000 1.0
C      1  0.4983100000000  0.4049550000000  0.4560100000000 1.0
C      1  0.5557050000000  0.4430490000000  0.5612060000000 1.0
C      1  0.4097180000000  0.5171360000000  0.4547460000000 1.0
C      1  0.3946180000000  0.4942670000000  0.5101070000000 1.0
C      1  0.5302810000000  0.4812210000000  0.4153560000000 1.0
C      1  0.5774550000000  0.4646330000000  0.5525750000000 1.0
C      1  0.4506120000000  0.4317860000000  0.5414500000000 1.0
C      1  0.5887660000000  0.5510130000000  0.4665890000000 1.0
C      1  0.4749240000000  0.5234320000000  0.4713940000000 1.0
C      1  0.5431180000000  0.5715940000000  0.5326960000000 1.0
C      1  0.4838050000000  0.5722260000000  0.4601220000000 1.0
C      1  0.5418890000000  0.5220380000000  0.5765130000000 1.0
C      1  0.5743280000000  0.5746300000000  0.4681830000000 1.0
C      1  0.5051550000000  0.4915650000000  0.4710390000000 1.0
C      1  0.5467450000000  0.5052700000000  0.4114990000000 1.0
C      1  0.3908550000000  0.4794890000000  0.4854680000000 1.0
C      1  0.5225520000000  0.4056450000000  0.4733020000000 1.0
C      1  0.5419580000000  0.4238820000000  0.4592190000000 1.0
C      1  0.4787880000000  0.4681900000000  0.5984420000000 1.0
C      1  0.4310250000000  0.4408050000000  0.4366920000000 1.0
C      1  0.4625290000000  0.4987780000000  0.4801320000000 1.0
C      1  0.4839820000000  0.5644570000000  0.5056000000000 1.0
C      1  0.4878950000000  0.4579610000000  0.4118520000000 1.0
C      1  0.5777510000000  0.4881880000000  0.5726620000000 1.0
C      1  0.5342960000000  0.4284860000000  0.4311770000000 1.0
C      1  0.5452410000000  0.4557790000000  0.4225300000000 1.0
C      1  0.4840380000000  0.5384550000000  0.5774180000000 1.0
C      1  0.5201700000000  0.5011700000000  0.5788790000000 1.0
C      1  0.5241920000000  0.5472580000000  0.4214410000000 1.0
C      1  0.5871150000000  0.5026220000000  0.4449100000000 1.0
C      1  0.4419970000000  0.4651420000000  0.4226850000000 1.0
C      1  0.4485270000000  0.4770720000000  0.5191760000000 1.0
C      1  0.5341320000000  0.5290620000000  0.4045760000000 1.0
C      1  0.5198950000000  0.5915270000000  0.5339030000000 1.0
C      1  0.4611430000000  0.4578140000000  0.4036750000000 1.0
C      1  0.5962870000000  0.5406680000000  0.4946890000000 1.0
C      1  0.5448750000000  0.5271960000000  0.4622860000000 1.0
C      1  0.4763170000000  0.5274310000000  0.4414120000000 1.0
C      1  0.4950300000000  0.4787300000000  0.5338220000000 1.0
C      1  0.4340870000000  0.5184090000000  0.4375300000000 1.0
C      1  0.4271180000000  0.5664060000000  0.4449580000000 1.0
C      1  0.5776660000000  0.4759600000000  0.4563850000000 1.0
C      1  0.4517100000000  0.5314760000000  0.5147580000000 1.0
C      1  0.5506450000000  0.4784010000000  0.4680010000000 1.0
C      1  0.5557880000000  0.5804660000000  0.4882620000000 1.0
C      1  0.5861770000000  0.4979140000000  0.5200710000000 1.0
C      1  0.5864890000000  0.5116800000000  0.4945540000000 1.0
C      1  0.5213830000000  0.4110140000000  0.5260680000000 1.0
C      1  0.5714550000000  0.4590150000000  0.4335390000000 1.0
C      1  0.4497850000000  0.4939730000000  0.4295490000000 1.0
C      1  0.4549480000000  0.5427740000000  0.5737740000000 1.0
C      1  0.5339910000000  0.5496130000000  0.5736380000000 1.0
C      1  0.4240720000000  0.4720690000000  0.5581550000000 1.0
C      1  0.4648690000000  0.4128110000000  0.4981540000000 1.0
C      1  0.4555000000000  0.4698610000000  0.4714140000000 1.0
C      1  0.5854880000000  0.5561340000000  0.5211900000000 1.0
C      1  0.5595530000000  0.5279510000000  0.4908350000000 1.0
C      1  0.5330150000000  0.4762960000000  0.5913480000000 1.0
C      1  0.4928860000000  0.5126010000000  0.5871410000000 1.0
C      1  0.5050470000000  0.4229400000000  0.4329840000000 1.0
C      1  0.4734180000000  0.4219620000000  0.5266740000000 1.0
C      1  0.5663260000000  0.5784170000000  0.5152210000000 1.0
C      1  0.4594900000000  0.5072670000000  0.5584420000000 1.0
C      1  0.5607850000000  0.4812040000000  0.5940870000000 1.0
C      1  0.4724530000000  0.5303130000000  0.5354680000000 1.0
C      1  0.4499510000000  0.5790630000000  0.5392950000000 1.0
C      1  0.4662890000000  0.4794110000000  0.5437870000000 1.0
C      1  0.4740990000000  0.4176220000000  0.4691680000000 1.0
C      1  0.4999440000000  0.4837770000000  0.4139590000000 1.0
C      1  0.4779680000000  0.4493120000000  0.5784260000000 1.0
C      1  0.5433130000000  0.4792260000000  0.5410800000000 1.0
C      1  0.4156660000000  0.5117250000000  0.4981460000000 1.0
C      1  0.4246840000000  0.4661560000000  0.4722700000000 1.0
C      1  0.5143970000000  0.4168220000000  0.4987200000000 1.0
C      1  0.4302570000000  0.5588680000000  0.4724690000000 1.0
C      1  0.5028180000000  0.4411930000000  0.5650220000000 1.0
C      1  0.5617730000000  0.4379680000000  0.5207150000000 1.0
C      1  0.5296410000000  0.4523750000000  0.5734520000000 1.0
C      1  0.5729870000000  0.5303610000000  0.4494650000000 1.0
C      1  0.5604980000000  0.5040880000000  0.5339230000000 1.0
C      1  0.4276770000000  0.4364430000000  0.5234050000000 1.0
C      1  0.5748730000000  0.5067700000000  0.4185060000000 1.0
C      1  0.5325990000000  0.4995950000000  0.4595510000000 1.0
C      1  0.4105440000000  0.5354250000000  0.4783450000000 1.0
C      1  0.5132590000000  0.5710320000000  0.4625960000000 1.0
C      1  0.4266260000000  0.5407200000000  0.5296830000000 1.0
C      1  0.5432260000000  0.5185200000000  0.5135210000000 1.0
C      1  0.5076670000000  0.5446910000000  0.5041660000000 1.0
C      1  0.4745330000000  0.4946070000000  0.5969250000000 1.0
C      1  0.4628940000000  0.5464350000000  0.4894170000000 1.0
C      1  0.4454150000000  0.5037000000000  0.5037120000000 1.0
C      1  0.4407960000000  0.5841170000000  0.4868400000000 1.0
C      1  0.4605350000000  0.4569860000000  0.4977860000000 1.0
C      1  0.4380880000000  0.5860940000000  0.5148340000000 1.0
C      1  0.5055930000000  0.5559990000000  0.5680540000000 1.0
C      1  0.5388630000000  0.4511320000000  0.4744810000000 1.0
C      1  0.4837760000000  0.6023170000000  0.4990360000000 1.0
C      1  0.5551800000000  0.5638390000000  0.5587930000000 1.0
C      1  0.5062700000000  0.4524900000000  0.5224650000000 1.0
C      1  0.4403830000000  0.4323530000000  0.4957990000000 1.0
C      1  0.4922170000000  0.4486030000000  0.4399060000000 1.0
C      1  0.4917650000000  0.4479220000000  0.4956650000000 1.0
END
