TITL C-951345-2650-430 0.00313183475214774 125000 -718.913980400538 0 0 117 (C1) n - 1
REM
REM in /home/bkarasulu/work/CARBON/AIRSS/Generating-Clusters/EDIP-Nigel-Params/with-SteepDescent/Only-C1/SD-CG/HFTN-CG
REM
REM
REM
REM
REM
REM ./C.cell (11c1c37f851c82e70ff6c80c92926a4b)
REM
REM compiler GCC version 9.2.1 20190827 (Red Hat 9.2.1-1)
REM options -cpp -mtune=generic -march=x86-64 -g -O0 -fpre-include=/usr/include/finclude/math-vector-fortran.h
REM seed 1507472004 -1131102361 286389709 -1538333756 1405443553 -1425726320 485440623 -1137614849 1122199028 1751846729 -579243057 622387924 716584414 836678919 -1972843736 -553967697 -1061550596 -665183136 540854557 -1236239482 524251810 -2010517148 -370362267 -608798714 1739368081 1591064353 -272607962 810738260 1305683167 -395504499 2056781543 350350051 -1668129807
REM
CELL 1.54180   50.00000   50.00000   50.00000   90.00000   90.00000   90.00000
LATT -1
SFAC C  
C      1  0.5177780000000  0.4267180000000  0.5615220000000 1.0
C      1  0.5760460000000  0.4995270000000  0.4624650000000 1.0
C      1  0.5489180000000  0.4861450000000  0.5883030000000 1.0
C      1  0.5746420000000  0.4452790000000  0.5324920000000 1.0
C      1  0.4258760000000  0.5062170000000  0.4460910000000 1.0
C      1  0.5772760000000  0.5452990000000  0.4716850000000 1.0
C      1  0.4239300000000  0.5246790000000  0.4678500000000 1.0
C      1  0.4339220000000  0.5069580000000  0.5124020000000 1.0
C      1  0.5065820000000  0.4493210000000  0.4877810000000 1.0
C      1  0.4410830000000  0.4234580000000  0.4960720000000 1.0
C      1  0.4781190000000  0.4584730000000  0.4786430000000 1.0
C      1  0.4934800000000  0.5451740000000  0.5067680000000 1.0
C      1  0.5169240000000  0.6060040000000  0.5093070000000 1.0
C      1  0.5803230000000  0.4712760000000  0.4685780000000 1.0
C      1  0.4829570000000  0.5040590000000  0.5878720000000 1.0
C      1  0.5626730000000  0.5485500000000  0.4468760000000 1.0
C      1  0.5656700000000  0.4504900000000  0.4521050000000 1.0
C      1  0.5326580000000  0.5811960000000  0.5076070000000 1.0
C      1  0.4516630000000  0.5670930000000  0.4477460000000 1.0
C      1  0.5334180000000  0.4877390000000  0.4248960000000 1.0
C      1  0.4268460000000  0.4782090000000  0.4536540000000 1.0
C      1  0.5546610000000  0.4639150000000  0.5458650000000 1.0
C      1  0.4451900000000  0.5229600000000  0.4888320000000 1.0
C      1  0.3960200000000  0.4793310000000  0.4934070000000 1.0
C      1  0.4088520000000  0.4657940000000  0.4722080000000 1.0
C      1  0.5580990000000  0.5845410000000  0.4953170000000 1.0
C      1  0.4010180000000  0.5078560000000  0.5327280000000 1.0
C      1  0.4329980000000  0.5615760000000  0.4689890000000 1.0
C      1  0.5527550000000  0.4170730000000  0.4932560000000 1.0
C      1  0.4443570000000  0.5578360000000  0.4224710000000 1.0
C      1  0.5563260000000  0.5560420000000  0.5436740000000 1.0
C      1  0.4796930000000  0.4562660000000  0.5788390000000 1.0
C      1  0.5114100000000  0.4122380000000  0.5206380000000 1.0
C      1  0.5923220000000  0.4600020000000  0.5165700000000 1.0
C      1  0.5753970000000  0.4720230000000  0.4973660000000 1.0
C      1  0.5844950000000  0.5188910000000  0.4825390000000 1.0
C      1  0.5668240000000  0.4848270000000  0.5637590000000 1.0
C      1  0.5371550000000  0.5285130000000  0.5231260000000 1.0
C      1  0.4808870000000  0.4108420000000  0.4731680000000 1.0
C      1  0.4555460000000  0.5016420000000  0.5840750000000 1.0
C      1  0.4348800000000  0.4802760000000  0.4965650000000 1.0
C      1  0.4840110000000  0.4855480000000  0.4632700000000 1.0
C      1  0.4370770000000  0.4290390000000  0.4681170000000 1.0
C      1  0.4784000000000  0.4695980000000  0.5291520000000 1.0
C      1  0.5450920000000  0.5383450000000  0.4261040000000 1.0
C      1  0.4934910000000  0.4495810000000  0.4296250000000 1.0
C      1  0.5025380000000  0.4475810000000  0.5330020000000 1.0
C      1  0.5385360000000  0.5113100000000  0.5952580000000 1.0
C      1  0.5790890000000  0.5173490000000  0.5212970000000 1.0
C      1  0.5614840000000  0.4272210000000  0.4683470000000 1.0
C      1  0.4299570000000  0.4409080000000  0.5158540000000 1.0
C      1  0.4902360000000  0.4279550000000  0.5707780000000 1.0
C      1  0.4762550000000  0.5927920000000  0.4989090000000 1.0
C      1  0.5261270000000  0.4680120000000  0.5849230000000 1.0
C      1  0.5134900000000  0.5426520000000  0.5704340000000 1.0
C      1  0.4572020000000  0.4828640000000  0.4215870000000 1.0
C      1  0.4848330000000  0.4777190000000  0.4317460000000 1.0
C      1  0.5216170000000  0.5034290000000  0.5372770000000 1.0
C      1  0.5248380000000  0.4102320000000  0.4949780000000 1.0
C      1  0.4679390000000  0.4125190000000  0.4997250000000 1.0
C      1  0.4981690000000  0.5220370000000  0.4215570000000 1.0
C      1  0.4716850000000  0.4323810000000  0.4317390000000 1.0
C      1  0.5386560000000  0.4806750000000  0.5246200000000 1.0
C      1  0.4656330000000  0.4333330000000  0.4603030000000 1.0
C      1  0.4929340000000  0.5151740000000  0.5019870000000 1.0
C      1  0.5188740000000  0.4603960000000  0.5130360000000 1.0
C      1  0.4195610000000  0.4619170000000  0.5329090000000 1.0
C      1  0.5229460000000  0.4618440000000  0.4688190000000 1.0
C      1  0.5099910000000  0.4152040000000  0.4701040000000 1.0
C      1  0.5174670000000  0.6013410000000  0.4710870000000 1.0
C      1  0.5191220000000  0.5061240000000  0.4903690000000 1.0
C      1  0.5338900000000  0.5226100000000  0.5689110000000 1.0
C      1  0.5147390000000  0.5469250000000  0.4201640000000 1.0
C      1  0.4627860000000  0.4570360000000  0.5535310000000 1.0
C      1  0.5180050000000  0.5639590000000  0.5493520000000 1.0
C      1  0.5484900000000  0.5095060000000  0.4584700000000 1.0
C      1  0.5509160000000  0.5105050000000  0.4197100000000 1.0
C      1  0.5026470000000  0.5683980000000  0.4396280000000 1.0
C      1  0.4388600000000  0.4638900000000  0.4325440000000 1.0
C      1  0.4981340000000  0.4787230000000  0.5822880000000 1.0
C      1  0.5648050000000  0.4237570000000  0.5176010000000 1.0
C      1  0.5750010000000  0.5113950000000  0.5513310000000 1.0
C      1  0.5592600000000  0.5337790000000  0.5615910000000 1.0
C      1  0.5055830000000  0.4943390000000  0.4189970000000 1.0
C      1  0.4353940000000  0.4681510000000  0.5564580000000 1.0
C      1  0.4679310000000  0.5732860000000  0.5588960000000 1.0
C      1  0.4602530000000  0.4625530000000  0.5036620000000 1.0
C      1  0.4536960000000  0.5336920000000  0.4119840000000 1.0
C      1  0.5383000000000  0.5289360000000  0.4845210000000 1.0
C      1  0.4787310000000  0.5616150000000  0.4574890000000 1.0
C      1  0.4478510000000  0.5528760000000  0.4929160000000 1.0
C      1  0.5237880000000  0.5755980000000  0.4584270000000 1.0
C      1  0.4913390000000  0.6003930000000  0.5243410000000 1.0
C      1  0.4488610000000  0.5100540000000  0.4287270000000 1.0
C      1  0.5343020000000  0.4497430000000  0.5638910000000 1.0
C      1  0.4810140000000  0.5355670000000  0.4038500000000 1.0
C      1  0.4913870000000  0.6088040000000  0.4798490000000 1.0
C      1  0.5433210000000  0.4586520000000  0.4300850000000 1.0
C      1  0.4344980000000  0.4951670000000  0.5669530000000 1.0
C      1  0.4583990000000  0.5749900000000  0.5856200000000 1.0
C      1  0.4233750000000  0.5142530000000  0.5488000000000 1.0
C      1  0.4917250000000  0.5301210000000  0.5825570000000 1.0
C      1  0.5190960000000  0.4430960000000  0.4446540000000 1.0
C      1  0.5156240000000  0.4898820000000  0.4650870000000 1.0
C      1  0.5599680000000  0.4969600000000  0.5043050000000 1.0
C      1  0.4935300000000  0.5827920000000  0.5487780000000 1.0
C      1  0.4720450000000  0.5093000000000  0.4809480000000 1.0
C      1  0.4473590000000  0.5910910000000  0.5670090000000 1.0
C      1  0.4758960000000  0.5634160000000  0.4894810000000 1.0
C      1  0.4914410000000  0.4993550000000  0.5285670000000 1.0
C      1  0.5237950000000  0.5522550000000  0.4751260000000 1.0
C      1  0.5689870000000  0.5590330000000  0.4953810000000 1.0
C      1  0.4713140000000  0.4203460000000  0.5491330000000 1.0
C      1  0.5192600000000  0.5547470000000  0.5196270000000 1.0
C      1  0.4829030000000  0.4101880000000  0.5244000000000 1.0
C      1  0.3994390000000  0.4809300000000  0.5221860000000 1.0
C      1  0.5751430000000  0.5479500000000  0.5211580000000 1.0
END
