TITL C-950530-3293-436 -2.03350335897363e-06 125000 -378.221658184802 0 0 62 (C1) n - 1
REM
REM in /home/bkarasulu/work/CARBON/AIRSS/Generating-Clusters/EDIP-Nigel-Params/with-SteepDescent/Only-C1/SD-CG/HFTN-CG
REM
REM
REM
REM
REM
REM ./C.cell (11c1c37f851c82e70ff6c80c92926a4b)
REM
REM compiler GCC version 9.2.1 20190827 (Red Hat 9.2.1-1)
REM options -cpp -mtune=generic -march=x86-64 -g -O0 -fpre-include=/usr/include/finclude/math-vector-fortran.h
REM seed 90862033 -449870902 47185029 1790102983 -876982125 -74434603 -847983116 -1148415825 1655579100 -1288413524 -1617891166 -1174647008 -179064018 -1305975338 -1510468635 -1883263470 707422291 1862423527 1598237073 -2058240650 -969817070 62343833 -2120065381 1234141968 -139321800 -360393162 -1642443518 2122780115 501624732 -1159225470 802067415 624805980 -1114588554
REM
CELL 1.54180   50.00000   50.00000   50.00000   90.00000   90.00000   90.00000
LATT -1
SFAC C  
C      1  0.4506970000000  0.4513750000000  0.5257620000000 1.0
C      1  0.5257780000000  0.4779880000000  0.4429610000000 1.0
C      1  0.4809710000000  0.5611670000000  0.4658300000000 1.0
C      1  0.5517720000000  0.4298560000000  0.4871210000000 1.0
C      1  0.4353680000000  0.4755550000000  0.5175430000000 1.0
C      1  0.4458280000000  0.4918970000000  0.4933920000000 1.0
C      1  0.5678220000000  0.5113360000000  0.5051600000000 1.0
C      1  0.5248870000000  0.5534150000000  0.5615820000000 1.0
C      1  0.5468320000000  0.5637720000000  0.5475430000000 1.0
C      1  0.4900370000000  0.5769080000000  0.5304770000000 1.0
C      1  0.4752990000000  0.4999280000000  0.4985010000000 1.0
C      1  0.4665350000000  0.4349460000000  0.4776600000000 1.0
C      1  0.4743890000000  0.4552050000000  0.4357600000000 1.0
C      1  0.5616510000000  0.4657070000000  0.5198710000000 1.0
C      1  0.5231170000000  0.4916650000000  0.5010700000000 1.0
C      1  0.4959190000000  0.4362300000000  0.4443080000000 1.0
C      1  0.5263860000000  0.5317150000000  0.4828240000000 1.0
C      1  0.4827280000000  0.4785880000000  0.4225040000000 1.0
C      1  0.5471680000000  0.5031900000000  0.5500180000000 1.0
C      1  0.4979640000000  0.4864270000000  0.4873720000000 1.0
C      1  0.4927880000000  0.4453350000000  0.5505780000000 1.0
C      1  0.4619260000000  0.5399210000000  0.5261920000000 1.0
C      1  0.5499770000000  0.4906890000000  0.4525940000000 1.0
C      1  0.5631950000000  0.5209830000000  0.5319030000000 1.0
C      1  0.4330550000000  0.5363610000000  0.4744930000000 1.0
C      1  0.5537740000000  0.4858080000000  0.4993780000000 1.0
C      1  0.4759340000000  0.5361990000000  0.4519760000000 1.0
C      1  0.4688830000000  0.4606060000000  0.5476020000000 1.0
C      1  0.5042790000000  0.4939450000000  0.4314280000000 1.0
C      1  0.4484530000000  0.5265280000000  0.4530110000000 1.0
C      1  0.5588380000000  0.4392710000000  0.5112440000000 1.0
C      1  0.5246400000000  0.5344000000000  0.4523870000000 1.0
C      1  0.5294420000000  0.5278330000000  0.5739230000000 1.0
C      1  0.4610840000000  0.4578570000000  0.4612840000000 1.0
C      1  0.4776040000000  0.5805540000000  0.4878740000000 1.0
C      1  0.5518150000000  0.5199750000000  0.4546770000000 1.0
C      1  0.5222290000000  0.4492150000000  0.4479890000000 1.0
C      1  0.5569270000000  0.5486200000000  0.5265810000000 1.0
C      1  0.5563610000000  0.5348440000000  0.4904690000000 1.0
C      1  0.4996170000000  0.5544880000000  0.5472240000000 1.0
C      1  0.4430380000000  0.4797790000000  0.4660290000000 1.0
C      1  0.5056620000000  0.4825620000000  0.5251710000000 1.0
C      1  0.4431040000000  0.4998170000000  0.4463910000000 1.0
C      1  0.4293570000000  0.5175110000000  0.4953650000000 1.0
C      1  0.5319180000000  0.4559790000000  0.5559030000000 1.0
C      1  0.5122930000000  0.5065130000000  0.5670090000000 1.0
C      1  0.4355210000000  0.5246540000000  0.5241540000000 1.0
C      1  0.5526280000000  0.4735280000000  0.5469840000000 1.0
C      1  0.4867080000000  0.4192300000000  0.4657140000000 1.0
C      1  0.4808350000000  0.5274240000000  0.5069590000000 1.0
C      1  0.4622650000000  0.5698380000000  0.5194870000000 1.0
C      1  0.4768340000000  0.5370970000000  0.5531400000000 1.0
C      1  0.5129880000000  0.4563500000000  0.5359680000000 1.0
C      1  0.5409710000000  0.4351500000000  0.4631180000000 1.0
C      1  0.5000970000000  0.5214080000000  0.4421330000000 1.0
C      1  0.4407560000000  0.4979230000000  0.5373910000000 1.0
C      1  0.4603820000000  0.4354170000000  0.5047000000000 1.0
C      1  0.4841560000000  0.5095910000000  0.5608750000000 1.0
C      1  0.5018260000000  0.5457110000000  0.4948170000000 1.0
C      1  0.5626920000000  0.4767390000000  0.4730970000000 1.0
C      1  0.4710640000000  0.4906440000000  0.5413480000000 1.0
C      1  0.5029380000000  0.5768290000000  0.5041800000000 1.0
END
