TITL C-951348-1603-477 -2.05846044571143e-07 125000 -631.828470543858 0 0 101 (C1) n - 1
REM
REM in /home/bkarasulu/work/CARBON/AIRSS/Generating-Clusters/EDIP-Nigel-Params/with-SteepDescent/Only-C1/SD-CG/HFTN-CG
REM
REM
REM
REM
REM
REM ./C.cell (11c1c37f851c82e70ff6c80c92926a4b)
REM
REM compiler GCC version 9.2.1 20190827 (Red Hat 9.2.1-1)
REM options -cpp -mtune=generic -march=x86-64 -g -O0 -fpre-include=/usr/include/finclude/math-vector-fortran.h
REM seed -1597759138 700169376 -2000525856 1929194348 -784201828 -1198147848 -125136280 -2085539530 891856700 1815794401 -1365496643 1058812111 1307024677 -1423182492 970057550 521531239 -526091189 1660886853 2117728570 855524377 789026506 997325016 -750905968 1442066864 -353819580 -144057795 1885020794 574996317 998419373 1819605325 -1538268791 -55878683 1973390180
REM
CELL 1.54180   50.00000   50.00000   50.00000   90.00000   90.00000   90.00000
LATT -1
SFAC C  
C      1  0.5226470000000  0.5251760000000  0.4192690000000 1.0
C      1  0.5613220000000  0.5361130000000  0.4533800000000 1.0
C      1  0.4190770000000  0.4371340000000  0.5485520000000 1.0
C      1  0.4829390000000  0.4918250000000  0.5814140000000 1.0
C      1  0.5199530000000  0.5326500000000  0.5720950000000 1.0
C      1  0.5579900000000  0.4680040000000  0.5466170000000 1.0
C      1  0.5280890000000  0.4380160000000  0.4562110000000 1.0
C      1  0.5407630000000  0.5749550000000  0.4841680000000 1.0
C      1  0.4597340000000  0.4986400000000  0.4962820000000 1.0
C      1  0.5606210000000  0.4423990000000  0.4866100000000 1.0
C      1  0.5479100000000  0.5144930000000  0.5217640000000 1.0
C      1  0.5852710000000  0.5077460000000  0.5336320000000 1.0
C      1  0.4252990000000  0.4824060000000  0.4657510000000 1.0
C      1  0.4742600000000  0.4185310000000  0.4632350000000 1.0
C      1  0.4658640000000  0.4278250000000  0.5481330000000 1.0
C      1  0.4641140000000  0.5427510000000  0.5219920000000 1.0
C      1  0.5412460000000  0.5127350000000  0.5733820000000 1.0
C      1  0.5048160000000  0.4537100000000  0.4831230000000 1.0
C      1  0.4578880000000  0.4971170000000  0.5668730000000 1.0
C      1  0.4800360000000  0.5116260000000  0.4287450000000 1.0
C      1  0.5150950000000  0.5762010000000  0.4711160000000 1.0
C      1  0.5340250000000  0.5351800000000  0.5003050000000 1.0
C      1  0.4897460000000  0.5113550000000  0.4585550000000 1.0
C      1  0.4688480000000  0.5538670000000  0.4545710000000 1.0
C      1  0.5184870000000  0.4118130000000  0.4821560000000 1.0
C      1  0.5567810000000  0.4460440000000  0.4578530000000 1.0
C      1  0.4471190000000  0.4283700000000  0.4719200000000 1.0
C      1  0.5370280000000  0.4280130000000  0.4985910000000 1.0
C      1  0.5871590000000  0.5000760000000  0.4856020000000 1.0
C      1  0.4936150000000  0.4280490000000  0.5553560000000 1.0
C      1  0.4352500000000  0.4884430000000  0.4363060000000 1.0
C      1  0.5420980000000  0.4946100000000  0.4699530000000 1.0
C      1  0.4827080000000  0.5356580000000  0.4729720000000 1.0
C      1  0.4471870000000  0.4587090000000  0.4664480000000 1.0
C      1  0.4300590000000  0.5043720000000  0.4868120000000 1.0
C      1  0.4429660000000  0.5378410000000  0.4475570000000 1.0
C      1  0.5347630000000  0.4504850000000  0.5443320000000 1.0
C      1  0.5343690000000  0.4756060000000  0.4309240000000 1.0
C      1  0.4824770000000  0.5701720000000  0.5518520000000 1.0
C      1  0.5040170000000  0.4826670000000  0.4881620000000 1.0
C      1  0.5607290000000  0.4726930000000  0.4436060000000 1.0
C      1  0.4504550000000  0.5250290000000  0.5596120000000 1.0
C      1  0.5775440000000  0.4746220000000  0.5000080000000 1.0
C      1  0.4607780000000  0.4747810000000  0.5229300000000 1.0
C      1  0.4848420000000  0.4472980000000  0.4598720000000 1.0
C      1  0.4942130000000  0.5972550000000  0.5110630000000 1.0
C      1  0.4971330000000  0.4417970000000  0.5111370000000 1.0
C      1  0.5118190000000  0.5800120000000  0.5546820000000 1.0
C      1  0.5305400000000  0.4875160000000  0.5797050000000 1.0
C      1  0.4396340000000  0.5570750000000  0.4898140000000 1.0
C      1  0.4878180000000  0.5612050000000  0.5229860000000 1.0
C      1  0.4945640000000  0.5213750000000  0.5614360000000 1.0
C      1  0.4941330000000  0.5354830000000  0.4161070000000 1.0
C      1  0.5570460000000  0.5530580000000  0.5498300000000 1.0
C      1  0.4903450000000  0.5838590000000  0.4856710000000 1.0
C      1  0.5126420000000  0.5417890000000  0.5244050000000 1.0
C      1  0.4741310000000  0.4201530000000  0.5112060000000 1.0
C      1  0.5067140000000  0.4896450000000  0.5176970000000 1.0
C      1  0.4632910000000  0.5755780000000  0.4749390000000 1.0
C      1  0.4468410000000  0.4285590000000  0.5010130000000 1.0
C      1  0.5602540000000  0.5227730000000  0.5506820000000 1.0
C      1  0.4138430000000  0.4555710000000  0.5272440000000 1.0
C      1  0.4286540000000  0.5327770000000  0.4735160000000 1.0
C      1  0.5635340000000  0.5561770000000  0.4756290000000 1.0
C      1  0.4181920000000  0.4834390000000  0.5388430000000 1.0
C      1  0.5636760000000  0.5652540000000  0.5244560000000 1.0
C      1  0.4384030000000  0.4556580000000  0.5094860000000 1.0
C      1  0.5800730000000  0.4781540000000  0.5300260000000 1.0
C      1  0.4447640000000  0.4457630000000  0.5576480000000 1.0
C      1  0.5206500000000  0.4957560000000  0.4151550000000 1.0
C      1  0.5886320000000  0.5207650000000  0.5065790000000 1.0
C      1  0.5058920000000  0.4741960000000  0.5776320000000 1.0
C      1  0.5395690000000  0.5772510000000  0.5129200000000 1.0
C      1  0.5060680000000  0.4554840000000  0.5542290000000 1.0
C      1  0.4900400000000  0.4599260000000  0.4236670000000 1.0
C      1  0.4920420000000  0.4879520000000  0.4136920000000 1.0
C      1  0.4542040000000  0.4642970000000  0.4373700000000 1.0
C      1  0.5180680000000  0.4520230000000  0.4317820000000 1.0
C      1  0.5316650000000  0.5367020000000  0.4462150000000 1.0
C      1  0.4786040000000  0.4884480000000  0.4750000000000 1.0
C      1  0.4462830000000  0.4758740000000  0.5497780000000 1.0
C      1  0.4985660000000  0.5161360000000  0.5312240000000 1.0
C      1  0.5365140000000  0.4873370000000  0.5208360000000 1.0
C      1  0.5264700000000  0.5531660000000  0.5513100000000 1.0
C      1  0.5185700000000  0.5927850000000  0.5275420000000 1.0
C      1  0.4496420000000  0.5141140000000  0.4307330000000 1.0
C      1  0.5696980000000  0.5060060000000  0.4611080000000 1.0
C      1  0.4892060000000  0.4063640000000  0.4859600000000 1.0
C      1  0.5717590000000  0.5457300000000  0.5025510000000 1.0
C      1  0.4364910000000  0.5573770000000  0.5206340000000 1.0
C      1  0.4910890000000  0.4661760000000  0.5288210000000 1.0
C      1  0.5343930000000  0.4263040000000  0.5277210000000 1.0
C      1  0.5235630000000  0.5193870000000  0.4722770000000 1.0
C      1  0.4194450000000  0.5068960000000  0.5205090000000 1.0
C      1  0.5164050000000  0.5632730000000  0.4455910000000 1.0
C      1  0.4660010000000  0.5284230000000  0.4959030000000 1.0
C      1  0.5095850000000  0.4140180000000  0.5353550000000 1.0
C      1  0.5473000000000  0.4776710000000  0.4949910000000 1.0
C      1  0.4739840000000  0.5435080000000  0.5654220000000 1.0
C      1  0.4898680000000  0.5597280000000  0.4326960000000 1.0
C      1  0.4294980000000  0.5311990000000  0.5369770000000 1.0
END
