TITL C-950524-1808-291 -3.29809504673682e-06 125000 -1119.39348394846 0 0 177 (C1) n - 1
REM
REM in /home/bkarasulu/work/CARBON/AIRSS/Generating-Clusters/EDIP-Nigel-Params/with-SteepDescent/Only-C1/SD-CG/HFTN-CG
REM
REM
REM
REM
REM
REM ./C.cell (11c1c37f851c82e70ff6c80c92926a4b)
REM
REM compiler GCC version 9.2.1 20190827 (Red Hat 9.2.1-1)
REM options -cpp -mtune=generic -march=x86-64 -g -O0 -fpre-include=/usr/include/finclude/math-vector-fortran.h
REM seed 58453634 -958190341 787603584 2066026832 804353318 1821486856 1283191152 744853186 -398768558 1472165623 -607515389 -953572787 455918932 778860256 -1461241694 1184798245 -1908811476 -891974669 -258210157 679265327 -1099342933 1875040204 1456066944 -1669805954 72337068 1640640312 -1565532810 1529387350 -2059806480 -2119926505 -1491078475 1824137359 294265465
REM
CELL 1.54180   50.00000   50.00000   50.00000   90.00000   90.00000   90.00000
LATT -1
SFAC C  
C      1  0.5347400000000  0.5202480000000  0.4765370000000 1.0
C      1  0.4916790000000  0.5456260000000  0.5889660000000 1.0
C      1  0.4834390000000  0.6058040000000  0.5452220000000 1.0
C      1  0.5345940000000  0.4507510000000  0.5359750000000 1.0
C      1  0.5817730000000  0.5482020000000  0.5347330000000 1.0
C      1  0.4564870000000  0.4847290000000  0.4154650000000 1.0
C      1  0.4978800000000  0.3822230000000  0.5082570000000 1.0
C      1  0.5502820000000  0.4340210000000  0.5547750000000 1.0
C      1  0.4812940000000  0.5441090000000  0.4034250000000 1.0
C      1  0.5043930000000  0.4408730000000  0.4233420000000 1.0
C      1  0.4292000000000  0.5029030000000  0.5551160000000 1.0
C      1  0.6085690000000  0.5098810000000  0.5199240000000 1.0
C      1  0.4892390000000  0.4993320000000  0.3844660000000 1.0
C      1  0.5946950000000  0.4661540000000  0.5352620000000 1.0
C      1  0.5496210000000  0.5164670000000  0.5043470000000 1.0
C      1  0.5061330000000  0.4164760000000  0.5364690000000 1.0
C      1  0.4778310000000  0.4726400000000  0.4917700000000 1.0
C      1  0.5028040000000  0.4895420000000  0.5238460000000 1.0
C      1  0.4317120000000  0.4704780000000  0.4898980000000 1.0
C      1  0.5003900000000  0.4967500000000  0.4350340000000 1.0
C      1  0.5196110000000  0.4783610000000  0.5049870000000 1.0
C      1  0.5133880000000  0.5261980000000  0.5908240000000 1.0
C      1  0.5873880000000  0.5006680000000  0.4362920000000 1.0
C      1  0.4469210000000  0.5092580000000  0.4012050000000 1.0
C      1  0.5279230000000  0.5823960000000  0.5675480000000 1.0
C      1  0.5140900000000  0.4240380000000  0.5813420000000 1.0
C      1  0.4516560000000  0.4332490000000  0.4676340000000 1.0
C      1  0.4547410000000  0.4641200000000  0.4719270000000 1.0
C      1  0.5861720000000  0.5340950000000  0.4748780000000 1.0
C      1  0.5138620000000  0.4739470000000  0.4771380000000 1.0
C      1  0.5251100000000  0.6022180000000  0.4543490000000 1.0
C      1  0.5667720000000  0.5488260000000  0.4210630000000 1.0
C      1  0.5213810000000  0.4884300000000  0.6134080000000 1.0
C      1  0.4920520000000  0.5189560000000  0.4521900000000 1.0
C      1  0.4776620000000  0.5636050000000  0.4826700000000 1.0
C      1  0.5596550000000  0.4123710000000  0.4627930000000 1.0
C      1  0.5445250000000  0.4779050000000  0.5416470000000 1.0
C      1  0.4199840000000  0.5381200000000  0.4382080000000 1.0
C      1  0.4552620000000  0.4264140000000  0.4214360000000 1.0
C      1  0.5241660000000  0.6106360000000  0.4835910000000 1.0
C      1  0.5936590000000  0.5488570000000  0.4289230000000 1.0
C      1  0.5289000000000  0.4928820000000  0.4377420000000 1.0
C      1  0.4871350000000  0.3763730000000  0.4831150000000 1.0
C      1  0.5132440000000  0.5313650000000  0.5378370000000 1.0
C      1  0.5018000000000  0.5095290000000  0.6128930000000 1.0
C      1  0.5291340000000  0.4372970000000  0.4403480000000 1.0
C      1  0.4659880000000  0.5206240000000  0.4634500000000 1.0
C      1  0.4921030000000  0.5718310000000  0.5983600000000 1.0
C      1  0.4175220000000  0.5494040000000  0.5361530000000 1.0
C      1  0.5280360000000  0.5250890000000  0.3999560000000 1.0
C      1  0.6154630000000  0.4738750000000  0.4672250000000 1.0
C      1  0.4601920000000  0.4953090000000  0.5143670000000 1.0
C      1  0.5508270000000  0.6029420000000  0.4946450000000 1.0
C      1  0.5887070000000  0.5199690000000  0.5372680000000 1.0
C      1  0.4807610000000  0.3871640000000  0.5316180000000 1.0
C      1  0.4634190000000  0.5375340000000  0.4871090000000 1.0
C      1  0.5054990000000  0.5568610000000  0.4849360000000 1.0
C      1  0.5100380000000  0.5468910000000  0.4079600000000 1.0
C      1  0.6203820000000  0.4726300000000  0.4937210000000 1.0
C      1  0.4383670000000  0.4504300000000  0.5766870000000 1.0
C      1  0.5215970000000  0.4440140000000  0.4714580000000 1.0
C      1  0.4754350000000  0.5905570000000  0.4473690000000 1.0
C      1  0.4426400000000  0.4505980000000  0.5278420000000 1.0
C      1  0.4620950000000  0.4229610000000  0.5642220000000 1.0
C      1  0.5953590000000  0.5274910000000  0.4473530000000 1.0
C      1  0.5788670000000  0.4520230000000  0.4431860000000 1.0
C      1  0.4376600000000  0.5897350000000  0.4936180000000 1.0
C      1  0.3901400000000  0.4910640000000  0.4500760000000 1.0
C      1  0.4579220000000  0.4302130000000  0.5145760000000 1.0
C      1  0.5472110000000  0.4312810000000  0.4837050000000 1.0
C      1  0.3988310000000  0.5402180000000  0.5153320000000 1.0
C      1  0.4303410000000  0.5269730000000  0.4152480000000 1.0
C      1  0.4365700000000  0.4320240000000  0.4415660000000 1.0
C      1  0.5014030000000  0.4596050000000  0.4005080000000 1.0
C      1  0.4445540000000  0.4803750000000  0.4432170000000 1.0
C      1  0.4368000000000  0.4228840000000  0.4923960000000 1.0
C      1  0.4858610000000  0.4844530000000  0.4107040000000 1.0
C      1  0.5528680000000  0.4538770000000  0.4300130000000 1.0
C      1  0.5671130000000  0.4532590000000  0.4919800000000 1.0
C      1  0.5419390000000  0.4087150000000  0.5030730000000 1.0
C      1  0.5455720000000  0.4795960000000  0.4170910000000 1.0
C      1  0.4227120000000  0.4587320000000  0.4381520000000 1.0
C      1  0.5155730000000  0.3925540000000  0.4489000000000 1.0
C      1  0.6125300000000  0.4820610000000  0.5188150000000 1.0
C      1  0.4538250000000  0.4618040000000  0.5998580000000 1.0
C      1  0.5518610000000  0.5897410000000  0.4486160000000 1.0
C      1  0.3908000000000  0.5104580000000  0.5194990000000 1.0
C      1  0.5030130000000  0.6000220000000  0.5038930000000 1.0
C      1  0.4015120000000  0.4651470000000  0.5433060000000 1.0
C      1  0.4996950000000  0.4281800000000  0.4866740000000 1.0
C      1  0.5145380000000  0.5720130000000  0.5102550000000 1.0
C      1  0.4209240000000  0.4912540000000  0.5816230000000 1.0
C      1  0.4893990000000  0.3919160000000  0.4597730000000 1.0
C      1  0.5088670000000  0.4624770000000  0.6080580000000 1.0
C      1  0.4787200000000  0.5066200000000  0.5637300000000 1.0
C      1  0.5371280000000  0.4923180000000  0.4660600000000 1.0
C      1  0.4558210000000  0.4595690000000  0.5521120000000 1.0
C      1  0.5800720000000  0.5054610000000  0.5622390000000 1.0
C      1  0.5139440000000  0.5379770000000  0.4622990000000 1.0
C      1  0.5624990000000  0.5511620000000  0.5549440000000 1.0
C      1  0.4686770000000  0.5270190000000  0.5836120000000 1.0
C      1  0.5274250000000  0.4484250000000  0.5901430000000 1.0
C      1  0.5566010000000  0.5256640000000  0.4067660000000 1.0
C      1  0.5688290000000  0.4994910000000  0.4131200000000 1.0
C      1  0.5722390000000  0.4209850000000  0.5385550000000 1.0
C      1  0.4696970000000  0.5924790000000  0.4909360000000 1.0
C      1  0.4849310000000  0.4457930000000  0.5064640000000 1.0
C      1  0.4371740000000  0.5708490000000  0.5376480000000 1.0
C      1  0.4702360000000  0.6096900000000  0.4673370000000 1.0
C      1  0.5273900000000  0.4129820000000  0.5582360000000 1.0
C      1  0.4231220000000  0.5133070000000  0.4807420000000 1.0
C      1  0.4475980000000  0.5441850000000  0.5722520000000 1.0
C      1  0.5377710000000  0.4086810000000  0.4420340000000 1.0
C      1  0.5474380000000  0.5619990000000  0.5760360000000 1.0
C      1  0.4148150000000  0.4422980000000  0.5295460000000 1.0
C      1  0.4119700000000  0.4923440000000  0.5319990000000 1.0
C      1  0.5410550000000  0.5322010000000  0.5289650000000 1.0
C      1  0.5614800000000  0.4015930000000  0.5216350000000 1.0
C      1  0.5015710000000  0.5598800000000  0.5355680000000 1.0
C      1  0.5188030000000  0.5028050000000  0.3827790000000 1.0
C      1  0.5331860000000  0.5984220000000  0.5429450000000 1.0
C      1  0.4622310000000  0.5617710000000  0.4132060000000 1.0
C      1  0.5839110000000  0.4285560000000  0.4587910000000 1.0
C      1  0.5786180000000  0.5613460000000  0.4850620000000 1.0
C      1  0.4031300000000  0.4638380000000  0.4851100000000 1.0
C      1  0.5268890000000  0.4809340000000  0.5673340000000 1.0
C      1  0.4108290000000  0.4645440000000  0.5727460000000 1.0
C      1  0.4854480000000  0.5777710000000  0.5563610000000 1.0
C      1  0.3938600000000  0.5073870000000  0.4727580000000 1.0
C      1  0.5922490000000  0.4383140000000  0.4954090000000 1.0
C      1  0.3844530000000  0.4930860000000  0.4959850000000 1.0
C      1  0.4084010000000  0.4347500000000  0.5004750000000 1.0
C      1  0.5419520000000  0.5371140000000  0.5916440000000 1.0
C      1  0.4577410000000  0.4913720000000  0.5471500000000 1.0
C      1  0.4537800000000  0.5735920000000  0.4367470000000 1.0
C      1  0.5469670000000  0.5652320000000  0.4339750000000 1.0
C      1  0.5281800000000  0.4752800000000  0.3926140000000 1.0
C      1  0.5083760000000  0.6122300000000  0.5312900000000 1.0
C      1  0.3952300000000  0.5590900000000  0.4930710000000 1.0
C      1  0.4396720000000  0.5099440000000  0.4542680000000 1.0
C      1  0.4824720000000  0.4564430000000  0.5955900000000 1.0
C      1  0.4558660000000  0.5687820000000  0.5595160000000 1.0
C      1  0.5040010000000  0.5859960000000  0.4404550000000 1.0
C      1  0.5838990000000  0.4757840000000  0.5612180000000 1.0
C      1  0.5962450000000  0.4750800000000  0.4470820000000 1.0
C      1  0.4996000000000  0.5162000000000  0.5169270000000 1.0
C      1  0.4706250000000  0.5221080000000  0.3875510000000 1.0
C      1  0.5071840000000  0.5906620000000  0.5854420000000 1.0
C      1  0.4811850000000  0.4280010000000  0.4121150000000 1.0
C      1  0.4348880000000  0.5400050000000  0.4898410000000 1.0
C      1  0.4434080000000  0.4890820000000  0.6031520000000 1.0
C      1  0.3987360000000  0.4644730000000  0.4548320000000 1.0
C      1  0.4269000000000  0.5319830000000  0.5569240000000 1.0
C      1  0.5463210000000  0.5836690000000  0.5171310000000 1.0
C      1  0.5625370000000  0.4585560000000  0.5768150000000 1.0
C      1  0.5467380000000  0.4860910000000  0.5112700000000 1.0
C      1  0.4384450000000  0.5947800000000  0.5221760000000 1.0
C      1  0.5043660000000  0.4459960000000  0.5311460000000 1.0
C      1  0.5801090000000  0.5116760000000  0.4944440000000 1.0
C      1  0.5129120000000  0.4076760000000  0.5074540000000 1.0
C      1  0.4633350000000  0.4097990000000  0.5366710000000 1.0
C      1  0.5668970000000  0.5877420000000  0.4742200000000 1.0
C      1  0.4317420000000  0.4942870000000  0.5047850000000 1.0
C      1  0.5685640000000  0.5621500000000  0.5123380000000 1.0
C      1  0.5181050000000  0.5592790000000  0.4342920000000 1.0
C      1  0.4800390000000  0.4193540000000  0.4662790000000 1.0
C      1  0.4721110000000  0.5222710000000  0.5111090000000 1.0
C      1  0.4861450000000  0.4325540000000  0.5793870000000 1.0
C      1  0.5923860000000  0.4386960000000  0.5253420000000 1.0
C      1  0.4642110000000  0.5102970000000  0.6079060000000 1.0
C      1  0.5593040000000  0.5134950000000  0.5836580000000 1.0
C      1  0.5452270000000  0.4883220000000  0.5920960000000 1.0
C      1  0.5090480000000  0.5101650000000  0.5641690000000 1.0
C      1  0.5672620000000  0.4827290000000  0.4788080000000 1.0
C      1  0.4223390000000  0.5652870000000  0.4810280000000 1.0
C      1  0.4602140000000  0.6104180000000  0.5302180000000 1.0
C      1  0.4282500000000  0.5636130000000  0.4496850000000 1.0
END
