TITL C-950522-5749-122 5.24882234308951e-05 125000 -182.244058777172 0 0 32 (C1) n - 1
REM
REM in /home/bkarasulu/work/CARBON/AIRSS/Generating-Clusters/EDIP-Nigel-Params/with-SteepDescent/Only-C1/SD-CG/HFTN-CG
REM
REM
REM
REM
REM
REM ./C.cell (11c1c37f851c82e70ff6c80c92926a4b)
REM
REM compiler GCC version 9.2.1 20190827 (Red Hat 9.2.1-1)
REM options -cpp -mtune=generic -march=x86-64 -g -O0 -fpre-include=/usr/include/finclude/math-vector-fortran.h
REM seed 443050236 -1589199156 -1052103837 -1675804118 667436873 1352751892 1092609847 174819429 -1521697334 -1685503008 -1031624857 -903477938 -260293086 -594704468 -368498404 -1123439582 -1460306207 -1459802871 470243424 910803839 1419654548 -1562780230 1174862560 -1039611200 1161264789 889073265 -1273767892 395796935 983859774 -1440257870 -2019859035 -154863690 736764876
REM
CELL 1.54180   50.00000   50.00000   50.00000   90.00000   90.00000   90.00000
LATT -1
SFAC C  
C      1  0.5533000000000  0.4927040000000  0.5497550000000 1.0
C      1  0.4985230000000  0.5161740000000  0.5390160000000 1.0
C      1  0.4854770000000  0.4800640000000  0.4875660000000 1.0
C      1  0.4463410000000  0.4747820000000  0.4676530000000 1.0
C      1  0.5145570000000  0.5566590000000  0.4817690000000 1.0
C      1  0.4594850000000  0.4577990000000  0.5205240000000 1.0
C      1  0.4306560000000  0.4860030000000  0.4886770000000 1.0
C      1  0.5162310000000  0.5290350000000  0.4684890000000 1.0
C      1  0.5454890000000  0.5133540000000  0.5318090000000 1.0
C      1  0.4697040000000  0.4924040000000  0.4637530000000 1.0
C      1  0.5134560000000  0.5242220000000  0.4158980000000 1.0
C      1  0.5596890000000  0.4714160000000  0.5335570000000 1.0
C      1  0.5253190000000  0.4538430000000  0.5054320000000 1.0
C      1  0.4695040000000  0.4824240000000  0.5145320000000 1.0
C      1  0.4998750000000  0.4696910000000  0.5490340000000 1.0
C      1  0.4620780000000  0.5193060000000  0.4678990000000 1.0
C      1  0.5438430000000  0.5491420000000  0.4966100000000 1.0
C      1  0.4952510000000  0.5591480000000  0.5059450000000 1.0
C      1  0.4864250000000  0.4911340000000  0.5375920000000 1.0
C      1  0.5229050000000  0.5548220000000  0.5201860000000 1.0
C      1  0.5372300000000  0.5018090000000  0.5062520000000 1.0
C      1  0.5226530000000  0.5308490000000  0.5390510000000 1.0
C      1  0.4460790000000  0.5006510000000  0.5078680000000 1.0
C      1  0.5103180000000  0.4542350000000  0.5294990000000 1.0
C      1  0.4559280000000  0.5253710000000  0.4948000000000 1.0
C      1  0.5169390000000  0.5274010000000  0.4410590000000 1.0
C      1  0.5474920000000  0.4739410000000  0.5078130000000 1.0
C      1  0.4839170000000  0.4417020000000  0.4804820000000 1.0
C      1  0.4745960000000  0.5406840000000  0.5087250000000 1.0
C      1  0.5077790000000  0.4582060000000  0.4818610000000 1.0
C      1  0.4585790000000  0.4500740000000  0.4727070000000 1.0
C      1  0.5403810000000  0.5209510000000  0.4841840000000 1.0
END
