TITL C-951345-2650-666 -4.01967142493047e-07 125000 -718.584899114421 0 0 116 (C1) n - 1
REM
REM in /home/bkarasulu/work/CARBON/AIRSS/Generating-Clusters/EDIP-Nigel-Params/with-SteepDescent/Only-C1/SD-CG/HFTN-CG
REM
REM
REM
REM
REM
REM ./C.cell (11c1c37f851c82e70ff6c80c92926a4b)
REM
REM compiler GCC version 9.2.1 20190827 (Red Hat 9.2.1-1)
REM options -cpp -mtune=generic -march=x86-64 -g -O0 -fpre-include=/usr/include/finclude/math-vector-fortran.h
REM seed 967161584 1922289688 1921905739 -2090810757 164243249 -2096385520 -961913463 -411397290 367787896 500529795 -1603046301 384069693 -943272880 1610700996 460616849 -2048088852 -1724417991 527111899 1258129664 -1805179214 -1601883901 980283996 3735751 -286979984 -540295328 -1696459795 -1026656795 -1565235534 -781013784 -884202964 1211364870 -1026293264 1862925843
REM
CELL 1.54180   50.00000   50.00000   50.00000   90.00000   90.00000   90.00000
LATT -1
SFAC C  
C      1  0.4400640000000  0.5340600000000  0.4461420000000 1.0
C      1  0.5551560000000  0.5007930000000  0.5550730000000 1.0
C      1  0.5730250000000  0.5444620000000  0.5219780000000 1.0
C      1  0.4736590000000  0.5284470000000  0.4078170000000 1.0
C      1  0.5915460000000  0.5163110000000  0.4581800000000 1.0
C      1  0.4869610000000  0.5551970000000  0.5480950000000 1.0
C      1  0.5648880000000  0.4687210000000  0.5129120000000 1.0
C      1  0.4679620000000  0.4810660000000  0.4023070000000 1.0
C      1  0.5500480000000  0.5614960000000  0.5161860000000 1.0
C      1  0.4644750000000  0.4061450000000  0.4983280000000 1.0
C      1  0.5415370000000  0.4991050000000  0.4704030000000 1.0
C      1  0.5421620000000  0.5440010000000  0.4222720000000 1.0
C      1  0.4568930000000  0.5125660000000  0.5647170000000 1.0
C      1  0.5892480000000  0.4890610000000  0.4653300000000 1.0
C      1  0.5056870000000  0.5347430000000  0.5053150000000 1.0
C      1  0.4327730000000  0.5085980000000  0.4228190000000 1.0
C      1  0.6004860000000  0.5026770000000  0.5377470000000 1.0
C      1  0.5149430000000  0.4430360000000  0.5512420000000 1.0
C      1  0.5279420000000  0.5463710000000  0.4884330000000 1.0
C      1  0.5062430000000  0.5787050000000  0.4833610000000 1.0
C      1  0.4996430000000  0.4192680000000  0.4612700000000 1.0
C      1  0.4252220000000  0.4343600000000  0.5270210000000 1.0
C      1  0.5336270000000  0.5159520000000  0.4195380000000 1.0
C      1  0.4113270000000  0.4603440000000  0.4911550000000 1.0
C      1  0.4011170000000  0.5095220000000  0.4931490000000 1.0
C      1  0.4383550000000  0.4887740000000  0.4658560000000 1.0
C      1  0.5623560000000  0.4792770000000  0.4615450000000 1.0
C      1  0.5125300000000  0.5090620000000  0.3988870000000 1.0
C      1  0.4796340000000  0.4237100000000  0.5289950000000 1.0
C      1  0.4898760000000  0.4512270000000  0.5639510000000 1.0
C      1  0.4558500000000  0.4669030000000  0.4247280000000 1.0
C      1  0.4796830000000  0.5446900000000  0.4953720000000 1.0
C      1  0.4444930000000  0.5687940000000  0.5180550000000 1.0
C      1  0.5057400000000  0.4791130000000  0.4405070000000 1.0
C      1  0.5076040000000  0.5340710000000  0.5353980000000 1.0
C      1  0.5713360000000  0.4233280000000  0.5265700000000 1.0
C      1  0.4706900000000  0.4902080000000  0.5247420000000 1.0
C      1  0.5068100000000  0.4507090000000  0.4823060000000 1.0
C      1  0.5176500000000  0.5370590000000  0.5840750000000 1.0
C      1  0.5640260000000  0.5589390000000  0.4504960000000 1.0
C      1  0.5616310000000  0.4572670000000  0.5594830000000 1.0
C      1  0.4353670000000  0.4445760000000  0.4817770000000 1.0
C      1  0.4957040000000  0.4673200000000  0.5870380000000 1.0
C      1  0.5269450000000  0.5047660000000  0.5705050000000 1.0
C      1  0.4902140000000  0.4730700000000  0.4662760000000 1.0
C      1  0.4964890000000  0.5313240000000  0.3917090000000 1.0
C      1  0.5159040000000  0.4080310000000  0.5089870000000 1.0
C      1  0.4510160000000  0.5154300000000  0.4674630000000 1.0
C      1  0.5842380000000  0.4420480000000  0.4834240000000 1.0
C      1  0.4094100000000  0.4901810000000  0.5399550000000 1.0
C      1  0.5216390000000  0.4886390000000  0.5224950000000 1.0
C      1  0.4758460000000  0.4856110000000  0.5937960000000 1.0
C      1  0.5526800000000  0.5248310000000  0.4827780000000 1.0
C      1  0.4597370000000  0.5745350000000  0.4631740000000 1.0
C      1  0.4921620000000  0.4336230000000  0.4362860000000 1.0
C      1  0.5204340000000  0.5806440000000  0.5589140000000 1.0
C      1  0.5476820000000  0.5844660000000  0.4969040000000 1.0
C      1  0.5209910000000  0.4912450000000  0.4919860000000 1.0
C      1  0.5236410000000  0.5042860000000  0.4454970000000 1.0
C      1  0.4343510000000  0.4827620000000  0.4368210000000 1.0
C      1  0.4630760000000  0.5882500000000  0.5089300000000 1.0
C      1  0.4563760000000  0.4665800000000  0.4776780000000 1.0
C      1  0.4688110000000  0.5285820000000  0.5870850000000 1.0
C      1  0.4090790000000  0.5309780000000  0.5093550000000 1.0
C      1  0.4380400000000  0.4462840000000  0.5503620000000 1.0
C      1  0.4919900000000  0.4492150000000  0.5099920000000 1.0
C      1  0.5075790000000  0.4132090000000  0.5374440000000 1.0
C      1  0.4954820000000  0.5004610000000  0.4797670000000 1.0
C      1  0.4547440000000  0.5075630000000  0.4023040000000 1.0
C      1  0.5731410000000  0.5358030000000  0.4655300000000 1.0
C      1  0.4326680000000  0.5486750000000  0.4973750000000 1.0
C      1  0.4925990000000  0.4100950000000  0.4888940000000 1.0
C      1  0.5106710000000  0.4540530000000  0.4248630000000 1.0
C      1  0.5943110000000  0.5039570000000  0.5102100000000 1.0
C      1  0.4534090000000  0.5111110000000  0.5180580000000 1.0
C      1  0.5067260000000  0.5050600000000  0.5461790000000 1.0
C      1  0.4550760000000  0.5281320000000  0.4943060000000 1.0
C      1  0.5598580000000  0.4526940000000  0.4722070000000 1.0
C      1  0.4122580000000  0.4874030000000  0.4800560000000 1.0
C      1  0.5081290000000  0.5837940000000  0.5340140000000 1.0
C      1  0.5824710000000  0.5131550000000  0.5573400000000 1.0
C      1  0.4445050000000  0.5261240000000  0.5416960000000 1.0
C      1  0.5804210000000  0.4191120000000  0.4999110000000 1.0
C      1  0.5379890000000  0.4503240000000  0.4917520000000 1.0
C      1  0.4700980000000  0.4684400000000  0.5062050000000 1.0
C      1  0.4901400000000  0.5466490000000  0.5772170000000 1.0
C      1  0.4250460000000  0.4717880000000  0.5552720000000 1.0
C      1  0.5516910000000  0.4942000000000  0.5257570000000 1.0
C      1  0.4342230000000  0.5582430000000  0.4664380000000 1.0
C      1  0.5136300000000  0.4602210000000  0.5272850000000 1.0
C      1  0.5375380000000  0.5403790000000  0.5466480000000 1.0
C      1  0.4077060000000  0.4575270000000  0.5201220000000 1.0
C      1  0.5421590000000  0.4222270000000  0.5022660000000 1.0
C      1  0.4655410000000  0.4421010000000  0.4334660000000 1.0
C      1  0.4779640000000  0.4917250000000  0.5552530000000 1.0
C      1  0.4786460000000  0.5102020000000  0.6066680000000 1.0
C      1  0.5271660000000  0.5640440000000  0.4374820000000 1.0
C      1  0.5192620000000  0.5920120000000  0.5072480000000 1.0
C      1  0.4145380000000  0.5198880000000  0.5371710000000 1.0
C      1  0.5334760000000  0.5582860000000  0.5699970000000 1.0
C      1  0.5041750000000  0.5231470000000  0.4588530000000 1.0
C      1  0.5673970000000  0.5180510000000  0.5093320000000 1.0
C      1  0.4560040000000  0.5538570000000  0.5404430000000 1.0
C      1  0.4767850000000  0.5733660000000  0.4878500000000 1.0
C      1  0.4436220000000  0.4269640000000  0.5037620000000 1.0
C      1  0.5753130000000  0.5400520000000  0.5502240000000 1.0
C      1  0.5037930000000  0.5545110000000  0.4537770000000 1.0
C      1  0.4665080000000  0.4373730000000  0.5529420000000 1.0
C      1  0.5235970000000  0.4770120000000  0.5852700000000 1.0
C      1  0.5362630000000  0.4538360000000  0.5705370000000 1.0
C      1  0.4618600000000  0.5450790000000  0.4282630000000 1.0
C      1  0.5474630000000  0.5779280000000  0.4674000000000 1.0
C      1  0.4983000000000  0.4813470000000  0.4023000000000 1.0
C      1  0.5726620000000  0.4505500000000  0.5349090000000 1.0
C      1  0.4774680000000  0.5646530000000  0.4418400000000 1.0
C      1  0.5912080000000  0.4782020000000  0.4949500000000 1.0
END
