TITL C-950521-2237-6 -4.35848718176251e-07 125000 -196.547534244646 0 0 33 (C1) n - 1
REM
REM in /home/bkarasulu/work/CARBON/AIRSS/Generating-Clusters/EDIP-Nigel-Params/with-SteepDescent/Only-C1/SD-CG/HFTN-CG
REM
REM
REM
REM
REM
REM ./C.cell (11c1c37f851c82e70ff6c80c92926a4b)
REM
REM compiler GCC version 9.2.1 20190827 (Red Hat 9.2.1-1)
REM options -cpp -mtune=generic -march=x86-64 -g -O0 -fpre-include=/usr/include/finclude/math-vector-fortran.h
REM seed 857595779 -1860276929 379563185 1907663613 -2037127742 -1124643258 1782477031 394131785 1951359507 1065833848 -828389860 367272872 -688649824 -981036759 -1647428049 874925922 1391610024 -1421476248 1114907389 1040055048 455883116 986305039 1676711456 1192352530 560339887 1285973210 -2034537601 -1570589007 -1507102695 -1260032608 -1526055518 -1771617335 -992130936
REM
CELL 1.54180   50.00000   50.00000   50.00000   90.00000   90.00000   90.00000
LATT -1
SFAC C  
C      1  0.4713740000000  0.5056310000000  0.4720370000000 1.0
C      1  0.4987890000000  0.5112510000000  0.4663710000000 1.0
C      1  0.4438950000000  0.4696070000000  0.5127070000000 1.0
C      1  0.5140680000000  0.5310440000000  0.4821590000000 1.0
C      1  0.4674720000000  0.5494750000000  0.5301330000000 1.0
C      1  0.5121090000000  0.5024310000000  0.5578130000000 1.0
C      1  0.5337530000000  0.4895540000000  0.4388310000000 1.0
C      1  0.4897660000000  0.4872840000000  0.5489370000000 1.0
C      1  0.4779760000000  0.4542600000000  0.4799980000000 1.0
C      1  0.4862430000000  0.4720660000000  0.4461300000000 1.0
C      1  0.4311720000000  0.5150500000000  0.4989290000000 1.0
C      1  0.5178120000000  0.5436760000000  0.5330180000000 1.0
C      1  0.5164320000000  0.4584280000000  0.5224120000000 1.0
C      1  0.4584910000000  0.5187820000000  0.4938870000000 1.0
C      1  0.4828730000000  0.5710650000000  0.5351620000000 1.0
C      1  0.5532610000000  0.5073230000000  0.4745350000000 1.0
C      1  0.4275440000000  0.4903230000000  0.5086570000000 1.0
C      1  0.5578550000000  0.4969890000000  0.4486960000000 1.0
C      1  0.5097510000000  0.5705730000000  0.5320050000000 1.0
C      1  0.5353400000000  0.4952970000000  0.5432880000000 1.0
C      1  0.5044340000000  0.4440240000000  0.4795490000000 1.0
C      1  0.5071180000000  0.5254580000000  0.5110190000000 1.0
C      1  0.5253880000000  0.4480710000000  0.4974850000000 1.0
C      1  0.4765570000000  0.5287770000000  0.5138410000000 1.0
C      1  0.4907440000000  0.4692930000000  0.5270470000000 1.0
C      1  0.5114380000000  0.5304890000000  0.5572940000000 1.0
C      1  0.5414200000000  0.5326300000000  0.4763040000000 1.0
C      1  0.5239470000000  0.4958230000000  0.5160300000000 1.0
C      1  0.4700350000000  0.4620410000000  0.5078710000000 1.0
C      1  0.4625660000000  0.4821990000000  0.4581200000000 1.0
C      1  0.5445440000000  0.4881110000000  0.4946340000000 1.0
C      1  0.5071110000000  0.4921030000000  0.4463600000000 1.0
C      1  0.5487220000000  0.4608710000000  0.4887410000000 1.0
END
