TITL C-951336-9012-415 -3.51905032530254e-06 125000 -463.651417873316 0 0 74 (C1) n - 1
REM
REM in /home/bkarasulu/work/CARBON/AIRSS/Generating-Clusters/EDIP-Nigel-Params/with-SteepDescent/Only-C1/SD-CG/HFTN-CG
REM
REM
REM
REM
REM
REM ./C.cell (11c1c37f851c82e70ff6c80c92926a4b)
REM
REM compiler GCC version 9.2.1 20190827 (Red Hat 9.2.1-1)
REM options -cpp -mtune=generic -march=x86-64 -g -O0 -fpre-include=/usr/include/finclude/math-vector-fortran.h
REM seed 1931344503 520869762 1643254539 -776569063 1817515815 591687003 1417009478 -2063280440 -1582620510 -1154635112 -1297021226 -2085663398 -537323940 -1201743464 -511072378 -294984748 714164616 1545731006 2082278614 -438026456 -778864564 -1012099184 1220833271 1796300535 -723384554 -1422872446 -1761710614 -1434027049 1991785662 -816357477 1242195294 -894997381 1133878463
REM
CELL 1.54180   50.00000   50.00000   50.00000   90.00000   90.00000   90.00000
LATT -1
SFAC C  
C      1  0.4845240000000  0.4785250000000  0.4980050000000 1.0
C      1  0.5098440000000  0.4793830000000  0.5648250000000 1.0
C      1  0.5278080000000  0.4840800000000  0.5167470000000 1.0
C      1  0.5048650000000  0.4660790000000  0.4541010000000 1.0
C      1  0.5437560000000  0.4642850000000  0.5364210000000 1.0
C      1  0.5693760000000  0.5047860000000  0.4824430000000 1.0
C      1  0.5133630000000  0.5277790000000  0.5490450000000 1.0
C      1  0.4312160000000  0.5269460000000  0.4964640000000 1.0
C      1  0.4374780000000  0.4823940000000  0.4406970000000 1.0
C      1  0.4862030000000  0.4688810000000  0.5772730000000 1.0
C      1  0.4730730000000  0.5653750000000  0.5134230000000 1.0
C      1  0.5231910000000  0.5057410000000  0.5673570000000 1.0
C      1  0.4443150000000  0.4770160000000  0.5207060000000 1.0
C      1  0.5059400000000  0.5695970000000  0.4747250000000 1.0
C      1  0.5078440000000  0.5279320000000  0.4973840000000 1.0
C      1  0.5027320000000  0.4350120000000  0.4934470000000 1.0
C      1  0.4569000000000  0.4912150000000  0.4983210000000 1.0
C      1  0.4612640000000  0.4767860000000  0.5684050000000 1.0
C      1  0.4787040000000  0.5758280000000  0.4860890000000 1.0
C      1  0.5364560000000  0.5460070000000  0.5391190000000 1.0
C      1  0.4994990000000  0.4885230000000  0.4741670000000 1.0
C      1  0.4876830000000  0.5442400000000  0.5559500000000 1.0
C      1  0.5552150000000  0.5284620000000  0.4723760000000 1.0
C      1  0.4612530000000  0.5617320000000  0.4679910000000 1.0
C      1  0.4997320000000  0.4305300000000  0.5435920000000 1.0
C      1  0.5470970000000  0.5294290000000  0.4438440000000 1.0
C      1  0.4809430000000  0.5108340000000  0.4660550000000 1.0
C      1  0.4359770000000  0.5110620000000  0.4475540000000 1.0
C      1  0.5650780000000  0.4814030000000  0.5513550000000 1.0
C      1  0.5078720000000  0.5056300000000  0.4233990000000 1.0
C      1  0.5503820000000  0.5489560000000  0.4926310000000 1.0
C      1  0.4210860000000  0.5206460000000  0.5247060000000 1.0
C      1  0.5449440000000  0.4294330000000  0.5202500000000 1.0
C      1  0.4586760000000  0.4502760000000  0.5224370000000 1.0
C      1  0.5207350000000  0.4793810000000  0.4312770000000 1.0
C      1  0.4615390000000  0.5227760000000  0.5064010000000 1.0
C      1  0.5471140000000  0.4545470000000  0.4785140000000 1.0
C      1  0.4250210000000  0.5085220000000  0.4747210000000 1.0
C      1  0.5648920000000  0.5075590000000  0.5112670000000 1.0
C      1  0.5174850000000  0.4321950000000  0.5653380000000 1.0
C      1  0.4776990000000  0.5033300000000  0.4214760000000 1.0
C      1  0.5216660000000  0.5554840000000  0.4969430000000 1.0
C      1  0.5013830000000  0.5532850000000  0.4486630000000 1.0
C      1  0.4653150000000  0.5197690000000  0.4430430000000 1.0
C      1  0.5590330000000  0.5089350000000  0.4283780000000 1.0
C      1  0.4997070000000  0.4870620000000  0.5223730000000 1.0
C      1  0.4637320000000  0.4758460000000  0.4267280000000 1.0
C      1  0.4392760000000  0.4725700000000  0.4691930000000 1.0
C      1  0.4387410000000  0.5399280000000  0.5397570000000 1.0
C      1  0.4740290000000  0.4464240000000  0.5477890000000 1.0
C      1  0.5804070000000  0.4625410000000  0.5131210000000 1.0
C      1  0.4602560000000  0.4508700000000  0.4694240000000 1.0
C      1  0.4468360000000  0.5597740000000  0.5214370000000 1.0
C      1  0.4803040000000  0.5325130000000  0.4845620000000 1.0
C      1  0.5796980000000  0.4874570000000  0.5267300000000 1.0
C      1  0.4776960000000  0.4564670000000  0.4457550000000 1.0
C      1  0.5259840000000  0.4987430000000  0.4872340000000 1.0
C      1  0.4967310000000  0.5163940000000  0.5239860000000 1.0
C      1  0.5512030000000  0.5024710000000  0.5642980000000 1.0
C      1  0.5288800000000  0.4581120000000  0.5621990000000 1.0
C      1  0.5159010000000  0.4316240000000  0.5189190000000 1.0
C      1  0.5196950000000  0.4453980000000  0.4713200000000 1.0
C      1  0.5516410000000  0.4829980000000  0.4692270000000 1.0
C      1  0.5180240000000  0.5296590000000  0.4398420000000 1.0
C      1  0.5485790000000  0.4852350000000  0.4393940000000 1.0
C      1  0.4244400000000  0.4932710000000  0.5329220000000 1.0
C      1  0.5200780000000  0.5668820000000  0.5251720000000 1.0
C      1  0.5579170000000  0.5361880000000  0.5187180000000 1.0
C      1  0.4632060000000  0.5272460000000  0.5500830000000 1.0
C      1  0.4721630000000  0.5495350000000  0.4444050000000 1.0
C      1  0.5617410000000  0.4442500000000  0.5019000000000 1.0
C      1  0.4587630000000  0.5040810000000  0.5651000000000 1.0
C      1  0.4761120000000  0.4491500000000  0.4956650000000 1.0
C      1  0.4920870000000  0.5667300000000  0.5354220000000 1.0
END
