TITL C-951335-1172-427 1.17248952891472e-07 125000 -424.471941445813 0 0 70 (C1) n - 1
REM
REM in /home/bkarasulu/work/CARBON/AIRSS/Generating-Clusters/EDIP-Nigel-Params/with-SteepDescent/Only-C1/SD-CG/HFTN-CG
REM
REM
REM
REM
REM
REM ./C.cell (11c1c37f851c82e70ff6c80c92926a4b)
REM
REM compiler GCC version 9.2.1 20190827 (Red Hat 9.2.1-1)
REM options -cpp -mtune=generic -march=x86-64 -g -O0 -fpre-include=/usr/include/finclude/math-vector-fortran.h
REM seed 1429101807 -959126089 504402500 -1383025260 761090365 584517587 802201859 1853796597 -1104430916 -180120858 1109232400 952300267 1771354417 1038521140 -900207076 -1381323957 -1365871897 1651493192 1164428878 -2047810548 1618219813 217378175 1444484896 -674449897 1126146925 -1551566394 83186237 -2092066856 -1166114768 -1957234584 -1760156343 -1295532460 -1441885563
REM
CELL 1.54180   50.00000   50.00000   50.00000   90.00000   90.00000   90.00000
LATT -1
SFAC C  
C      1  0.5382390000000  0.5557130000000  0.4987250000000 1.0
C      1  0.5180680000000  0.4991130000000  0.5867360000000 1.0
C      1  0.5376160000000  0.5187870000000  0.5784930000000 1.0
C      1  0.4451180000000  0.4583960000000  0.4896090000000 1.0
C      1  0.4585170000000  0.5247070000000  0.4271330000000 1.0
C      1  0.4671490000000  0.4539180000000  0.4691950000000 1.0
C      1  0.4828760000000  0.4905910000000  0.5160330000000 1.0
C      1  0.5397990000000  0.4383270000000  0.4830730000000 1.0
C      1  0.5097100000000  0.4676960000000  0.4219330000000 1.0
C      1  0.5433240000000  0.4675550000000  0.5365080000000 1.0
C      1  0.4971620000000  0.5226030000000  0.5645140000000 1.0
C      1  0.5112450000000  0.4810080000000  0.5105160000000 1.0
C      1  0.5792870000000  0.4475920000000  0.5079620000000 1.0
C      1  0.5254950000000  0.5419430000000  0.4532750000000 1.0
C      1  0.4454360000000  0.5636370000000  0.4650540000000 1.0
C      1  0.4252420000000  0.5088670000000  0.5125210000000 1.0
C      1  0.4501920000000  0.4508290000000  0.5181790000000 1.0
C      1  0.5658280000000  0.4504360000000  0.4834190000000 1.0
C      1  0.4978610000000  0.4325810000000  0.5251440000000 1.0
C      1  0.4806740000000  0.4707180000000  0.5751590000000 1.0
C      1  0.4785170000000  0.5320310000000  0.4470540000000 1.0
C      1  0.5057570000000  0.5311520000000  0.4353060000000 1.0
C      1  0.5700820000000  0.4689730000000  0.5236070000000 1.0
C      1  0.4727070000000  0.5589790000000  0.4594590000000 1.0
C      1  0.5745300000000  0.5225800000000  0.5178270000000 1.0
C      1  0.5236940000000  0.4583790000000  0.5573060000000 1.0
C      1  0.4611340000000  0.5278290000000  0.5405070000000 1.0
C      1  0.5765280000000  0.4947870000000  0.5142270000000 1.0
C      1  0.4373400000000  0.5402660000000  0.4785120000000 1.0
C      1  0.4512770000000  0.5514330000000  0.5263460000000 1.0
C      1  0.5130220000000  0.4937580000000  0.4350270000000 1.0
C      1  0.5363480000000  0.4952680000000  0.5363560000000 1.0
C      1  0.4425590000000  0.4687440000000  0.5401900000000 1.0
C      1  0.5098680000000  0.4352070000000  0.5501190000000 1.0
C      1  0.4326020000000  0.4946090000000  0.4879400000000 1.0
C      1  0.4813820000000  0.5102880000000  0.4708040000000 1.0
C      1  0.5097570000000  0.4495680000000  0.5036290000000 1.0
C      1  0.4653620000000  0.4914810000000  0.4906040000000 1.0
C      1  0.5153100000000  0.5476020000000  0.4813130000000 1.0
C      1  0.4909390000000  0.5658130000000  0.4813920000000 1.0
C      1  0.4701880000000  0.4323060000000  0.5238260000000 1.0
C      1  0.5151390000000  0.5459420000000  0.5632850000000 1.0
C      1  0.5029860000000  0.5221200000000  0.4926000000000 1.0
C      1  0.5701730000000  0.4755680000000  0.4699780000000 1.0
C      1  0.4941790000000  0.4442710000000  0.4771530000000 1.0
C      1  0.5244700000000  0.4483260000000  0.4359860000000 1.0
C      1  0.4292200000000  0.4928700000000  0.5351930000000 1.0
C      1  0.4827920000000  0.4598810000000  0.4230330000000 1.0
C      1  0.4427820000000  0.4791960000000  0.4358180000000 1.0
C      1  0.4691080000000  0.5305900000000  0.5676760000000 1.0
C      1  0.5204780000000  0.4964580000000  0.4862910000000 1.0
C      1  0.5691810000000  0.5095000000000  0.4516960000000 1.0
C      1  0.5032200000000  0.4905010000000  0.4620570000000 1.0
C      1  0.4613930000000  0.4592590000000  0.4408900000000 1.0
C      1  0.4319770000000  0.5146380000000  0.4661840000000 1.0
C      1  0.5598740000000  0.5381750000000  0.4998880000000 1.0
C      1  0.5064550000000  0.4794050000000  0.5692330000000 1.0
C      1  0.4422530000000  0.5066100000000  0.4406790000000 1.0
C      1  0.5646320000000  0.4832040000000  0.4439620000000 1.0
C      1  0.5195400000000  0.4393760000000  0.4622400000000 1.0
C      1  0.5113210000000  0.5646880000000  0.5414960000000 1.0
C      1  0.5517630000000  0.5119150000000  0.5546180000000 1.0
C      1  0.5504730000000  0.5297660000000  0.4514050000000 1.0
C      1  0.4765200000000  0.5724760000000  0.5057600000000 1.0
C      1  0.4567330000000  0.4662420000000  0.5639390000000 1.0
C      1  0.4330710000000  0.5376090000000  0.5072830000000 1.0
C      1  0.5313760000000  0.5676450000000  0.5225800000000 1.0
C      1  0.4845950000000  0.5705260000000  0.5327530000000 1.0
C      1  0.5707140000000  0.5298130000000  0.5444400000000 1.0
C      1  0.4858440000000  0.5173590000000  0.5273520000000 1.0
END
