TITL C-951339-9237-697 2.79995463621396e-07 125000 -374.213138486833 0 0 61 (C1) n - 1
REM
REM in /home/bkarasulu/work/CARBON/AIRSS/Generating-Clusters/EDIP-Nigel-Params/with-SteepDescent/Only-C1/SD-CG/HFTN-CG
REM
REM
REM
REM
REM
REM ./C.cell (11c1c37f851c82e70ff6c80c92926a4b)
REM
REM compiler GCC version 9.2.1 20190827 (Red Hat 9.2.1-1)
REM options -cpp -mtune=generic -march=x86-64 -g -O0 -fpre-include=/usr/include/finclude/math-vector-fortran.h
REM seed -1201380730 1769752117 1571048273 -280030207 823647624 -1091455861 -1940068557 665630884 950482118 2092259887 -765397157 -1638232354 1025946396 -1098536483 202038489 1367306763 -1314853174 1217003917 1301712092 1640519103 -1611298586 1428182627 -1976203776 1544143190 1992351513 -1133991843 -1637262188 406321276 1291234690 750419927 1997111632 -2033278438 -360343098
REM
CELL 1.54180   50.00000   50.00000   50.00000   90.00000   90.00000   90.00000
LATT -1
SFAC C  
C      1  0.5228390000000  0.5465620000000  0.5488420000000 1.0
C      1  0.4433570000000  0.4914200000000  0.4659240000000 1.0
C      1  0.5064750000000  0.4787270000000  0.5762070000000 1.0
C      1  0.5562050000000  0.4466560000000  0.5278410000000 1.0
C      1  0.5385510000000  0.4516060000000  0.4804260000000 1.0
C      1  0.5327270000000  0.5391980000000  0.4405350000000 1.0
C      1  0.4804190000000  0.5704970000000  0.4982440000000 1.0
C      1  0.5384270000000  0.5103080000000  0.4825000000000 1.0
C      1  0.5381820000000  0.4233480000000  0.5171630000000 1.0
C      1  0.4736170000000  0.5553480000000  0.5245950000000 1.0
C      1  0.5032230000000  0.5157280000000  0.5177830000000 1.0
C      1  0.5104560000000  0.5569190000000  0.4513280000000 1.0
C      1  0.4431400000000  0.5155420000000  0.5377820000000 1.0
C      1  0.4956240000000  0.4694100000000  0.4945350000000 1.0
C      1  0.4410820000000  0.5487680000000  0.4738300000000 1.0
C      1  0.4523090000000  0.5009490000000  0.4937120000000 1.0
C      1  0.5351310000000  0.5770040000000  0.5105470000000 1.0
C      1  0.4424290000000  0.4908650000000  0.5207730000000 1.0
C      1  0.5532970000000  0.4948890000000  0.5035160000000 1.0
C      1  0.4952270000000  0.5090400000000  0.4233940000000 1.0
C      1  0.5197490000000  0.4928940000000  0.5360730000000 1.0
C      1  0.4933220000000  0.5280170000000  0.5650390000000 1.0
C      1  0.5424920000000  0.4519960000000  0.5541300000000 1.0
C      1  0.4638790000000  0.4342480000000  0.5125150000000 1.0
C      1  0.4829440000000  0.4302820000000  0.4685470000000 1.0
C      1  0.5155750000000  0.4675000000000  0.5180830000000 1.0
C      1  0.5452220000000  0.5498940000000  0.5072590000000 1.0
C      1  0.5227950000000  0.5312310000000  0.4973250000000 1.0
C      1  0.4451200000000  0.5301800000000  0.4945450000000 1.0
C      1  0.5231430000000  0.5102480000000  0.4347790000000 1.0
C      1  0.5196580000000  0.4973350000000  0.4626470000000 1.0
C      1  0.5465790000000  0.5064420000000  0.5304310000000 1.0
C      1  0.4938280000000  0.5091870000000  0.4697660000000 1.0
C      1  0.4546450000000  0.4691180000000  0.4531490000000 1.0
C      1  0.5636020000000  0.5469970000000  0.4841160000000 1.0
C      1  0.4618450000000  0.4913210000000  0.5606260000000 1.0
C      1  0.4658550000000  0.5613530000000  0.4708530000000 1.0
C      1  0.4883600000000  0.4998180000000  0.5665230000000 1.0
C      1  0.5364480000000  0.4246840000000  0.4888840000000 1.0
C      1  0.5141720000000  0.4660840000000  0.4695660000000 1.0
C      1  0.4771850000000  0.4457510000000  0.4912250000000 1.0
C      1  0.4607750000000  0.4749890000000  0.5369850000000 1.0
C      1  0.5081780000000  0.5535350000000  0.4815910000000 1.0
C      1  0.5119390000000  0.5800690000000  0.4955240000000 1.0
C      1  0.4867650000000  0.4828190000000  0.4192650000000 1.0
C      1  0.5468120000000  0.5366480000000  0.5343260000000 1.0
C      1  0.4791200000000  0.5203820000000  0.4464350000000 1.0
C      1  0.4836790000000  0.4987890000000  0.4950590000000 1.0
C      1  0.4893430000000  0.4380480000000  0.5522460000000 1.0
C      1  0.4960520000000  0.5380540000000  0.5372670000000 1.0
C      1  0.4812310000000  0.5504370000000  0.4470200000000 1.0
C      1  0.4650780000000  0.4461720000000  0.5375100000000 1.0
C      1  0.5437140000000  0.4661350000000  0.5059680000000 1.0
C      1  0.4481470000000  0.5397790000000  0.5218160000000 1.0
C      1  0.5554700000000  0.5424470000000  0.4581530000000 1.0
C      1  0.4941420000000  0.4533850000000  0.5752980000000 1.0
C      1  0.5136940000000  0.4398540000000  0.5332160000000 1.0
C      1  0.4513890000000  0.5113130000000  0.4475790000000 1.0
C      1  0.4968250000000  0.4482630000000  0.4515550000000 1.0
C      1  0.5318730000000  0.4785790000000  0.5614370000000 1.0
C      1  0.4766380000000  0.4629370000000  0.4361970000000 1.0
END
