TITL C-950533-5798-583 5.39343296239611e-07 125000 -524.571272598374 0 0 86 (C1) n - 1
REM
REM in /home/bkarasulu/work/CARBON/AIRSS/Generating-Clusters/EDIP-Nigel-Params/with-SteepDescent/Only-C1/SD-CG/HFTN-CG
REM
REM
REM
REM
REM
REM ./C.cell (11c1c37f851c82e70ff6c80c92926a4b)
REM
REM compiler GCC version 9.2.1 20190827 (Red Hat 9.2.1-1)
REM options -cpp -mtune=generic -march=x86-64 -g -O0 -fpre-include=/usr/include/finclude/math-vector-fortran.h
REM seed 1429679029 1280066029 375112907 -403644734 2093938654 -206468516 -317883494 -641718565 626906359 -274804790 1660508259 1703558789 2128188470 -512686587 751118082 -1681163657 1493132339 -852155485 328296182 3279739 -126193968 -1524520968 -203089057 1639555074 -177082421 787318628 438295023 2042818519 87026188 170876444 -1749692740 -1030641661 -1600738218
REM
CELL 1.54180   50.00000   50.00000   50.00000   90.00000   90.00000   90.00000
LATT -1
SFAC C  
C      1  0.5297080000000  0.5059500000000  0.5330830000000 1.0
C      1  0.5387470000000  0.4463650000000  0.5003530000000 1.0
C      1  0.4829580000000  0.5242540000000  0.4428220000000 1.0
C      1  0.4946850000000  0.5490630000000  0.4544490000000 1.0
C      1  0.5641620000000  0.5235190000000  0.5285520000000 1.0
C      1  0.4898020000000  0.4995760000000  0.4607710000000 1.0
C      1  0.5004160000000  0.4219070000000  0.4817420000000 1.0
C      1  0.4387370000000  0.4692590000000  0.4841580000000 1.0
C      1  0.5788280000000  0.4702470000000  0.5078340000000 1.0
C      1  0.4727100000000  0.4751310000000  0.4454350000000 1.0
C      1  0.5064640000000  0.4555960000000  0.5420070000000 1.0
C      1  0.4773200000000  0.4183790000000  0.5262060000000 1.0
C      1  0.4402740000000  0.4368250000000  0.5340490000000 1.0
C      1  0.4432230000000  0.5311770000000  0.5171190000000 1.0
C      1  0.4472240000000  0.4589830000000  0.5489860000000 1.0
C      1  0.5431810000000  0.5550490000000  0.4435650000000 1.0
C      1  0.4730610000000  0.5687410000000  0.5014850000000 1.0
C      1  0.5137040000000  0.4714070000000  0.5829560000000 1.0
C      1  0.4892310000000  0.5807600000000  0.5553630000000 1.0
C      1  0.4021190000000  0.5135730000000  0.4845140000000 1.0
C      1  0.4224670000000  0.4748220000000  0.5095700000000 1.0
C      1  0.5322750000000  0.5022590000000  0.4319820000000 1.0
C      1  0.5022870000000  0.5601470000000  0.5031980000000 1.0
C      1  0.4879500000000  0.4468520000000  0.4764260000000 1.0
C      1  0.4034480000000  0.4950500000000  0.5053790000000 1.0
C      1  0.4717790000000  0.4605180000000  0.4982870000000 1.0
C      1  0.5556920000000  0.4585990000000  0.5219920000000 1.0
C      1  0.5848750000000  0.5361590000000  0.5137550000000 1.0
C      1  0.5691430000000  0.4940430000000  0.4907920000000 1.0
C      1  0.5451050000000  0.4608490000000  0.4508190000000 1.0
C      1  0.4895090000000  0.4840220000000  0.5077540000000 1.0
C      1  0.4847100000000  0.4735390000000  0.5760660000000 1.0
C      1  0.4531210000000  0.5232780000000  0.4453830000000 1.0
C      1  0.4566330000000  0.5144540000000  0.5644320000000 1.0
C      1  0.5276440000000  0.4537930000000  0.5628200000000 1.0
C      1  0.5034420000000  0.4287590000000  0.5288040000000 1.0
C      1  0.5591440000000  0.5076530000000  0.4402240000000 1.0
C      1  0.5236870000000  0.5734030000000  0.4859320000000 1.0
C      1  0.4694440000000  0.5614930000000  0.5512340000000 1.0
C      1  0.4441200000000  0.4196710000000  0.4909500000000 1.0
C      1  0.5150880000000  0.5743940000000  0.5594870000000 1.0
C      1  0.5171550000000  0.4276660000000  0.5036980000000 1.0
C      1  0.4579680000000  0.4333920000000  0.5126030000000 1.0
C      1  0.5378750000000  0.4958040000000  0.4919280000000 1.0
C      1  0.5298390000000  0.5515710000000  0.5528910000000 1.0
C      1  0.4665240000000  0.4466730000000  0.4567570000000 1.0
C      1  0.4596180000000  0.5613480000000  0.4772470000000 1.0
C      1  0.5527420000000  0.4447270000000  0.4744500000000 1.0
C      1  0.4391890000000  0.5106660000000  0.5404530000000 1.0
C      1  0.5209690000000  0.5222410000000  0.4144950000000 1.0
C      1  0.4267850000000  0.4855490000000  0.4604330000000 1.0
C      1  0.4585980000000  0.5566040000000  0.5244720000000 1.0
C      1  0.5524450000000  0.5433530000000  0.5681220000000 1.0
C      1  0.5006660000000  0.5184060000000  0.5702950000000 1.0
C      1  0.5536340000000  0.5322530000000  0.4585940000000 1.0
C      1  0.4032290000000  0.5011650000000  0.4595870000000 1.0
C      1  0.5204500000000  0.5622010000000  0.4585690000000 1.0
C      1  0.4804880000000  0.4985440000000  0.5632750000000 1.0
C      1  0.4408620000000  0.5426920000000  0.4664880000000 1.0
C      1  0.4472500000000  0.4936540000000  0.4420220000000 1.0
C      1  0.4922850000000  0.5199440000000  0.4144470000000 1.0
C      1  0.5500480000000  0.5708780000000  0.4954610000000 1.0
C      1  0.4207050000000  0.5356190000000  0.4876380000000 1.0
C      1  0.4952210000000  0.4704880000000  0.4251020000000 1.0
C      1  0.5799570000000  0.5401240000000  0.4703590000000 1.0
C      1  0.5516780000000  0.4669330000000  0.5514460000000 1.0
C      1  0.5641470000000  0.5202560000000  0.5570810000000 1.0
C      1  0.4591920000000  0.5168110000000  0.4974540000000 1.0
C      1  0.5889080000000  0.5178890000000  0.4895420000000 1.0
C      1  0.5162800000000  0.4789950000000  0.5194630000000 1.0
C      1  0.5448280000000  0.4965810000000  0.5583860000000 1.0
C      1  0.4402820000000  0.4819300000000  0.5319370000000 1.0
C      1  0.4411090000000  0.4409200000000  0.4721680000000 1.0
C      1  0.5335770000000  0.5243390000000  0.4828890000000 1.0
C      1  0.5200400000000  0.4600360000000  0.4359330000000 1.0
C      1  0.5200580000000  0.4957800000000  0.4596920000000 1.0
C      1  0.5791710000000  0.4581210000000  0.4790100000000 1.0
C      1  0.4681550000000  0.5405070000000  0.5702400000000 1.0
C      1  0.4731660000000  0.4532550000000  0.5602870000000 1.0
C      1  0.5668020000000  0.4811930000000  0.4503340000000 1.0
C      1  0.5240260000000  0.4993800000000  0.5803780000000 1.0
C      1  0.5046440000000  0.5333440000000  0.4880200000000 1.0
C      1  0.4851650000000  0.5080000000000  0.4907650000000 1.0
C      1  0.5760900000000  0.5598750000000  0.4939730000000 1.0
C      1  0.5127070000000  0.5285850000000  0.5444560000000 1.0
C      1  0.4973530000000  0.4921930000000  0.4064250000000 1.0
END
