TITL C-951345-2650-668 0.000672522269213301 125000 -130.732199820245 0 0 23 (C1) n - 1
REM
REM in /home/bkarasulu/work/CARBON/AIRSS/Generating-Clusters/EDIP-Nigel-Params/with-SteepDescent/Only-C1/SD-CG/HFTN-CG
REM
REM
REM
REM
REM
REM ./C.cell (11c1c37f851c82e70ff6c80c92926a4b)
REM
REM compiler GCC version 9.2.1 20190827 (Red Hat 9.2.1-1)
REM options -cpp -mtune=generic -march=x86-64 -g -O0 -fpre-include=/usr/include/finclude/math-vector-fortran.h
REM seed 1839545646 517922491 904948741 1069478225 -1995413399 1535066771 947374709 -432217889 1475049612 407796112 2051399184 967208030 -803499797 -1299701623 -636086032 -1994247605 -1878953817 804392042 -1648264818 -1055530012 414716937 326034296 -120876145 624332159 -461990877 -471593077 -666712372 1456696652 711249343 291797118 -1619720697 1029899083 659269519
REM
CELL 1.54180   50.00000   50.00000   50.00000   90.00000   90.00000   90.00000
LATT -1
SFAC C  
C      1  0.4169700000000  0.5055360000000  0.4784830000000 1.0
C      1  0.4840820000000  0.4853170000000  0.4885010000000 1.0
C      1  0.6498370000000  0.4453760000000  0.4757850000000 1.0
C      1  0.5281290000000  0.4853380000000  0.5077900000000 1.0
C      1  0.4448820000000  0.5248390000000  0.5325610000000 1.0
C      1  0.5508490000000  0.4998800000000  0.5174480000000 1.0
C      1  0.6500750000000  0.4610220000000  0.4977110000000 1.0
C      1  0.4117490000000  0.5633660000000  0.5142700000000 1.0
C      1  0.5754290000000  0.4622950000000  0.4954820000000 1.0
C      1  0.3988050000000  0.5539790000000  0.4886680000000 1.0
C      1  0.4338110000000  0.4914290000000  0.4950830000000 1.0
C      1  0.3930010000000  0.5796300000000  0.5000000000000 1.0
C      1  0.4044960000000  0.5290310000000  0.4778040000000 1.0
C      1  0.5557210000000  0.4836070000000  0.4943450000000 1.0
C      1  0.5802470000000  0.4462740000000  0.4721770000000 1.0
C      1  0.4352770000000  0.5017980000000  0.5206860000000 1.0
C      1  0.6261110000000  0.4472880000000  0.4912260000000 1.0
C      1  0.5034410000000  0.4992850000000  0.5023170000000 1.0
C      1  0.4578060000000  0.4824790000000  0.4848630000000 1.0
C      1  0.6027630000000  0.4613200000000  0.4817570000000 1.0
C      1  0.4941250000000  0.5163880000000  0.5218640000000 1.0
C      1  0.4300440000000  0.5475650000000  0.5281070000000 1.0
C      1  0.4723500000000  0.5269580000000  0.5330710000000 1.0
END
