TITL C-950530-3293-558 3.35596340724322e-07 125000 -493.636378504115 0 0 81 (C1) n - 1
REM
REM in /home/bkarasulu/work/CARBON/AIRSS/Generating-Clusters/EDIP-Nigel-Params/with-SteepDescent/Only-C1/SD-CG/HFTN-CG
REM
REM
REM
REM
REM
REM ./C.cell (11c1c37f851c82e70ff6c80c92926a4b)
REM
REM compiler GCC version 9.2.1 20190827 (Red Hat 9.2.1-1)
REM options -cpp -mtune=generic -march=x86-64 -g -O0 -fpre-include=/usr/include/finclude/math-vector-fortran.h
REM seed -20103929 1513843305 1738643695 1972711058 1961964951 1126067546 -1986088929 -388853859 -371815879 -934314997 -1459636541 -39538208 1003180621 -34134777 1566735414 -1396655141 -1333798154 1868029222 -1290587614 1594544639 -732911525 902608243 901430476 -1466950241 -145807550 -819391428 1644094301 441828729 1458061212 848615401 58214693 710551821 1218093281
REM
CELL 1.54180   50.00000   50.00000   50.00000   90.00000   90.00000   90.00000
LATT -1
SFAC C  
C      1  0.5017090000000  0.4838050000000  0.5711260000000 1.0
C      1  0.4461930000000  0.4564900000000  0.5439490000000 1.0
C      1  0.5273520000000  0.4604120000000  0.5253550000000 1.0
C      1  0.5414840000000  0.5353230000000  0.4642260000000 1.0
C      1  0.4510000000000  0.4901310000000  0.5076160000000 1.0
C      1  0.4382310000000  0.4825030000000  0.5560100000000 1.0
C      1  0.4651880000000  0.5676150000000  0.4746630000000 1.0
C      1  0.4806480000000  0.5031710000000  0.5817270000000 1.0
C      1  0.4589240000000  0.5027380000000  0.5615620000000 1.0
C      1  0.4920940000000  0.4572900000000  0.5625670000000 1.0
C      1  0.4499710000000  0.5287550000000  0.5530820000000 1.0
C      1  0.4993310000000  0.5275780000000  0.5787620000000 1.0
C      1  0.5248930000000  0.5594400000000  0.4587630000000 1.0
C      1  0.4943500000000  0.4177790000000  0.4711400000000 1.0
C      1  0.4438750000000  0.5477810000000  0.4798450000000 1.0
C      1  0.5306610000000  0.5694250000000  0.5716690000000 1.0
C      1  0.5416510000000  0.4711250000000  0.4847650000000 1.0
C      1  0.5768640000000  0.5276260000000  0.5507650000000 1.0
C      1  0.5517580000000  0.4688160000000  0.5114600000000 1.0
C      1  0.5247000000000  0.5206670000000  0.5896040000000 1.0
C      1  0.4274940000000  0.4940210000000  0.5290640000000 1.0
C      1  0.5640540000000  0.4933780000000  0.5211080000000 1.0
C      1  0.5526360000000  0.4885280000000  0.5684530000000 1.0
C      1  0.4938520000000  0.5153760000000  0.4331990000000 1.0
C      1  0.5221590000000  0.5298040000000  0.5303970000000 1.0
C      1  0.4760830000000  0.5263690000000  0.4858910000000 1.0
C      1  0.5717110000000  0.4958100000000  0.4557840000000 1.0
C      1  0.4660660000000  0.5068800000000  0.4377310000000 1.0
C      1  0.5225060000000  0.5785480000000  0.4792480000000 1.0
C      1  0.5016290000000  0.5585880000000  0.4408320000000 1.0
C      1  0.5038410000000  0.5180260000000  0.4804850000000 1.0
C      1  0.5200850000000  0.5790210000000  0.5269270000000 1.0
C      1  0.4307960000000  0.4384810000000  0.5011900000000 1.0
C      1  0.4633740000000  0.5599160000000  0.5207980000000 1.0
C      1  0.5843110000000  0.5081690000000  0.4781370000000 1.0
C      1  0.5322280000000  0.4811340000000  0.4216200000000 1.0
C      1  0.5161370000000  0.4558450000000  0.4827220000000 1.0
C      1  0.4991720000000  0.5398600000000  0.4205820000000 1.0
C      1  0.4745160000000  0.5114590000000  0.5126790000000 1.0
C      1  0.5455970000000  0.4600370000000  0.4380180000000 1.0
C      1  0.4776490000000  0.4303130000000  0.4923000000000 1.0
C      1  0.4337800000000  0.4690420000000  0.4662990000000 1.0
C      1  0.5221250000000  0.4283890000000  0.4711060000000 1.0
C      1  0.5452580000000  0.5498460000000  0.5310420000000 1.0
C      1  0.5290010000000  0.4353710000000  0.4424880000000 1.0
C      1  0.4398850000000  0.4933150000000  0.4799700000000 1.0
C      1  0.5599570000000  0.4697620000000  0.4620350000000 1.0
C      1  0.5039950000000  0.4393470000000  0.4278290000000 1.0
C      1  0.5161040000000  0.4346740000000  0.5211280000000 1.0
C      1  0.4969970000000  0.4906560000000  0.5426180000000 1.0
C      1  0.4509450000000  0.4375490000000  0.4813700000000 1.0
C      1  0.4286090000000  0.5263480000000  0.5319560000000 1.0
C      1  0.4274730000000  0.4555560000000  0.5222230000000 1.0
C      1  0.5452290000000  0.5269680000000  0.4926310000000 1.0
C      1  0.4784570000000  0.5707610000000  0.4503960000000 1.0
C      1  0.5692060000000  0.4995100000000  0.5490540000000 1.0
C      1  0.4753470000000  0.4522660000000  0.5396710000000 1.0
C      1  0.5064990000000  0.5799650000000  0.5019190000000 1.0
C      1  0.4545660000000  0.4318380000000  0.4432250000000 1.0
C      1  0.4729400000000  0.5358710000000  0.5353120000000 1.0
C      1  0.4806940000000  0.4679060000000  0.4710770000000 1.0
C      1  0.5286020000000  0.4941680000000  0.5811100000000 1.0
C      1  0.5035920000000  0.4678060000000  0.4182490000000 1.0
C      1  0.4548310000000  0.5143250000000  0.4653890000000 1.0
C      1  0.5004280000000  0.5398270000000  0.5497380000000 1.0
C      1  0.5704910000000  0.5161070000000  0.5025640000000 1.0
C      1  0.5512450000000  0.5543570000000  0.5598600000000 1.0
C      1  0.5073030000000  0.4729610000000  0.4566700000000 1.0
C      1  0.4478060000000  0.4598300000000  0.4431550000000 1.0
C      1  0.4878360000000  0.4339460000000  0.5199000000000 1.0
C      1  0.5100800000000  0.5686250000000  0.5521290000000 1.0
C      1  0.5209400000000  0.5126080000000  0.5049670000000 1.0
C      1  0.5442490000000  0.5061830000000  0.4425170000000 1.0
C      1  0.4818820000000  0.4731400000000  0.5018910000000 1.0
C      1  0.5752870000000  0.5386560000000  0.5228140000000 1.0
C      1  0.4830260000000  0.4242060000000  0.4436690000000 1.0
C      1  0.4702020000000  0.4777510000000  0.4350000000000 1.0
C      1  0.4377710000000  0.5478440000000  0.5101940000000 1.0
C      1  0.5117350000000  0.5039650000000  0.4549070000000 1.0
C      1  0.4804050000000  0.5676710000000  0.4988520000000 1.0
C      1  0.5084460000000  0.4830500000000  0.5172530000000 1.0
END
