TITL C-951340-9809-314 1.19275061971903e-06 125000 -409.201455226485 0 0 68 (C1) n - 1
REM
REM in /home/bkarasulu/work/CARBON/AIRSS/Generating-Clusters/EDIP-Nigel-Params/with-SteepDescent/Only-C1/SD-CG/HFTN-CG
REM
REM
REM
REM
REM
REM ./C.cell (11c1c37f851c82e70ff6c80c92926a4b)
REM
REM compiler GCC version 9.2.1 20190827 (Red Hat 9.2.1-1)
REM options -cpp -mtune=generic -march=x86-64 -g -O0 -fpre-include=/usr/include/finclude/math-vector-fortran.h
REM seed -1219235383 660626103 -950616754 -1604002254 -1065522914 -1967453613 -158878105 -2106207571 -243655023 -145827526 499618127 2022895203 779444084 -1170149281 1428232752 179746660 556589533 -591961482 1976923541 -548046879 1698067515 -1177018276 -344561985 339350046 1146066098 171715754 1441723837 1005581696 -239563562 786025892 269511734 434924561 2023195257
REM
CELL 1.54180   50.00000   50.00000   50.00000   90.00000   90.00000   90.00000
LATT -1
SFAC C  
C      1  0.4725560000000  0.5793410000000  0.4965890000000 1.0
C      1  0.4566320000000  0.4651190000000  0.4309050000000 1.0
C      1  0.5212550000000  0.4722900000000  0.5761990000000 1.0
C      1  0.5576720000000  0.4853920000000  0.5546280000000 1.0
C      1  0.4916130000000  0.5375050000000  0.4736950000000 1.0
C      1  0.5254660000000  0.5104290000000  0.5380510000000 1.0
C      1  0.4974750000000  0.4507810000000  0.4618550000000 1.0
C      1  0.5637250000000  0.4925110000000  0.5268050000000 1.0
C      1  0.5278410000000  0.4238110000000  0.4935900000000 1.0
C      1  0.4572440000000  0.5072170000000  0.4511200000000 1.0
C      1  0.5019540000000  0.4384640000000  0.4905070000000 1.0
C      1  0.5455470000000  0.4583320000000  0.4485040000000 1.0
C      1  0.4545960000000  0.4462910000000  0.4995710000000 1.0
C      1  0.4732100000000  0.4352230000000  0.5376110000000 1.0
C      1  0.5370050000000  0.5120020000000  0.4813610000000 1.0
C      1  0.4713980000000  0.5484520000000  0.4512380000000 1.0
C      1  0.4424950000000  0.5246940000000  0.4893810000000 1.0
C      1  0.5737810000000  0.4879210000000  0.4812530000000 1.0
C      1  0.4993390000000  0.5187470000000  0.5658860000000 1.0
C      1  0.4395220000000  0.4773160000000  0.5354370000000 1.0
C      1  0.4444340000000  0.5354070000000  0.4604940000000 1.0
C      1  0.4687920000000  0.4542600000000  0.4543380000000 1.0
C      1  0.5755230000000  0.4727230000000  0.5085660000000 1.0
C      1  0.4847700000000  0.5076030000000  0.5258570000000 1.0
C      1  0.5039920000000  0.5453710000000  0.5516300000000 1.0
C      1  0.5294020000000  0.4501170000000  0.5313600000000 1.0
C      1  0.4789820000000  0.4953280000000  0.5623650000000 1.0
C      1  0.5117680000000  0.4818090000000  0.4259990000000 1.0
C      1  0.4417070000000  0.5237150000000  0.5389970000000 1.0
C      1  0.4919080000000  0.5370630000000  0.5260380000000 1.0
C      1  0.4570740000000  0.4665480000000  0.4779850000000 1.0
C      1  0.5000840000000  0.5014250000000  0.4423420000000 1.0
C      1  0.5349700000000  0.5611450000000  0.4567890000000 1.0
C      1  0.5679550000000  0.5206920000000  0.5182990000000 1.0
C      1  0.4393440000000  0.4852960000000  0.4416690000000 1.0
C      1  0.4430800000000  0.5400570000000  0.5159380000000 1.0
C      1  0.5500720000000  0.5445380000000  0.5259590000000 1.0
C      1  0.5423480000000  0.4590790000000  0.5578780000000 1.0
C      1  0.5247650000000  0.5010890000000  0.5072970000000 1.0
C      1  0.4792340000000  0.4900400000000  0.4791240000000 1.0
C      1  0.5429840000000  0.5609980000000  0.5031810000000 1.0
C      1  0.4300390000000  0.4777850000000  0.4698240000000 1.0
C      1  0.4226660000000  0.4876890000000  0.5155790000000 1.0
C      1  0.5182040000000  0.4609060000000  0.4433270000000 1.0
C      1  0.4765520000000  0.4255190000000  0.5017590000000 1.0
C      1  0.5200400000000  0.5790970000000  0.4990550000000 1.0
C      1  0.5334070000000  0.5468450000000  0.5496710000000 1.0
C      1  0.5134330000000  0.5763080000000  0.4709050000000 1.0
C      1  0.5330780000000  0.5002140000000  0.5698070000000 1.0
C      1  0.4830850000000  0.5748780000000  0.4684950000000 1.0
C      1  0.5145440000000  0.5219330000000  0.4587990000000 1.0
C      1  0.5023390000000  0.4581970000000  0.5150260000000 1.0
C      1  0.4968350000000  0.4444420000000  0.5514450000000 1.0
C      1  0.5553670000000  0.4509220000000  0.4961680000000 1.0
C      1  0.4499850000000  0.4994270000000  0.5511950000000 1.0
C      1  0.4248640000000  0.4992890000000  0.4901420000000 1.0
C      1  0.4690880000000  0.5555870000000  0.5179020000000 1.0
C      1  0.4592520000000  0.4583040000000  0.5255320000000 1.0
C      1  0.5513340000000  0.5485290000000  0.4782860000000 1.0
C      1  0.5497620000000  0.4706280000000  0.4729980000000 1.0
C      1  0.4932570000000  0.4685150000000  0.5679160000000 1.0
C      1  0.4774030000000  0.5151100000000  0.4315700000000 1.0
C      1  0.5261660000000  0.5409980000000  0.4396830000000 1.0
C      1  0.5688440000000  0.5177420000000  0.4880090000000 1.0
C      1  0.4956490000000  0.5838040000000  0.5141670000000 1.0
C      1  0.4991880000000  0.4871620000000  0.5062210000000 1.0
C      1  0.4727370000000  0.5188520000000  0.4906960000000 1.0
C      1  0.5393630000000  0.4251770000000  0.5195380000000 1.0
END
