TITL C-951345-2650-343 -1.11608060717297e-06 125000 -908.88927652152 0 0 147 (C1) n - 1
REM
REM in /home/bkarasulu/work/CARBON/AIRSS/Generating-Clusters/EDIP-Nigel-Params/with-SteepDescent/Only-C1/SD-CG/HFTN-CG
REM
REM
REM
REM
REM
REM ./C.cell (11c1c37f851c82e70ff6c80c92926a4b)
REM
REM compiler GCC version 9.2.1 20190827 (Red Hat 9.2.1-1)
REM options -cpp -mtune=generic -march=x86-64 -g -O0 -fpre-include=/usr/include/finclude/math-vector-fortran.h
REM seed -636953698 555940278 724288767 -1371367384 -2089091972 1719040835 -1357673469 -159896090 -1645513714 -1593206375 -1088843109 561627216 2071053957 -244169401 114096176 -253071913 167083285 1860604223 -1129183591 -124932712 1141459572 -352650910 -1182572263 1524726244 1136063859 -599311 55876520 271076457 1350482959 -1141751227 473795138 422650827 107712496
REM
CELL 1.54180   50.00000   50.00000   50.00000   90.00000   90.00000   90.00000
LATT -1
SFAC C  
C      1  0.5610520000000  0.4899250000000  0.5027410000000 1.0
C      1  0.4672400000000  0.4205580000000  0.5579430000000 1.0
C      1  0.5019370000000  0.4252420000000  0.4362040000000 1.0
C      1  0.4511930000000  0.5889870000000  0.4849420000000 1.0
C      1  0.5771160000000  0.5533470000000  0.4728210000000 1.0
C      1  0.4867440000000  0.4818000000000  0.6139150000000 1.0
C      1  0.5836770000000  0.4942250000000  0.5502790000000 1.0
C      1  0.5610230000000  0.4488810000000  0.4289580000000 1.0
C      1  0.5388540000000  0.5552280000000  0.5662000000000 1.0
C      1  0.5815530000000  0.5216470000000  0.5609840000000 1.0
C      1  0.4566430000000  0.4552970000000  0.5901680000000 1.0
C      1  0.4729650000000  0.4122180000000  0.4742220000000 1.0
C      1  0.5136100000000  0.5725940000000  0.5615820000000 1.0
C      1  0.4785700000000  0.4795670000000  0.3947400000000 1.0
C      1  0.5504410000000  0.4523860000000  0.4795160000000 1.0
C      1  0.4203270000000  0.4771830000000  0.4434690000000 1.0
C      1  0.5353530000000  0.4813180000000  0.5999220000000 1.0
C      1  0.4474780000000  0.5075100000000  0.5106050000000 1.0
C      1  0.5999960000000  0.5247160000000  0.5187390000000 1.0
C      1  0.5505890000000  0.5757470000000  0.5002410000000 1.0
C      1  0.4711690000000  0.5478320000000  0.4812290000000 1.0
C      1  0.4753280000000  0.4236650000000  0.4472330000000 1.0
C      1  0.4645840000000  0.4672690000000  0.4285810000000 1.0
C      1  0.4876740000000  0.4482080000000  0.5236650000000 1.0
C      1  0.4987380000000  0.5818410000000  0.4285980000000 1.0
C      1  0.4706830000000  0.4934560000000  0.4715850000000 1.0
C      1  0.4450180000000  0.5421780000000  0.5873790000000 1.0
C      1  0.4962000000000  0.4192410000000  0.5677660000000 1.0
C      1  0.5511580000000  0.4828830000000  0.4748100000000 1.0
C      1  0.4746330000000  0.4730950000000  0.5341620000000 1.0
C      1  0.4264340000000  0.5487510000000  0.4608170000000 1.0
C      1  0.5320000000000  0.4558860000000  0.5848220000000 1.0
C      1  0.5687460000000  0.4234210000000  0.5080370000000 1.0
C      1  0.5047930000000  0.4448500000000  0.5822650000000 1.0
C      1  0.5298010000000  0.5564330000000  0.4995990000000 1.0
C      1  0.4177520000000  0.4963960000000  0.4679180000000 1.0
C      1  0.5991300000000  0.4963080000000  0.4773730000000 1.0
C      1  0.4427200000000  0.4488520000000  0.4752120000000 1.0
C      1  0.4774550000000  0.4990950000000  0.5187640000000 1.0
C      1  0.4456240000000  0.5058790000000  0.4800490000000 1.0
C      1  0.3942240000000  0.5256080000000  0.4966540000000 1.0
C      1  0.4997730000000  0.5824110000000  0.4722270000000 1.0
C      1  0.5761940000000  0.5087070000000  0.4333670000000 1.0
C      1  0.4477820000000  0.4211390000000  0.4850190000000 1.0
C      1  0.5971610000000  0.5243150000000  0.4885950000000 1.0
C      1  0.4049300000000  0.5257730000000  0.4676530000000 1.0
C      1  0.4748940000000  0.5459330000000  0.5852020000000 1.0
C      1  0.4065810000000  0.4801930000000  0.4898020000000 1.0
C      1  0.5026170000000  0.4377880000000  0.4111200000000 1.0
C      1  0.5700300000000  0.4285210000000  0.5362790000000 1.0
C      1  0.4900800000000  0.5197390000000  0.5920760000000 1.0
C      1  0.4976530000000  0.5542030000000  0.4205780000000 1.0
C      1  0.5188600000000  0.4867770000000  0.4742770000000 1.0
C      1  0.5330880000000  0.5041300000000  0.4085940000000 1.0
C      1  0.4271900000000  0.4450500000000  0.5207560000000 1.0
C      1  0.5146300000000  0.5566770000000  0.4763350000000 1.0
C      1  0.5846920000000  0.4608130000000  0.4432630000000 1.0
C      1  0.5298950000000  0.5284230000000  0.3930010000000 1.0
C      1  0.5907110000000  0.4809890000000  0.5021660000000 1.0
C      1  0.5605140000000  0.5719590000000  0.4572100000000 1.0
C      1  0.5479290000000  0.5849780000000  0.5283080000000 1.0
C      1  0.5300280000000  0.5270860000000  0.5560970000000 1.0
C      1  0.5783240000000  0.4462510000000  0.4900700000000 1.0
C      1  0.5808170000000  0.5408120000000  0.5385380000000 1.0
C      1  0.4473420000000  0.5001620000000  0.5659190000000 1.0
C      1  0.5518990000000  0.5921900000000  0.4763790000000 1.0
C      1  0.4294220000000  0.5500280000000  0.5601560000000 1.0
C      1  0.4347740000000  0.4577940000000  0.5459280000000 1.0
C      1  0.5523990000000  0.4334300000000  0.4539650000000 1.0
C      1  0.5499840000000  0.4989980000000  0.5825710000000 1.0
C      1  0.5137200000000  0.4825380000000  0.4466280000000 1.0
C      1  0.4649200000000  0.5814000000000  0.5121240000000 1.0
C      1  0.4451530000000  0.5512490000000  0.4269710000000 1.0
C      1  0.4704610000000  0.4216750000000  0.5284220000000 1.0
C      1  0.5608610000000  0.5646580000000  0.5469510000000 1.0
C      1  0.5438540000000  0.4734940000000  0.5203670000000 1.0
C      1  0.5232800000000  0.4080940000000  0.4809080000000 1.0
C      1  0.5709270000000  0.5362650000000  0.4329460000000 1.0
C      1  0.4283440000000  0.4484420000000  0.4490380000000 1.0
C      1  0.4688070000000  0.5505320000000  0.4074410000000 1.0
C      1  0.4702700000000  0.4657680000000  0.4623670000000 1.0
C      1  0.4715190000000  0.5748590000000  0.4687530000000 1.0
C      1  0.5131340000000  0.4398950000000  0.5392410000000 1.0
C      1  0.4849630000000  0.5660020000000  0.5662260000000 1.0
C      1  0.4958790000000  0.5335060000000  0.4720870000000 1.0
C      1  0.5898570000000  0.4398540000000  0.4633950000000 1.0
C      1  0.5614250000000  0.4999340000000  0.4119600000000 1.0
C      1  0.4711110000000  0.4801610000000  0.5642840000000 1.0
C      1  0.4957180000000  0.5276660000000  0.4409920000000 1.0
C      1  0.5603480000000  0.5260140000000  0.5803680000000 1.0
C      1  0.3965350000000  0.4984920000000  0.5100630000000 1.0
C      1  0.5011430000000  0.4647310000000  0.4037110000000 1.0
C      1  0.5124970000000  0.4942630000000  0.6114610000000 1.0
C      1  0.4404940000000  0.5157690000000  0.5997460000000 1.0
C      1  0.4473240000000  0.5370830000000  0.5219080000000 1.0
C      1  0.4775150000000  0.5073260000000  0.4022250000000 1.0
C      1  0.5077370000000  0.5970940000000  0.4493520000000 1.0
C      1  0.4250410000000  0.4850650000000  0.5524150000000 1.0
C      1  0.5247300000000  0.4216910000000  0.4549770000000 1.0
C      1  0.5122260000000  0.4094270000000  0.5413490000000 1.0
C      1  0.4276070000000  0.4620920000000  0.4973210000000 1.0
C      1  0.4489750000000  0.4419200000000  0.5665300000000 1.0
C      1  0.4431030000000  0.5228530000000  0.4302810000000 1.0
C      1  0.5271050000000  0.5497000000000  0.4115640000000 1.0
C      1  0.4255230000000  0.5735800000000  0.4817260000000 1.0
C      1  0.5203970000000  0.4899160000000  0.5597920000000 1.0
C      1  0.4937990000000  0.5024470000000  0.5658460000000 1.0
C      1  0.4860070000000  0.5179550000000  0.5413320000000 1.0
C      1  0.4912550000000  0.4008330000000  0.5206210000000 1.0
C      1  0.4180160000000  0.5046470000000  0.5307930000000 1.0
C      1  0.4040510000000  0.5450580000000  0.5174480000000 1.0
C      1  0.5598700000000  0.5317050000000  0.4814700000000 1.0
C      1  0.5186530000000  0.5079410000000  0.4351480000000 1.0
C      1  0.5801030000000  0.4677790000000  0.5635570000000 1.0
C      1  0.5463160000000  0.4093550000000  0.4976320000000 1.0
C      1  0.5188570000000  0.5863250000000  0.5366820000000 1.0
C      1  0.4394600000000  0.5739650000000  0.5450520000000 1.0
C      1  0.5037250000000  0.4533620000000  0.4982690000000 1.0
C      1  0.4987610000000  0.4545230000000  0.4678080000000 1.0
C      1  0.4441380000000  0.4213700000000  0.5141050000000 1.0
C      1  0.5786240000000  0.4883430000000  0.4559110000000 1.0
C      1  0.4400170000000  0.4861720000000  0.4242500000000 1.0
C      1  0.4095930000000  0.5322110000000  0.5437100000000 1.0
C      1  0.4584110000000  0.5259140000000  0.5496030000000 1.0
C      1  0.4962670000000  0.4055360000000  0.4917140000000 1.0
C      1  0.4949910000000  0.5044050000000  0.4860730000000 1.0
C      1  0.4527710000000  0.4386480000000  0.4320840000000 1.0
C      1  0.5473760000000  0.4592400000000  0.4063760000000 1.0
C      1  0.5896120000000  0.4454030000000  0.5476580000000 1.0
C      1  0.4750760000000  0.6061830000000  0.5400800000000 1.0
C      1  0.5324270000000  0.4490140000000  0.5068020000000 1.0
C      1  0.6010020000000  0.4957500000000  0.5267960000000 1.0
C      1  0.4702550000000  0.5519660000000  0.5105010000000 1.0
C      1  0.4675010000000  0.5294410000000  0.3881000000000 1.0
C      1  0.4705950000000  0.5098970000000  0.4309230000000 1.0
C      1  0.5267400000000  0.4763860000000  0.3977290000000 1.0
C      1  0.5248590000000  0.4918750000000  0.5306040000000 1.0
C      1  0.4835450000000  0.4567720000000  0.5987730000000 1.0
C      1  0.4968100000000  0.5996590000000  0.5233310000000 1.0
C      1  0.4645290000000  0.5848440000000  0.5560720000000 1.0
C      1  0.4235280000000  0.5662030000000  0.5112500000000 1.0
C      1  0.5546040000000  0.4496180000000  0.5655930000000 1.0
C      1  0.4483650000000  0.5333910000000  0.4726960000000 1.0
C      1  0.5490210000000  0.5543850000000  0.4329450000000 1.0
C      1  0.5329130000000  0.5204310000000  0.5252630000000 1.0
C      1  0.5575180000000  0.5191430000000  0.5078720000000 1.0
C      1  0.4671170000000  0.5041020000000  0.6054720000000 1.0
END
