TITL C-951348-1603-351 -1.13968688721513e-05 125000 -1243.90999124564 0 0 200 (C1) n - 1
REM
REM in /home/bkarasulu/work/CARBON/AIRSS/Generating-Clusters/EDIP-Nigel-Params/with-SteepDescent/Only-C1/SD-CG/HFTN-CG
REM
REM
REM
REM
REM
REM ./C.cell (11c1c37f851c82e70ff6c80c92926a4b)
REM
REM compiler GCC version 9.2.1 20190827 (Red Hat 9.2.1-1)
REM options -cpp -mtune=generic -march=x86-64 -g -O0 -fpre-include=/usr/include/finclude/math-vector-fortran.h
REM seed -1018498139 -1622699050 -621272899 -641145572 1554853095 -1010222702 -814387570 -1429944029 2037043450 -1645261760 -544323916 -1666386323 1537226674 -1854062928 -1082878285 -1047208280 1777869263 291090877 1798356326 165307807 -1179389758 -1132982285 1037546685 -63167113 -1362542900 -1455041601 -484135940 1515444986 1345115265 -1810221844 696753319 -605848054 437622888
REM
CELL 1.54180   50.00000   50.00000   50.00000   90.00000   90.00000   90.00000
LATT -1
SFAC C  
C      1  0.4129490000000  0.4810060000000  0.5828730000000 1.0
C      1  0.4491220000000  0.5692610000000  0.6006240000000 1.0
C      1  0.5455610000000  0.4615190000000  0.4792260000000 1.0
C      1  0.6024010000000  0.4730300000000  0.5084040000000 1.0
C      1  0.4915360000000  0.5367590000000  0.3897570000000 1.0
C      1  0.4763250000000  0.4775640000000  0.4709020000000 1.0
C      1  0.4793700000000  0.4025670000000  0.5538140000000 1.0
C      1  0.4922190000000  0.3816810000000  0.5090060000000 1.0
C      1  0.4349500000000  0.5351610000000  0.5542820000000 1.0
C      1  0.5771770000000  0.5187770000000  0.5891510000000 1.0
C      1  0.5591720000000  0.4471620000000  0.5799420000000 1.0
C      1  0.5974880000000  0.4745830000000  0.5712750000000 1.0
C      1  0.5621020000000  0.4355960000000  0.5232340000000 1.0
C      1  0.4226370000000  0.5356020000000  0.4869110000000 1.0
C      1  0.5428810000000  0.5759520000000  0.5179280000000 1.0
C      1  0.5866840000000  0.4322210000000  0.5389420000000 1.0
C      1  0.5999460000000  0.5067440000000  0.4317510000000 1.0
C      1  0.5706120000000  0.5425460000000  0.4330190000000 1.0
C      1  0.4583400000000  0.5506580000000  0.6196100000000 1.0
C      1  0.4684150000000  0.5919030000000  0.5333430000000 1.0
C      1  0.5598920000000  0.5345890000000  0.4604080000000 1.0
C      1  0.4398240000000  0.4819730000000  0.5412200000000 1.0
C      1  0.5442630000000  0.4081180000000  0.4934310000000 1.0
C      1  0.4630260000000  0.5606370000000  0.4187140000000 1.0
C      1  0.4694250000000  0.5172970000000  0.3969240000000 1.0
C      1  0.4886580000000  0.4504160000000  0.6060190000000 1.0
C      1  0.5994690000000  0.4192780000000  0.4751330000000 1.0
C      1  0.4256510000000  0.5612320000000  0.5825570000000 1.0
C      1  0.4524780000000  0.5997610000000  0.4630340000000 1.0
C      1  0.5079620000000  0.5428700000000  0.5716500000000 1.0
C      1  0.5025550000000  0.4884070000000  0.4856550000000 1.0
C      1  0.5109040000000  0.5047850000000  0.4632190000000 1.0
C      1  0.5836760000000  0.5779820000000  0.4862580000000 1.0
C      1  0.4999280000000  0.4111310000000  0.4380010000000 1.0
C      1  0.5723830000000  0.4313790000000  0.4359180000000 1.0
C      1  0.4294300000000  0.5847380000000  0.4537080000000 1.0
C      1  0.6158990000000  0.4857000000000  0.5540620000000 1.0
C      1  0.5467090000000  0.4170910000000  0.4451440000000 1.0
C      1  0.4049200000000  0.5048460000000  0.4068930000000 1.0
C      1  0.4508830000000  0.5409370000000  0.5284730000000 1.0
C      1  0.4640660000000  0.4443450000000  0.5080760000000 1.0
C      1  0.4486310000000  0.5145070000000  0.5740220000000 1.0
C      1  0.4872920000000  0.4141150000000  0.5773520000000 1.0
C      1  0.5148320000000  0.5705930000000  0.4205120000000 1.0
C      1  0.5427310000000  0.5825610000000  0.4651390000000 1.0
C      1  0.5416280000000  0.5763840000000  0.4115500000000 1.0
C      1  0.5947610000000  0.5305010000000  0.5699250000000 1.0
C      1  0.5144270000000  0.4185210000000  0.5017550000000 1.0
C      1  0.5065200000000  0.5386350000000  0.6152360000000 1.0
C      1  0.5276240000000  0.4931370000000  0.4434760000000 1.0
C      1  0.4578490000000  0.4939990000000  0.4463860000000 1.0
C      1  0.5058140000000  0.4945630000000  0.5974860000000 1.0
C      1  0.4845460000000  0.5127730000000  0.5487650000000 1.0
C      1  0.5291680000000  0.5231750000000  0.5095910000000 1.0
C      1  0.4444690000000  0.5304280000000  0.3944050000000 1.0
C      1  0.4210400000000  0.4948390000000  0.4713080000000 1.0
C      1  0.4354840000000  0.5645160000000  0.4335010000000 1.0
C      1  0.4965400000000  0.3846500000000  0.4548840000000 1.0
C      1  0.4157210000000  0.5434420000000  0.4304750000000 1.0
C      1  0.5505940000000  0.4849560000000  0.4609570000000 1.0
C      1  0.3866280000000  0.4669890000000  0.4711570000000 1.0
C      1  0.4606930000000  0.5811520000000  0.4846130000000 1.0
C      1  0.5533590000000  0.4948330000000  0.5484500000000 1.0
C      1  0.4456510000000  0.4404260000000  0.5807030000000 1.0
C      1  0.4664940000000  0.3933030000000  0.4470890000000 1.0
C      1  0.5472420000000  0.5553580000000  0.4787010000000 1.0
C      1  0.5146220000000  0.5898040000000  0.5119560000000 1.0
C      1  0.3993470000000  0.5468660000000  0.5304430000000 1.0
C      1  0.5102910000000  0.6136300000000  0.4823300000000 1.0
C      1  0.4543670000000  0.5902300000000  0.5582690000000 1.0
C      1  0.4807270000000  0.5635050000000  0.3850620000000 1.0
C      1  0.5843530000000  0.4489310000000  0.5641120000000 1.0
C      1  0.4902040000000  0.4564900000000  0.4507000000000 1.0
C      1  0.4060290000000  0.5345070000000  0.5837850000000 1.0
C      1  0.5249180000000  0.4898700000000  0.5508710000000 1.0
C      1  0.4727550000000  0.4448340000000  0.4303830000000 1.0
C      1  0.5681760000000  0.4504320000000  0.4156820000000 1.0
C      1  0.5343160000000  0.4380600000000  0.4623910000000 1.0
C      1  0.4674780000000  0.4199100000000  0.4894540000000 1.0
C      1  0.5619240000000  0.5114280000000  0.5032190000000 1.0
C      1  0.4301350000000  0.4710230000000  0.4842230000000 1.0
C      1  0.3922220000000  0.5020590000000  0.5440100000000 1.0
C      1  0.4778960000000  0.5360940000000  0.6054260000000 1.0
C      1  0.5170290000000  0.5628530000000  0.6035160000000 1.0
C      1  0.4131510000000  0.5765490000000  0.4773540000000 1.0
C      1  0.5050210000000  0.4326410000000  0.4588040000000 1.0
C      1  0.5582510000000  0.4687620000000  0.5998450000000 1.0
C      1  0.4230220000000  0.5868110000000  0.5074530000000 1.0
C      1  0.4492050000000  0.4276660000000  0.4380130000000 1.0
C      1  0.4851580000000  0.4615330000000  0.5597670000000 1.0
C      1  0.5898710000000  0.4394310000000  0.4579770000000 1.0
C      1  0.4266950000000  0.4693650000000  0.4279510000000 1.0
C      1  0.4027800000000  0.4858990000000  0.4272210000000 1.0
C      1  0.4851420000000  0.5441940000000  0.4627380000000 1.0
C      1  0.4767080000000  0.4402300000000  0.5817270000000 1.0
C      1  0.5425050000000  0.5629110000000  0.5898460000000 1.0
C      1  0.5627490000000  0.4872480000000  0.5203360000000 1.0
C      1  0.5444090000000  0.3952930000000  0.4671680000000 1.0
C      1  0.6161830000000  0.5411140000000  0.4766970000000 1.0
C      1  0.5952900000000  0.5520140000000  0.4942630000000 1.0
C      1  0.4231830000000  0.5100570000000  0.5904740000000 1.0
C      1  0.5698130000000  0.5887410000000  0.5095650000000 1.0
C      1  0.4423010000000  0.3963680000000  0.5200370000000 1.0
C      1  0.5541870000000  0.5257690000000  0.5519110000000 1.0
C      1  0.4160920000000  0.4343440000000  0.5321070000000 1.0
C      1  0.5384570000000  0.6084530000000  0.4806270000000 1.0
C      1  0.3935100000000  0.5546590000000  0.4715640000000 1.0
C      1  0.5585030000000  0.5233690000000  0.4136100000000 1.0
C      1  0.5347540000000  0.4656810000000  0.6149240000000 1.0
C      1  0.6091140000000  0.4319960000000  0.5216370000000 1.0
C      1  0.5385290000000  0.3884890000000  0.5142990000000 1.0
C      1  0.4274510000000  0.5784300000000  0.5581640000000 1.0
C      1  0.5245350000000  0.5176620000000  0.6039350000000 1.0
C      1  0.4571230000000  0.4887100000000  0.5180620000000 1.0
C      1  0.4403270000000  0.4691570000000  0.5869440000000 1.0
C      1  0.4560910000000  0.4847080000000  0.5658820000000 1.0
C      1  0.4233230000000  0.4421940000000  0.4372140000000 1.0
C      1  0.5229060000000  0.4359080000000  0.4055020000000 1.0
C      1  0.5815640000000  0.5348130000000  0.5451400000000 1.0
C      1  0.4740880000000  0.5116530000000  0.4267200000000 1.0
C      1  0.6151440000000  0.4331160000000  0.4940010000000 1.0
C      1  0.5109580000000  0.5330630000000  0.4658990000000 1.0
C      1  0.4648140000000  0.3918190000000  0.5012670000000 1.0
C      1  0.4195960000000  0.4151600000000  0.4774850000000 1.0
C      1  0.3963100000000  0.5293270000000  0.5540290000000 1.0
C      1  0.4346850000000  0.4278840000000  0.5551450000000 1.0
C      1  0.5210940000000  0.4663000000000  0.4942490000000 1.0
C      1  0.5731680000000  0.4893680000000  0.5812270000000 1.0
C      1  0.5335710000000  0.4450710000000  0.5655880000000 1.0
C      1  0.4865540000000  0.4534030000000  0.5278910000000 1.0
C      1  0.5008580000000  0.6065550000000  0.4554290000000 1.0
C      1  0.5360160000000  0.5407640000000  0.5332360000000 1.0
C      1  0.5603930000000  0.4759530000000  0.4068680000000 1.0
C      1  0.5143650000000  0.4460940000000  0.5164020000000 1.0
C      1  0.5022940000000  0.5058350000000  0.5085400000000 1.0
C      1  0.4567660000000  0.4699890000000  0.4949830000000 1.0
C      1  0.5357190000000  0.4317050000000  0.5384920000000 1.0
C      1  0.5229800000000  0.5443910000000  0.4898560000000 1.0
C      1  0.5075730000000  0.4699950000000  0.6125410000000 1.0
C      1  0.5049290000000  0.5922370000000  0.5648060000000 1.0
C      1  0.5159400000000  0.5585850000000  0.5476920000000 1.0
C      1  0.5323170000000  0.4842810000000  0.3991800000000 1.0
C      1  0.4171990000000  0.5697350000000  0.5320060000000 1.0
C      1  0.4000840000000  0.5288800000000  0.5069820000000 1.0
C      1  0.4806080000000  0.5397690000000  0.4339760000000 1.0
C      1  0.5651350000000  0.5713380000000  0.4264780000000 1.0
C      1  0.4848200000000  0.4923100000000  0.5279610000000 1.0
C      1  0.6114480000000  0.5108180000000  0.5098070000000 1.0
C      1  0.5483340000000  0.5319420000000  0.5865500000000 1.0
C      1  0.4204570000000  0.4148290000000  0.5088700000000 1.0
C      1  0.4740050000000  0.6080670000000  0.4473460000000 1.0
C      1  0.5283860000000  0.4004450000000  0.5391740000000 1.0
C      1  0.4780450000000  0.5470720000000  0.5760140000000 1.0
C      1  0.4495520000000  0.4778230000000  0.4123230000000 1.0
C      1  0.3866480000000  0.4707790000000  0.5096780000000 1.0
C      1  0.6169640000000  0.5483610000000  0.4498780000000 1.0
C      1  0.6177500000000  0.5120550000000  0.4802420000000 1.0
C      1  0.6167670000000  0.4610210000000  0.4860450000000 1.0
C      1  0.4088400000000  0.4541040000000  0.4928500000000 1.0
C      1  0.4194510000000  0.5282510000000  0.4068110000000 1.0
C      1  0.4996360000000  0.3941840000000  0.5349420000000 1.0
C      1  0.3976230000000  0.4567430000000  0.5353210000000 1.0
C      1  0.5076280000000  0.5393120000000  0.4162500000000 1.0
C      1  0.4717070000000  0.5786270000000  0.5800640000000 1.0
C      1  0.5149390000000  0.5809440000000  0.4498960000000 1.0
C      1  0.5864070000000  0.5290570000000  0.5147350000000 1.0
C      1  0.4486120000000  0.4132450000000  0.4659120000000 1.0
C      1  0.5308970000000  0.5120940000000  0.4167470000000 1.0
C      1  0.4039170000000  0.4353900000000  0.4593290000000 1.0
C      1  0.5141020000000  0.4691630000000  0.5690180000000 1.0
C      1  0.6021520000000  0.4664900000000  0.4615550000000 1.0
C      1  0.4896550000000  0.5814410000000  0.4062510000000 1.0
C      1  0.4430340000000  0.5540300000000  0.5009870000000 1.0
C      1  0.5529530000000  0.6113400000000  0.5046480000000 1.0
C      1  0.5112910000000  0.4626280000000  0.4067780000000 1.0
C      1  0.3956260000000  0.4959310000000  0.4550840000000 1.0
C      1  0.4969110000000  0.5967610000000  0.5362130000000 1.0
C      1  0.4409560000000  0.5125840000000  0.4621930000000 1.0
C      1  0.4725210000000  0.4614190000000  0.4067750000000 1.0
C      1  0.4878140000000  0.5701110000000  0.4762770000000 1.0
C      1  0.6002160000000  0.5364370000000  0.4311250000000 1.0
C      1  0.5107410000000  0.4702760000000  0.4351030000000 1.0
C      1  0.3923080000000  0.5009790000000  0.5152270000000 1.0
C      1  0.4100590000000  0.4796650000000  0.5517010000000 1.0
C      1  0.5977550000000  0.4977010000000  0.4613250000000 1.0
C      1  0.4772570000000  0.5388210000000  0.5388220000000 1.0
C      1  0.5095460000000  0.5122480000000  0.5632000000000 1.0
C      1  0.5039000000000  0.5652260000000  0.4999080000000 1.0
C      1  0.3976940000000  0.5332210000000  0.4516470000000 1.0
C      1  0.5756620000000  0.5000030000000  0.4148030000000 1.0
C      1  0.5661240000000  0.4606520000000  0.5055830000000 1.0
C      1  0.5133020000000  0.3809460000000  0.4825210000000 1.0
C      1  0.5259980000000  0.4135170000000  0.4226090000000 1.0
C      1  0.5686960000000  0.5856230000000  0.4515700000000 1.0
C      1  0.6212170000000  0.4871590000000  0.5272130000000 1.0
C      1  0.4947070000000  0.4203290000000  0.4812660000000 1.0
C      1  0.4529580000000  0.5963580000000  0.5093450000000 1.0
C      1  0.5333380000000  0.5785320000000  0.5652400000000 1.0
C      1  0.4515170000000  0.4059150000000  0.5460270000000 1.0
C      1  0.5676730000000  0.5068890000000  0.4717490000000 1.0
END
