TITL C-950536-5891-274 -2.85338306777625e-07 125000 -543.410261168826 0 0 87 (C1) n - 1
REM
REM in /home/bkarasulu/work/CARBON/AIRSS/Generating-Clusters/EDIP-Nigel-Params/with-SteepDescent/Only-C1/SD-CG/HFTN-CG
REM
REM
REM
REM
REM
REM ./C.cell (11c1c37f851c82e70ff6c80c92926a4b)
REM
REM compiler GCC version 9.2.1 20190827 (Red Hat 9.2.1-1)
REM options -cpp -mtune=generic -march=x86-64 -g -O0 -fpre-include=/usr/include/finclude/math-vector-fortran.h
REM seed 896679513 1034222589 1410302304 -1137902712 1935182208 190173573 1716147755 142239784 -310950274 490072190 -1653096879 -1072737376 1510134905 276172814 -27500116 2053630248 -1385012944 -1198607038 1444072828 1927657012 -1613908719 -2055113216 -437679481 -1495866934 1315597786 -531299577 -1629210718 -1757750985 -1210396749 -1551735334 2058373365 -1516907840 356234910
REM
CELL 1.54180   50.00000   50.00000   50.00000   90.00000   90.00000   90.00000
LATT -1
SFAC C  
C      1  0.5258590000000  0.4408260000000  0.5619650000000 1.0
C      1  0.5576720000000  0.5311590000000  0.5471260000000 1.0
C      1  0.5517830000000  0.5580820000000  0.5421710000000 1.0
C      1  0.5364100000000  0.4777510000000  0.4383360000000 1.0
C      1  0.4673760000000  0.5072690000000  0.5648300000000 1.0
C      1  0.4601350000000  0.5671450000000  0.4534180000000 1.0
C      1  0.5019830000000  0.5066850000000  0.4748730000000 1.0
C      1  0.4948850000000  0.5339930000000  0.5448300000000 1.0
C      1  0.4342630000000  0.4981480000000  0.5001980000000 1.0
C      1  0.4928080000000  0.4781830000000  0.4652880000000 1.0
C      1  0.4794100000000  0.5747950000000  0.5258800000000 1.0
C      1  0.4265940000000  0.5418590000000  0.4819170000000 1.0
C      1  0.4168910000000  0.5150660000000  0.5303220000000 1.0
C      1  0.5081210000000  0.4656340000000  0.5080050000000 1.0
C      1  0.5299200000000  0.5487660000000  0.4814010000000 1.0
C      1  0.5138150000000  0.5013150000000  0.5371310000000 1.0
C      1  0.4571850000000  0.4503100000000  0.5348490000000 1.0
C      1  0.5250690000000  0.4904180000000  0.5640910000000 1.0
C      1  0.5285340000000  0.5660270000000  0.4358860000000 1.0
C      1  0.5182660000000  0.4090300000000  0.4889050000000 1.0
C      1  0.4194790000000  0.5061870000000  0.5580450000000 1.0
C      1  0.4733880000000  0.5561850000000  0.5487150000000 1.0
C      1  0.4740360000000  0.5714950000000  0.4775790000000 1.0
C      1  0.5567340000000  0.4673140000000  0.4573900000000 1.0
C      1  0.4927800000000  0.4847200000000  0.5254040000000 1.0
C      1  0.4966200000000  0.4872700000000  0.4145280000000 1.0
C      1  0.4611350000000  0.5151460000000  0.4313170000000 1.0
C      1  0.4931620000000  0.5164660000000  0.5850430000000 1.0
C      1  0.5529710000000  0.5240950000000  0.4458490000000 1.0
C      1  0.5567450000000  0.4574550000000  0.5007940000000 1.0
C      1  0.4415740000000  0.5222130000000  0.5703130000000 1.0
C      1  0.4717970000000  0.4255960000000  0.4919580000000 1.0
C      1  0.5007820000000  0.4322440000000  0.5535280000000 1.0
C      1  0.5403070000000  0.4645530000000  0.5632750000000 1.0
C      1  0.5647100000000  0.5144540000000  0.4716410000000 1.0
C      1  0.5817910000000  0.4744670000000  0.4988680000000 1.0
C      1  0.5624240000000  0.5152520000000  0.5212740000000 1.0
C      1  0.4265320000000  0.5429490000000  0.5299440000000 1.0
C      1  0.4567330000000  0.5157030000000  0.5112750000000 1.0
C      1  0.5031410000000  0.5765020000000  0.4767350000000 1.0
C      1  0.5503430000000  0.4436210000000  0.4748850000000 1.0
C      1  0.5833700000000  0.4933110000000  0.5225960000000 1.0
C      1  0.4990750000000  0.4148180000000  0.5319820000000 1.0
C      1  0.5683390000000  0.5318490000000  0.4961770000000 1.0
C      1  0.4610720000000  0.4499760000000  0.5053910000000 1.0
C      1  0.5008020000000  0.4427690000000  0.4313410000000 1.0
C      1  0.5049830000000  0.5257820000000  0.4526800000000 1.0
C      1  0.4669940000000  0.4885310000000  0.4179640000000 1.0
C      1  0.4723430000000  0.4394550000000  0.4380680000000 1.0
C      1  0.4708200000000  0.4267870000000  0.4633750000000 1.0
C      1  0.4435590000000  0.5478990000000  0.5544710000000 1.0
C      1  0.5545310000000  0.5585420000000  0.4944490000000 1.0
C      1  0.5400950000000  0.5044080000000  0.4259950000000 1.0
C      1  0.4568670000000  0.4656290000000  0.4370000000000 1.0
C      1  0.4787740000000  0.4725510000000  0.5752460000000 1.0
C      1  0.4617980000000  0.4796900000000  0.4632550000000 1.0
C      1  0.5745870000000  0.4867340000000  0.4718490000000 1.0
C      1  0.4952980000000  0.4114910000000  0.5046350000000 1.0
C      1  0.5215700000000  0.4326320000000  0.4725890000000 1.0
C      1  0.5188180000000  0.5223250000000  0.4962770000000 1.0
C      1  0.4255680000000  0.4784840000000  0.5594800000000 1.0
C      1  0.4804380000000  0.4529170000000  0.5535900000000 1.0
C      1  0.5676390000000  0.4652420000000  0.5609670000000 1.0
C      1  0.5020730000000  0.4882420000000  0.5838310000000 1.0
C      1  0.5305850000000  0.5420110000000  0.4523600000000 1.0
C      1  0.5133250000000  0.5118140000000  0.4120060000000 1.0
C      1  0.4544300000000  0.5081300000000  0.4593040000000 1.0
C      1  0.4613150000000  0.5686250000000  0.5033990000000 1.0
C      1  0.4987280000000  0.4529890000000  0.4832250000000 1.0
C      1  0.5090960000000  0.5691610000000  0.5134500000000 1.0
C      1  0.4652700000000  0.4961490000000  0.5342180000000 1.0
C      1  0.4434660000000  0.5442370000000  0.5059260000000 1.0
C      1  0.5342550000000  0.4761270000000  0.5037340000000 1.0
C      1  0.5069290000000  0.4709710000000  0.4370790000000 1.0
C      1  0.5414230000000  0.5703720000000  0.5191670000000 1.0
C      1  0.5348430000000  0.5032830000000  0.5149530000000 1.0
C      1  0.5849880000000  0.4795210000000  0.5467090000000 1.0
C      1  0.5398300000000  0.5188100000000  0.5683040000000 1.0
C      1  0.5168510000000  0.4248800000000  0.4452110000000 1.0
C      1  0.4809670000000  0.5625810000000  0.4347240000000 1.0
C      1  0.4428320000000  0.4752910000000  0.5369230000000 1.0
C      1  0.4473720000000  0.4710420000000  0.4891160000000 1.0
C      1  0.5135040000000  0.5339670000000  0.5708460000000 1.0
C      1  0.5046400000000  0.5773510000000  0.4457280000000 1.0
C      1  0.4866620000000  0.5319390000000  0.4290730000000 1.0
C      1  0.5044360000000  0.5394640000000  0.5164430000000 1.0
C      1  0.4306760000000  0.5148720000000  0.4751100000000 1.0
END
