TITL C-950521-2237-190 -1.93890245940996e-07 125000 -863.586873222814 0 0 137 (C1) n - 1
REM
REM in /home/bkarasulu/work/CARBON/AIRSS/Generating-Clusters/EDIP-Nigel-Params/with-SteepDescent/Only-C1/SD-CG/HFTN-CG
REM
REM
REM
REM
REM
REM ./C.cell (11c1c37f851c82e70ff6c80c92926a4b)
REM
REM compiler GCC version 9.2.1 20190827 (Red Hat 9.2.1-1)
REM options -cpp -mtune=generic -march=x86-64 -g -O0 -fpre-include=/usr/include/finclude/math-vector-fortran.h
REM seed -1213919188 -709895447 -2143863984 -2030197268 -1778335990 54999738 890078250 1824103161 -1287104218 -2071465565 1267432313 633701251 -1457607764 -523535617 1359063463 1492999026 -1134838730 574293974 -1400952656 -236426756 1750446599 -1639689262 -1154859741 -356490488 2142854755 949541975 1429795649 -578129379 -1328586191 2083390280 -1315482636 -370115199 -1452007476
REM
CELL 1.54180   50.00000   50.00000   50.00000   90.00000   90.00000   90.00000
LATT -1
SFAC C  
C      1  0.5359880000000  0.5185670000000  0.5457660000000 1.0
C      1  0.4178800000000  0.4560370000000  0.5111380000000 1.0
C      1  0.5491860000000  0.4937740000000  0.5335210000000 1.0
C      1  0.5729780000000  0.4338480000000  0.4766580000000 1.0
C      1  0.5233820000000  0.5815900000000  0.4927430000000 1.0
C      1  0.4204290000000  0.5557900000000  0.5301190000000 1.0
C      1  0.4846760000000  0.4212170000000  0.4871350000000 1.0
C      1  0.5353370000000  0.4758070000000  0.4671960000000 1.0
C      1  0.5712680000000  0.5126870000000  0.4348140000000 1.0
C      1  0.4679710000000  0.4806310000000  0.4629330000000 1.0
C      1  0.4878680000000  0.5852710000000  0.5376940000000 1.0
C      1  0.4945450000000  0.4488730000000  0.4783130000000 1.0
C      1  0.5431850000000  0.5054110000000  0.5872550000000 1.0
C      1  0.4942080000000  0.4381300000000  0.5763410000000 1.0
C      1  0.5964160000000  0.5024800000000  0.5325310000000 1.0
C      1  0.5621610000000  0.4833620000000  0.4808380000000 1.0
C      1  0.5676960000000  0.4595620000000  0.5638220000000 1.0
C      1  0.5414970000000  0.4568630000000  0.5784010000000 1.0
C      1  0.4100890000000  0.4807210000000  0.5270380000000 1.0
C      1  0.4991300000000  0.5281870000000  0.5934920000000 1.0
C      1  0.5397020000000  0.5760240000000  0.4668670000000 1.0
C      1  0.4882780000000  0.5010370000000  0.4615800000000 1.0
C      1  0.4724150000000  0.5742000000000  0.4421850000000 1.0
C      1  0.4913930000000  0.4534080000000  0.5996340000000 1.0
C      1  0.4479020000000  0.4983990000000  0.5038650000000 1.0
C      1  0.4274980000000  0.4823400000000  0.4200200000000 1.0
C      1  0.4909780000000  0.4155310000000  0.4370180000000 1.0
C      1  0.4930890000000  0.5493110000000  0.4786220000000 1.0
C      1  0.4131570000000  0.5514170000000  0.5010520000000 1.0
C      1  0.5957170000000  0.5196130000000  0.4807770000000 1.0
C      1  0.5118660000000  0.5429620000000  0.4584740000000 1.0
C      1  0.5473820000000  0.4208740000000  0.4784180000000 1.0
C      1  0.4711350000000  0.4132760000000  0.4606240000000 1.0
C      1  0.4529630000000  0.5945950000000  0.5095670000000 1.0
C      1  0.4631870000000  0.5685250000000  0.5789780000000 1.0
C      1  0.5594390000000  0.5386170000000  0.4384310000000 1.0
C      1  0.4267340000000  0.5275550000000  0.5388770000000 1.0
C      1  0.4754340000000  0.5244940000000  0.4760960000000 1.0
C      1  0.4564030000000  0.4255680000000  0.5135900000000 1.0
C      1  0.5830090000000  0.5011330000000  0.4601400000000 1.0
C      1  0.4709300000000  0.4766220000000  0.3999540000000 1.0
C      1  0.5447760000000  0.5489120000000  0.5685190000000 1.0
C      1  0.4333820000000  0.4681010000000  0.5707120000000 1.0
C      1  0.4481700000000  0.5363410000000  0.4661820000000 1.0
C      1  0.5957610000000  0.4728960000000  0.4606210000000 1.0
C      1  0.4043720000000  0.4647740000000  0.4617820000000 1.0
C      1  0.4033380000000  0.5231650000000  0.4987710000000 1.0
C      1  0.4945290000000  0.4905020000000  0.5588420000000 1.0
C      1  0.4507370000000  0.4886320000000  0.5827740000000 1.0
C      1  0.4774600000000  0.4559920000000  0.4534590000000 1.0
C      1  0.5193960000000  0.4230820000000  0.4402600000000 1.0
C      1  0.4599680000000  0.5294110000000  0.4213400000000 1.0
C      1  0.5170280000000  0.5246590000000  0.4108940000000 1.0
C      1  0.4090830000000  0.4678090000000  0.4348340000000 1.0
C      1  0.5332390000000  0.4248030000000  0.5041670000000 1.0
C      1  0.5173190000000  0.4670100000000  0.4136120000000 1.0
C      1  0.5075980000000  0.4710880000000  0.5137360000000 1.0
C      1  0.5274340000000  0.5141630000000  0.4963020000000 1.0
C      1  0.4270750000000  0.4537340000000  0.4780490000000 1.0
C      1  0.4986590000000  0.4243260000000  0.5318230000000 1.0
C      1  0.5731730000000  0.5350790000000  0.5629110000000 1.0
C      1  0.5037960000000  0.5025240000000  0.5122200000000 1.0
C      1  0.5566000000000  0.4957270000000  0.4165490000000 1.0
C      1  0.4672380000000  0.4556650000000  0.5058980000000 1.0
C      1  0.4426460000000  0.5778740000000  0.5328570000000 1.0
C      1  0.5868920000000  0.5307410000000  0.5356990000000 1.0
C      1  0.5730110000000  0.4881490000000  0.5506550000000 1.0
C      1  0.4787240000000  0.5769030000000  0.4721830000000 1.0
C      1  0.5763090000000  0.4511920000000  0.4536870000000 1.0
C      1  0.5486870000000  0.5738010000000  0.5317180000000 1.0
C      1  0.5570590000000  0.5502050000000  0.4661690000000 1.0
C      1  0.4509440000000  0.4739520000000  0.4871360000000 1.0
C      1  0.5670740000000  0.5323540000000  0.5124660000000 1.0
C      1  0.4890940000000  0.5569130000000  0.5251070000000 1.0
C      1  0.5370890000000  0.5769540000000  0.5576200000000 1.0
C      1  0.5238710000000  0.4481230000000  0.4689480000000 1.0
C      1  0.4288360000000  0.5156160000000  0.4576510000000 1.0
C      1  0.4952560000000  0.5391000000000  0.5467390000000 1.0
C      1  0.4728200000000  0.4149520000000  0.5373910000000 1.0
C      1  0.4519310000000  0.4374550000000  0.4530610000000 1.0
C      1  0.4322530000000  0.4372110000000  0.5283420000000 1.0
C      1  0.4219330000000  0.5068060000000  0.5169810000000 1.0
C      1  0.4822610000000  0.6033250000000  0.5128060000000 1.0
C      1  0.5858620000000  0.4386090000000  0.5244750000000 1.0
C      1  0.4486620000000  0.4500840000000  0.5514310000000 1.0
C      1  0.4892700000000  0.5382490000000  0.4144210000000 1.0
C      1  0.4627930000000  0.4986480000000  0.5581270000000 1.0
C      1  0.5978130000000  0.4978900000000  0.5028080000000 1.0
C      1  0.5315770000000  0.4543440000000  0.5114110000000 1.0
C      1  0.4872080000000  0.5468020000000  0.5739180000000 1.0
C      1  0.4623300000000  0.5416000000000  0.5172710000000 1.0
C      1  0.6010580000000  0.4704770000000  0.4907210000000 1.0
C      1  0.4380380000000  0.5082020000000  0.4304550000000 1.0
C      1  0.5194390000000  0.4972850000000  0.4530910000000 1.0
C      1  0.4887890000000  0.4611140000000  0.4165060000000 1.0
C      1  0.4853930000000  0.5010870000000  0.5953030000000 1.0
C      1  0.5265020000000  0.4959980000000  0.4214920000000 1.0
C      1  0.4679930000000  0.4288350000000  0.5633200000000 1.0
C      1  0.4962310000000  0.4613210000000  0.5392480000000 1.0
C      1  0.5620930000000  0.4499660000000  0.4276690000000 1.0
C      1  0.5415770000000  0.5452650000000  0.5244230000000 1.0
C      1  0.4495130000000  0.4376100000000  0.4213920000000 1.0
C      1  0.5064590000000  0.4123430000000  0.5063390000000 1.0
C      1  0.4423550000000  0.5527920000000  0.4917740000000 1.0
C      1  0.4517890000000  0.5794100000000  0.4851760000000 1.0
C      1  0.5824430000000  0.4496600000000  0.4993980000000 1.0
C      1  0.5114820000000  0.5541800000000  0.5039430000000 1.0
C      1  0.5365750000000  0.5461750000000  0.4213880000000 1.0
C      1  0.5070090000000  0.5127600000000  0.5415240000000 1.0
C      1  0.5690350000000  0.4712660000000  0.4110320000000 1.0
C      1  0.5032540000000  0.4787010000000  0.6000950000000 1.0
C      1  0.5784620000000  0.5434130000000  0.4869100000000 1.0
C      1  0.5211140000000  0.5643200000000  0.4400180000000 1.0
C      1  0.4667420000000  0.4679010000000  0.5345260000000 1.0
C      1  0.4031890000000  0.5122980000000  0.4715700000000 1.0
C      1  0.4947000000000  0.5663000000000  0.4246850000000 1.0
C      1  0.5328330000000  0.4448890000000  0.4259630000000 1.0
C      1  0.4973230000000  0.5967750000000  0.4872230000000 1.0
C      1  0.4458060000000  0.4644300000000  0.4065740000000 1.0
C      1  0.5305590000000  0.5221260000000  0.4669980000000 1.0
C      1  0.5690660000000  0.5076290000000  0.5732260000000 1.0
C      1  0.5694630000000  0.4361840000000  0.5465950000000 1.0
C      1  0.4529840000000  0.5516250000000  0.4404570000000 1.0
C      1  0.5285360000000  0.5301690000000  0.5874630000000 1.0
C      1  0.4619610000000  0.5856230000000  0.5546770000000 1.0
C      1  0.5407370000000  0.4320440000000  0.5415850000000 1.0
C      1  0.5117790000000  0.5889040000000  0.5539210000000 1.0
C      1  0.5280920000000  0.4810540000000  0.5859620000000 1.0
C      1  0.4122120000000  0.4777460000000  0.5549880000000 1.0
C      1  0.4719130000000  0.5155790000000  0.5040450000000 1.0
C      1  0.5398800000000  0.5932170000000  0.5133940000000 1.0
C      1  0.4488790000000  0.5434270000000  0.5763260000000 1.0
C      1  0.4787540000000  0.4324380000000  0.4159680000000 1.0
C      1  0.4530200000000  0.5275070000000  0.5519160000000 1.0
C      1  0.5229820000000  0.4380850000000  0.5655890000000 1.0
C      1  0.5538930000000  0.5042170000000  0.5057410000000 1.0
C      1  0.3912590000000  0.4870970000000  0.4715360000000 1.0
END
