TITL C-951345-2650-345 -2.18236693709893e-06 125000 -362.848183013184 0 0 60 (C1) n - 1
REM
REM in /home/bkarasulu/work/CARBON/AIRSS/Generating-Clusters/EDIP-Nigel-Params/with-SteepDescent/Only-C1/SD-CG/HFTN-CG
REM
REM
REM
REM
REM
REM ./C.cell (11c1c37f851c82e70ff6c80c92926a4b)
REM
REM compiler GCC version 9.2.1 20190827 (Red Hat 9.2.1-1)
REM options -cpp -mtune=generic -march=x86-64 -g -O0 -fpre-include=/usr/include/finclude/math-vector-fortran.h
REM seed 1963787427 1521086578 112289513 706887666 1140549181 1106633565 -2044970337 -524759776 1805369790 -1350986360 -2144791644 183814527 -442733328 -712901066 -773569244 367653238 808861144 1689433407 -628466222 1616515695 548348507 -1471011513 -1422693384 -1838874661 2133410766 -770768675 168626941 -312812248 1387276112 -850073509 -1316452332 1413887707 -1319496004
REM
CELL 1.54180   50.00000   50.00000   50.00000   90.00000   90.00000   90.00000
LATT -1
SFAC C  
C      1  0.5635820000000  0.5532190000000  0.5174350000000 1.0
C      1  0.5078910000000  0.4728590000000  0.4455390000000 1.0
C      1  0.5134520000000  0.4806680000000  0.5534830000000 1.0
C      1  0.5458360000000  0.4542260000000  0.4887530000000 1.0
C      1  0.5191080000000  0.5326510000000  0.5169260000000 1.0
C      1  0.4467740000000  0.4556490000000  0.4971860000000 1.0
C      1  0.4789270000000  0.5271690000000  0.4474290000000 1.0
C      1  0.4592380000000  0.4846110000000  0.4321020000000 1.0
C      1  0.4778740000000  0.5048820000000  0.4269190000000 1.0
C      1  0.5482060000000  0.5008080000000  0.4629720000000 1.0
C      1  0.4450540000000  0.5530600000000  0.4791730000000 1.0
C      1  0.5061420000000  0.4930140000000  0.4705560000000 1.0
C      1  0.4747960000000  0.5560650000000  0.5223460000000 1.0
C      1  0.5625030000000  0.4879520000000  0.5492800000000 1.0
C      1  0.5548730000000  0.5423270000000  0.4930360000000 1.0
C      1  0.4633550000000  0.5353200000000  0.5403920000000 1.0
C      1  0.5406960000000  0.5573780000000  0.4747970000000 1.0
C      1  0.5292460000000  0.4287300000000  0.4881600000000 1.0
C      1  0.4286140000000  0.4894540000000  0.4931320000000 1.0
C      1  0.4855110000000  0.5149270000000  0.4745830000000 1.0
C      1  0.5246140000000  0.5139080000000  0.4426490000000 1.0
C      1  0.4254800000000  0.5368080000000  0.4918910000000 1.0
C      1  0.4524490000000  0.4659110000000  0.4500860000000 1.0
C      1  0.4855070000000  0.5237280000000  0.5557470000000 1.0
C      1  0.5243390000000  0.4611900000000  0.5337740000000 1.0
C      1  0.5383530000000  0.5563210000000  0.5617620000000 1.0
C      1  0.4970080000000  0.5412760000000  0.4871730000000 1.0
C      1  0.5076420000000  0.5402520000000  0.4439600000000 1.0
C      1  0.5597460000000  0.5452890000000  0.5442110000000 1.0
C      1  0.4536220000000  0.4680250000000  0.5227920000000 1.0
C      1  0.4666750000000  0.5635040000000  0.4951180000000 1.0
C      1  0.5138040000000  0.4875450000000  0.4984720000000 1.0
C      1  0.5000840000000  0.5086430000000  0.5129840000000 1.0
C      1  0.4300490000000  0.5196730000000  0.4541300000000 1.0
C      1  0.5380910000000  0.5235800000000  0.5412120000000 1.0
C      1  0.5100360000000  0.5526750000000  0.5560770000000 1.0
C      1  0.5485230000000  0.4700600000000  0.4627580000000 1.0
C      1  0.5587060000000  0.4898140000000  0.5213810000000 1.0
C      1  0.5770250000000  0.5008840000000  0.5036060000000 1.0
C      1  0.5140410000000  0.5560220000000  0.4675060000000 1.0
C      1  0.5216540000000  0.4188660000000  0.5135620000000 1.0
C      1  0.4957310000000  0.4615360000000  0.5706650000000 1.0
C      1  0.4187410000000  0.5125690000000  0.4792290000000 1.0
C      1  0.4814030000000  0.4338700000000  0.4701320000000 1.0
C      1  0.5058560000000  0.4947030000000  0.4262510000000 1.0
C      1  0.4371460000000  0.4919470000000  0.5205820000000 1.0
C      1  0.5322350000000  0.4585680000000  0.4425900000000 1.0
C      1  0.5111120000000  0.4365860000000  0.5323560000000 1.0
C      1  0.5617430000000  0.5153070000000  0.4851780000000 1.0
C      1  0.5381710000000  0.4980540000000  0.5597050000000 1.0
C      1  0.4940100000000  0.5001310000000  0.5408470000000 1.0
C      1  0.4616160000000  0.4529780000000  0.4727800000000 1.0
C      1  0.4594420000000  0.4540450000000  0.5475970000000 1.0
C      1  0.5367550000000  0.4731160000000  0.5103850000000 1.0
C      1  0.4443340000000  0.5168920000000  0.5308350000000 1.0
C      1  0.5039010000000  0.5572570000000  0.5279730000000 1.0
C      1  0.4923620000000  0.4364320000000  0.5542550000000 1.0
C      1  0.5077260000000  0.4284780000000  0.4702260000000 1.0
C      1  0.4678730000000  0.4687620000000  0.5707710000000 1.0
C      1  0.4507210000000  0.5398260000000  0.4525910000000 1.0
END
