TITL C-951347-9520-9 -1.54168180872596e-06 125000 -1052.5882578633 0 0 171 (C1) n - 1
REM
REM in /home/bkarasulu/work/CARBON/AIRSS/Generating-Clusters/EDIP-Nigel-Params/with-SteepDescent/Only-C1/SD-CG/HFTN-CG
REM
REM
REM
REM
REM
REM ./C.cell (11c1c37f851c82e70ff6c80c92926a4b)
REM
REM compiler GCC version 9.2.1 20190827 (Red Hat 9.2.1-1)
REM options -cpp -mtune=generic -march=x86-64 -g -O0 -fpre-include=/usr/include/finclude/math-vector-fortran.h
REM seed 976459827 -856545586 1809317120 -188476867 755826582 1624840152 32916012 -1785022307 -388093908 762328289 -2015291084 1317654205 1577346100 1390810315 28990861 -1836553024 -290042250 -169070302 -1142114384 -1811689676 -516245116 631382867 1597732358 1111580042 321051703 -311129007 1259422806 -1332169294 1762955321 -909334197 -89774423 1966654449 1350629225
REM
CELL 1.54180   50.00000   50.00000   50.00000   90.00000   90.00000   90.00000
LATT -1
SFAC C  
C      1  0.4127060000000  0.4228010000000  0.4896090000000 1.0
C      1  0.4296650000000  0.5868290000000  0.5242030000000 1.0
C      1  0.4611470000000  0.4241720000000  0.4596870000000 1.0
C      1  0.4786230000000  0.5424190000000  0.5315790000000 1.0
C      1  0.5401610000000  0.5540290000000  0.5645250000000 1.0
C      1  0.3918390000000  0.5086520000000  0.4576920000000 1.0
C      1  0.4451800000000  0.4583970000000  0.4276270000000 1.0
C      1  0.5467630000000  0.5138040000000  0.6044600000000 1.0
C      1  0.5393520000000  0.5024560000000  0.3953210000000 1.0
C      1  0.5498080000000  0.4911300000000  0.5030160000000 1.0
C      1  0.5731140000000  0.5309930000000  0.5102730000000 1.0
C      1  0.4168310000000  0.4561010000000  0.5077110000000 1.0
C      1  0.5518670000000  0.4613760000000  0.5082810000000 1.0
C      1  0.5469860000000  0.6024480000000  0.5111280000000 1.0
C      1  0.4922590000000  0.4302240000000  0.4287160000000 1.0
C      1  0.5218620000000  0.4365950000000  0.5619620000000 1.0
C      1  0.4721170000000  0.5351780000000  0.3922760000000 1.0
C      1  0.4925450000000  0.5494140000000  0.5921200000000 1.0
C      1  0.4739390000000  0.5810860000000  0.5323810000000 1.0
C      1  0.5613920000000  0.5654990000000  0.4853790000000 1.0
C      1  0.5197090000000  0.5346870000000  0.4953090000000 1.0
C      1  0.5864020000000  0.4631940000000  0.4430720000000 1.0
C      1  0.5192070000000  0.5195920000000  0.3902680000000 1.0
C      1  0.3956920000000  0.5031300000000  0.4870210000000 1.0
C      1  0.5519940000000  0.4261340000000  0.5570350000000 1.0
C      1  0.4384050000000  0.4364680000000  0.4456250000000 1.0
C      1  0.5004150000000  0.5370520000000  0.4015850000000 1.0
C      1  0.5016060000000  0.5335460000000  0.5682790000000 1.0
C      1  0.5124520000000  0.6000150000000  0.5615980000000 1.0
C      1  0.5851590000000  0.5514360000000  0.5474790000000 1.0
C      1  0.5197600000000  0.4914660000000  0.5019920000000 1.0
C      1  0.4297350000000  0.4862610000000  0.4292800000000 1.0
C      1  0.5551660000000  0.4537510000000  0.4787530000000 1.0
C      1  0.5221610000000  0.4963750000000  0.4527950000000 1.0
C      1  0.5006040000000  0.5930200000000  0.5367780000000 1.0
C      1  0.4951370000000  0.4503630000000  0.5087670000000 1.0
C      1  0.5815620000000  0.5279470000000  0.5651790000000 1.0
C      1  0.5959990000000  0.5418560000000  0.5232670000000 1.0
C      1  0.5557350000000  0.5494760000000  0.4606200000000 1.0
C      1  0.5359890000000  0.4266740000000  0.4506260000000 1.0
C      1  0.4382060000000  0.5256690000000  0.4926810000000 1.0
C      1  0.5020690000000  0.4460850000000  0.4795890000000 1.0
C      1  0.5027090000000  0.3982950000000  0.4721570000000 1.0
C      1  0.4882030000000  0.4775270000000  0.4086970000000 1.0
C      1  0.4317630000000  0.5275790000000  0.5678260000000 1.0
C      1  0.5491000000000  0.5675380000000  0.4380350000000 1.0
C      1  0.5791080000000  0.5314760000000  0.4505870000000 1.0
C      1  0.5333840000000  0.5201940000000  0.5360660000000 1.0
C      1  0.4516500000000  0.3964450000000  0.5165980000000 1.0
C      1  0.4153420000000  0.5172510000000  0.5345620000000 1.0
C      1  0.4737580000000  0.5263170000000  0.6019240000000 1.0
C      1  0.4194780000000  0.5776300000000  0.4695460000000 1.0
C      1  0.5481560000000  0.5905570000000  0.4838970000000 1.0
C      1  0.4564250000000  0.6071670000000  0.4892200000000 1.0
C      1  0.5587630000000  0.4728990000000  0.4312920000000 1.0
C      1  0.4667010000000  0.5879800000000  0.4697070000000 1.0
C      1  0.4443920000000  0.4529290000000  0.4953460000000 1.0
C      1  0.5213380000000  0.5824730000000  0.4691380000000 1.0
C      1  0.5997490000000  0.4895850000000  0.5137410000000 1.0
C      1  0.4559910000000  0.5706420000000  0.4260780000000 1.0
C      1  0.4261880000000  0.5318230000000  0.4064910000000 1.0
C      1  0.3992280000000  0.4737390000000  0.4900070000000 1.0
C      1  0.5224910000000  0.5252430000000  0.6175090000000 1.0
C      1  0.5167660000000  0.4743710000000  0.5953580000000 1.0
C      1  0.5181990000000  0.5787010000000  0.5192630000000 1.0
C      1  0.4598980000000  0.4208950000000  0.5327880000000 1.0
C      1  0.4692460000000  0.4407710000000  0.5758050000000 1.0
C      1  0.5082870000000  0.3840320000000  0.5228070000000 1.0
C      1  0.5192030000000  0.4229650000000  0.4753360000000 1.0
C      1  0.5239170000000  0.4514850000000  0.5199530000000 1.0
C      1  0.5799940000000  0.4767540000000  0.5592010000000 1.0
C      1  0.4723190000000  0.4532600000000  0.4163020000000 1.0
C      1  0.5053340000000  0.5836390000000  0.4936020000000 1.0
C      1  0.4861570000000  0.5981170000000  0.4476190000000 1.0
C      1  0.5045730000000  0.3851090000000  0.5508160000000 1.0
C      1  0.4449580000000  0.5742710000000  0.4543540000000 1.0
C      1  0.4773690000000  0.5749710000000  0.5839970000000 1.0
C      1  0.5403190000000  0.6035810000000  0.5592270000000 1.0
C      1  0.4991390000000  0.4863000000000  0.5458630000000 1.0
C      1  0.5599560000000  0.5095520000000  0.5247700000000 1.0
C      1  0.4039450000000  0.5385200000000  0.4219320000000 1.0
C      1  0.5252650000000  0.4460660000000  0.5913840000000 1.0
C      1  0.4308980000000  0.4917530000000  0.5293020000000 1.0
C      1  0.5994110000000  0.4873710000000  0.4476490000000 1.0
C      1  0.5391340000000  0.4924780000000  0.5856140000000 1.0
C      1  0.5549400000000  0.3994890000000  0.5391070000000 1.0
C      1  0.4611640000000  0.5721010000000  0.5583110000000 1.0
C      1  0.5193800000000  0.4623780000000  0.5466180000000 1.0
C      1  0.4815100000000  0.5348850000000  0.4582420000000 1.0
C      1  0.4259630000000  0.4753990000000  0.5705440000000 1.0
C      1  0.5999590000000  0.4686850000000  0.4919030000000 1.0
C      1  0.5193070000000  0.5539900000000  0.6093970000000 1.0
C      1  0.4798960000000  0.4849020000000  0.4690820000000 1.0
C      1  0.4583740000000  0.5148150000000  0.5760320000000 1.0
C      1  0.4207170000000  0.4686780000000  0.5434230000000 1.0
C      1  0.5631630000000  0.5352210000000  0.5908050000000 1.0
C      1  0.4011120000000  0.5345170000000  0.4490840000000 1.0
C      1  0.4608720000000  0.4622900000000  0.5592270000000 1.0
C      1  0.4523720000000  0.4852300000000  0.5788540000000 1.0
C      1  0.5517070000000  0.3816370000000  0.4807920000000 1.0
C      1  0.4655140000000  0.5261450000000  0.5072360000000 1.0
C      1  0.5620530000000  0.4737690000000  0.5813000000000 1.0
C      1  0.4995590000000  0.4136090000000  0.5542550000000 1.0
C      1  0.5871890000000  0.5063010000000  0.4660120000000 1.0
C      1  0.5701790000000  0.4408270000000  0.5353670000000 1.0
C      1  0.5300570000000  0.5243590000000  0.5651610000000 1.0
C      1  0.5665020000000  0.4156300000000  0.4923950000000 1.0
C      1  0.5099760000000  0.5486240000000  0.5235930000000 1.0
C      1  0.4419670000000  0.5036450000000  0.4504280000000 1.0
C      1  0.5332790000000  0.4575570000000  0.4188160000000 1.0
C      1  0.4833840000000  0.4081590000000  0.4489860000000 1.0
C      1  0.4205340000000  0.5725080000000  0.5001790000000 1.0
C      1  0.5833290000000  0.5021870000000  0.5448980000000 1.0
C      1  0.5295310000000  0.5323090000000  0.4642680000000 1.0
C      1  0.5096190000000  0.4722890000000  0.4325370000000 1.0
C      1  0.4768520000000  0.4718910000000  0.5326810000000 1.0
C      1  0.4968570000000  0.5097840000000  0.6133310000000 1.0
C      1  0.5580240000000  0.5632300000000  0.5400360000000 1.0
C      1  0.4955270000000  0.5966000000000  0.5834180000000 1.0
C      1  0.4553720000000  0.4243770000000  0.4887690000000 1.0
C      1  0.4104660000000  0.5258780000000  0.5049500000000 1.0
C      1  0.4635050000000  0.5047930000000  0.3949980000000 1.0
C      1  0.4328230000000  0.4017080000000  0.4933880000000 1.0
C      1  0.5765120000000  0.4142930000000  0.5216450000000 1.0
C      1  0.5922350000000  0.4539230000000  0.5485320000000 1.0
C      1  0.4881080000000  0.3951340000000  0.5022140000000 1.0
C      1  0.5127490000000  0.6048730000000  0.4533200000000 1.0
C      1  0.4798900000000  0.5030070000000  0.4212640000000 1.0
C      1  0.4554370000000  0.4805310000000  0.4897460000000 1.0
C      1  0.4508920000000  0.5474690000000  0.4086470000000 1.0
C      1  0.4334690000000  0.4990880000000  0.4782700000000 1.0
C      1  0.5087170000000  0.5507890000000  0.4511210000000 1.0
C      1  0.4336000000000  0.5030830000000  0.4032230000000 1.0
C      1  0.4544940000000  0.6005960000000  0.5172190000000 1.0
C      1  0.5464850000000  0.4788070000000  0.4587310000000 1.0
C      1  0.5446560000000  0.5619850000000  0.5937520000000 1.0
C      1  0.4176510000000  0.5492770000000  0.5559230000000 1.0
C      1  0.5604150000000  0.4976280000000  0.4753830000000 1.0
C      1  0.4842770000000  0.5800440000000  0.4245570000000 1.0
C      1  0.4709900000000  0.5070080000000  0.4492630000000 1.0
C      1  0.5650060000000  0.4202850000000  0.4540030000000 1.0
C      1  0.4808400000000  0.5189530000000  0.5543480000000 1.0
C      1  0.5843260000000  0.4498740000000  0.4712210000000 1.0
C      1  0.4593890000000  0.4921730000000  0.5170900000000 1.0
C      1  0.5101130000000  0.5586850000000  0.4204490000000 1.0
C      1  0.4804600000000  0.5698790000000  0.4903760000000 1.0
C      1  0.4975370000000  0.4816680000000  0.6145410000000 1.0
C      1  0.4855540000000  0.5402910000000  0.4874410000000 1.0
C      1  0.3959820000000  0.5572920000000  0.4667770000000 1.0
C      1  0.5552130000000  0.5929790000000  0.5375930000000 1.0
C      1  0.5516060000000  0.5508850000000  0.5095680000000 1.0
C      1  0.5055430000000  0.4974210000000  0.4773790000000 1.0
C      1  0.5550700000000  0.4469720000000  0.5893860000000 1.0
C      1  0.5657470000000  0.5267470000000  0.4237560000000 1.0
C      1  0.5108080000000  0.5043610000000  0.5256630000000 1.0
C      1  0.4321520000000  0.5735150000000  0.5513950000000 1.0
C      1  0.5367420000000  0.4205440000000  0.5001730000000 1.0
C      1  0.3982050000000  0.5527570000000  0.4990820000000 1.0
C      1  0.3981640000000  0.4626070000000  0.4629640000000 1.0
C      1  0.4709630000000  0.4189390000000  0.5597240000000 1.0
C      1  0.4155900000000  0.4391410000000  0.4644490000000 1.0
C      1  0.5616980000000  0.3909840000000  0.4563190000000 1.0
C      1  0.5588650000000  0.4994740000000  0.4150160000000 1.0
C      1  0.5267240000000  0.3792310000000  0.4660920000000 1.0
C      1  0.4868590000000  0.4225200000000  0.5186390000000 1.0
C      1  0.5339920000000  0.3968930000000  0.5182050000000 1.0
C      1  0.5229710000000  0.4307210000000  0.4250220000000 1.0
C      1  0.4890600000000  0.4581760000000  0.4558630000000 1.0
C      1  0.6044180000000  0.5067110000000  0.4906170000000 1.0
C      1  0.4006650000000  0.4841580000000  0.4417800000000 1.0
C      1  0.5471090000000  0.5491760000000  0.4169310000000 1.0
END
