TITL C-950531-5884-109 -5.92282907946167e-07 125000 -419.134856899421 0 0 69 (C1) n - 1
REM
REM in /home/bkarasulu/work/CARBON/AIRSS/Generating-Clusters/EDIP-Nigel-Params/with-SteepDescent/Only-C1/SD-CG/HFTN-CG
REM
REM
REM
REM
REM
REM ./C.cell (11c1c37f851c82e70ff6c80c92926a4b)
REM
REM compiler GCC version 9.2.1 20190827 (Red Hat 9.2.1-1)
REM options -cpp -mtune=generic -march=x86-64 -g -O0 -fpre-include=/usr/include/finclude/math-vector-fortran.h
REM seed 886407031 830717555 1322694832 215636669 -804998240 -418897729 -1497107920 -2091839744 23296234 -249603972 -63939650 2032198845 1524603193 1868286518 -467218094 -691341739 1008378649 1448128368 1172873996 -875316633 -1871984913 -622586945 1897043355 967057543 -372117803 44832299 -1739702828 -1810389988 -1793914689 470613045 209935730 291291695 860109321
REM
CELL 1.54180   50.00000   50.00000   50.00000   90.00000   90.00000   90.00000
LATT -1
SFAC C  
C      1  0.5265730000000  0.5042380000000  0.4933890000000 1.0
C      1  0.4298100000000  0.5226620000000  0.5391190000000 1.0
C      1  0.4996290000000  0.5680320000000  0.4991170000000 1.0
C      1  0.4814870000000  0.5649030000000  0.4769930000000 1.0
C      1  0.4386350000000  0.5406280000000  0.5581760000000 1.0
C      1  0.5266600000000  0.5544150000000  0.5017190000000 1.0
C      1  0.4410510000000  0.4805580000000  0.4521460000000 1.0
C      1  0.4942690000000  0.5257050000000  0.5267070000000 1.0
C      1  0.5417510000000  0.4457590000000  0.5449100000000 1.0
C      1  0.5047810000000  0.5653700000000  0.5430200000000 1.0
C      1  0.5246980000000  0.5331650000000  0.4475500000000 1.0
C      1  0.4824160000000  0.4850690000000  0.5384450000000 1.0
C      1  0.4260650000000  0.4947050000000  0.5437290000000 1.0
C      1  0.5014020000000  0.4533750000000  0.5720690000000 1.0
C      1  0.5249000000000  0.4621230000000  0.4351490000000 1.0
C      1  0.5027690000000  0.4517800000000  0.4506500000000 1.0
C      1  0.4747110000000  0.4549260000000  0.5787410000000 1.0
C      1  0.5115650000000  0.4450460000000  0.5456880000000 1.0
C      1  0.5090060000000  0.4800320000000  0.4984890000000 1.0
C      1  0.4823810000000  0.4333440000000  0.5228430000000 1.0
C      1  0.5615120000000  0.5401530000000  0.5112570000000 1.0
C      1  0.5076200000000  0.4383220000000  0.4760690000000 1.0
C      1  0.4356650000000  0.5281020000000  0.5114970000000 1.0
C      1  0.5139770000000  0.5247400000000  0.4206930000000 1.0
C      1  0.4564260000000  0.5254810000000  0.4586510000000 1.0
C      1  0.4455320000000  0.4579420000000  0.5109820000000 1.0
C      1  0.4543200000000  0.4561290000000  0.4603840000000 1.0
C      1  0.5544960000000  0.4508010000000  0.4936210000000 1.0
C      1  0.5456080000000  0.4775280000000  0.4495750000000 1.0
C      1  0.5121940000000  0.5175540000000  0.4703560000000 1.0
C      1  0.5301650000000  0.5001280000000  0.4124670000000 1.0
C      1  0.5602280000000  0.4737580000000  0.4756740000000 1.0
C      1  0.5540590000000  0.5274760000000  0.4427900000000 1.0
C      1  0.5173720000000  0.4746950000000  0.4109760000000 1.0
C      1  0.5589710000000  0.4604160000000  0.5229400000000 1.0
C      1  0.4860670000000  0.5252000000000  0.4182670000000 1.0
C      1  0.4738950000000  0.4792840000000  0.5655940000000 1.0
C      1  0.4809850000000  0.4884270000000  0.4907500000000 1.0
C      1  0.5569260000000  0.4978360000000  0.4938220000000 1.0
C      1  0.5235230000000  0.5141280000000  0.5577570000000 1.0
C      1  0.5335200000000  0.4339900000000  0.4857060000000 1.0
C      1  0.5507120000000  0.4684910000000  0.5603060000000 1.0
C      1  0.5629970000000  0.5211020000000  0.5337290000000 1.0
C      1  0.4562670000000  0.5517760000000  0.4731390000000 1.0
C      1  0.4577640000000  0.4876330000000  0.4293100000000 1.0
C      1  0.5592730000000  0.4916600000000  0.5232860000000 1.0
C      1  0.5233720000000  0.5256590000000  0.5148920000000 1.0
C      1  0.4650000000000  0.4606010000000  0.4882160000000 1.0
C      1  0.5440130000000  0.5337830000000  0.5524930000000 1.0
C      1  0.5711310000000  0.5325600000000  0.4641760000000 1.0
C      1  0.4848930000000  0.4396070000000  0.4941990000000 1.0
C      1  0.4878840000000  0.5265370000000  0.4893920000000 1.0
C      1  0.5333150000000  0.4892330000000  0.5656610000000 1.0
C      1  0.5717290000000  0.5233410000000  0.4897480000000 1.0
C      1  0.5534980000000  0.4996310000000  0.4312530000000 1.0
C      1  0.4405740000000  0.5511850000000  0.4966130000000 1.0
C      1  0.4719100000000  0.5044150000000  0.5170510000000 1.0
C      1  0.4918850000000  0.5809210000000  0.5231120000000 1.0
C      1  0.4609910000000  0.5543750000000  0.5634900000000 1.0
C      1  0.4758710000000  0.4557510000000  0.4405710000000 1.0
C      1  0.4550490000000  0.4394010000000  0.5303430000000 1.0
C      1  0.4329120000000  0.4836510000000  0.5181200000000 1.0
C      1  0.4439220000000  0.5025840000000  0.4710980000000 1.0
C      1  0.5334440000000  0.5582940000000  0.5393600000000 1.0
C      1  0.4327080000000  0.5038530000000  0.4975860000000 1.0
C      1  0.5010520000000  0.4666930000000  0.5253020000000 1.0
C      1  0.4641540000000  0.5157620000000  0.4319720000000 1.0
C      1  0.4975600000000  0.5233660000000  0.5652030000000 1.0
C      1  0.4885000000000  0.5502150000000  0.5618990000000 1.0
END
