TITL C-950533-5798-119 -2.15965559045296e-06 125000 -1114.26934371941 0 0 176 (C1) n - 1
REM
REM in /home/bkarasulu/work/CARBON/AIRSS/Generating-Clusters/EDIP-Nigel-Params/with-SteepDescent/Only-C1/SD-CG/HFTN-CG
REM
REM
REM
REM
REM
REM ./C.cell (11c1c37f851c82e70ff6c80c92926a4b)
REM
REM compiler GCC version 9.2.1 20190827 (Red Hat 9.2.1-1)
REM options -cpp -mtune=generic -march=x86-64 -g -O0 -fpre-include=/usr/include/finclude/math-vector-fortran.h
REM seed 965140044 -1754488971 750458381 2017679638 -2044441912 1276818849 -241875655 -681338919 -260543051 -110332781 -676908367 -368408567 1323562070 -1883526214 53898066 -688294685 -628936713 1662682936 104943581 -1748100312 -930746452 94118934 -473987973 181519415 71716044 1754338930 -1487037387 786451173 1448247673 1097750467 -1405441193 -1690722321 2134187006
REM
CELL 1.54180   50.00000   50.00000   50.00000   90.00000   90.00000   90.00000
LATT -1
SFAC C  
C      1  0.5958540000000  0.5117390000000  0.4572840000000 1.0
C      1  0.4538650000000  0.5380130000000  0.4505100000000 1.0
C      1  0.4463410000000  0.5756780000000  0.4455770000000 1.0
C      1  0.5133460000000  0.5338940000000  0.4944820000000 1.0
C      1  0.4947380000000  0.4767630000000  0.5455590000000 1.0
C      1  0.4319210000000  0.5756560000000  0.5336340000000 1.0
C      1  0.4542180000000  0.5310650000000  0.5336500000000 1.0
C      1  0.4353060000000  0.5007180000000  0.5735470000000 1.0
C      1  0.4798960000000  0.5480090000000  0.5321830000000 1.0
C      1  0.5882010000000  0.5011860000000  0.5640530000000 1.0
C      1  0.4809700000000  0.5513040000000  0.4583900000000 1.0
C      1  0.4835050000000  0.3820780000000  0.5253470000000 1.0
C      1  0.5191810000000  0.5057830000000  0.4841220000000 1.0
C      1  0.5612400000000  0.5143380000000  0.5738880000000 1.0
C      1  0.6078220000000  0.5159900000000  0.4872240000000 1.0
C      1  0.4511530000000  0.4083530000000  0.4992660000000 1.0
C      1  0.6003680000000  0.5449580000000  0.4871590000000 1.0
C      1  0.4642090000000  0.5773750000000  0.4987750000000 1.0
C      1  0.5107170000000  0.5200200000000  0.5574600000000 1.0
C      1  0.4177530000000  0.4476680000000  0.4624080000000 1.0
C      1  0.5171520000000  0.4815490000000  0.5013380000000 1.0
C      1  0.4334890000000  0.4961030000000  0.4385630000000 1.0
C      1  0.4166420000000  0.5183170000000  0.4882440000000 1.0
C      1  0.4584400000000  0.4559770000000  0.5849560000000 1.0
C      1  0.4261980000000  0.4264050000000  0.5352160000000 1.0
C      1  0.4528350000000  0.4114090000000  0.4528560000000 1.0
C      1  0.5621280000000  0.5336890000000  0.4862180000000 1.0
C      1  0.5455820000000  0.4374550000000  0.5893410000000 1.0
C      1  0.6027320000000  0.4518100000000  0.4860800000000 1.0
C      1  0.5441740000000  0.4287000000000  0.4599900000000 1.0
C      1  0.4433860000000  0.5237550000000  0.5903890000000 1.0
C      1  0.4356800000000  0.5786890000000  0.5043380000000 1.0
C      1  0.5018030000000  0.5382870000000  0.4436190000000 1.0
C      1  0.5239340000000  0.4129000000000  0.4730430000000 1.0
C      1  0.4274770000000  0.4888840000000  0.4942480000000 1.0
C      1  0.4985830000000  0.6058880000000  0.4906180000000 1.0
C      1  0.5438720000000  0.5171060000000  0.4438530000000 1.0
C      1  0.5510010000000  0.5298070000000  0.5341010000000 1.0
C      1  0.5399280000000  0.5063200000000  0.5526170000000 1.0
C      1  0.4871650000000  0.4457860000000  0.5056810000000 1.0
C      1  0.3808480000000  0.4934400000000  0.4956370000000 1.0
C      1  0.4732220000000  0.4976190000000  0.5042190000000 1.0
C      1  0.5229890000000  0.5915210000000  0.4459010000000 1.0
C      1  0.4213710000000  0.5665510000000  0.4575890000000 1.0
C      1  0.4564640000000  0.5857330000000  0.5480080000000 1.0
C      1  0.5901410000000  0.4537350000000  0.5741020000000 1.0
C      1  0.4239440000000  0.4541400000000  0.5446090000000 1.0
C      1  0.5416420000000  0.4744200000000  0.5152140000000 1.0
C      1  0.4354410000000  0.4732420000000  0.5861190000000 1.0
C      1  0.4408580000000  0.4784640000000  0.4649780000000 1.0
C      1  0.4444890000000  0.4498470000000  0.4226440000000 1.0
C      1  0.4784020000000  0.4201600000000  0.4949880000000 1.0
C      1  0.4761560000000  0.4537340000000  0.5360120000000 1.0
C      1  0.4821270000000  0.4119380000000  0.4477760000000 1.0
C      1  0.4977560000000  0.3804090000000  0.4992370000000 1.0
C      1  0.5516690000000  0.5792660000000  0.4406160000000 1.0
C      1  0.5202790000000  0.4984140000000  0.4552030000000 1.0
C      1  0.4872060000000  0.4518250000000  0.4667670000000 1.0
C      1  0.4016090000000  0.4678590000000  0.5313390000000 1.0
C      1  0.5358440000000  0.4081770000000  0.4983660000000 1.0
C      1  0.3852530000000  0.5099610000000  0.5222930000000 1.0
C      1  0.4516370000000  0.5150360000000  0.3882320000000 1.0
C      1  0.5294960000000  0.5544710000000  0.5333550000000 1.0
C      1  0.5822490000000  0.4802360000000  0.4250890000000 1.0
C      1  0.5187520000000  0.3909790000000  0.5379020000000 1.0
C      1  0.4015720000000  0.5357330000000  0.5241690000000 1.0
C      1  0.5191350000000  0.4489080000000  0.4225030000000 1.0
C      1  0.4029430000000  0.4713280000000  0.5020080000000 1.0
C      1  0.4785550000000  0.4679690000000  0.6007410000000 1.0
C      1  0.4934150000000  0.5744840000000  0.4080790000000 1.0
C      1  0.4752980000000  0.4741380000000  0.4011670000000 1.0
C      1  0.4199210000000  0.5624170000000  0.4867980000000 1.0
C      1  0.4885150000000  0.4956090000000  0.5942850000000 1.0
C      1  0.6007080000000  0.4834820000000  0.4476450000000 1.0
C      1  0.5584880000000  0.5723640000000  0.5623100000000 1.0
C      1  0.4771620000000  0.5772850000000  0.5262270000000 1.0
C      1  0.5680050000000  0.5873330000000  0.5398340000000 1.0
C      1  0.4706370000000  0.5171310000000  0.4330080000000 1.0
C      1  0.4916410000000  0.4391720000000  0.4351330000000 1.0
C      1  0.5688450000000  0.4362120000000  0.5707380000000 1.0
C      1  0.5154830000000  0.4556280000000  0.4805470000000 1.0
C      1  0.4646780000000  0.5260920000000  0.4969070000000 1.0
C      1  0.5588400000000  0.5572470000000  0.4212090000000 1.0
C      1  0.5283250000000  0.5394250000000  0.6025780000000 1.0
C      1  0.5242350000000  0.4640780000000  0.5873860000000 1.0
C      1  0.3960550000000  0.5001810000000  0.4476110000000 1.0
C      1  0.5375760000000  0.5501550000000  0.4011560000000 1.0
C      1  0.5244720000000  0.4189880000000  0.5764780000000 1.0
C      1  0.5295170000000  0.5425470000000  0.4505920000000 1.0
C      1  0.4884940000000  0.4962450000000  0.4475640000000 1.0
C      1  0.5873170000000  0.4659870000000  0.4670920000000 1.0
C      1  0.5438190000000  0.4392170000000  0.4331760000000 1.0
C      1  0.4862640000000  0.4999800000000  0.5634680000000 1.0
C      1  0.5142530000000  0.5457570000000  0.5771670000000 1.0
C      1  0.4436200000000  0.5263860000000  0.4763300000000 1.0
C      1  0.5203020000000  0.4924900000000  0.5998050000000 1.0
C      1  0.5018760000000  0.5938170000000  0.5182640000000 1.0
C      1  0.5221230000000  0.5983760000000  0.4742010000000 1.0
C      1  0.3910200000000  0.5107450000000  0.4733920000000 1.0
C      1  0.4573410000000  0.5058070000000  0.5523720000000 1.0
C      1  0.5605900000000  0.4622920000000  0.4319840000000 1.0
C      1  0.4953210000000  0.5814530000000  0.4370230000000 1.0
C      1  0.4479700000000  0.4904830000000  0.5175510000000 1.0
C      1  0.4713060000000  0.4319010000000  0.5584860000000 1.0
C      1  0.5360630000000  0.4719580000000  0.4608340000000 1.0
C      1  0.4369180000000  0.5485500000000  0.5740610000000 1.0
C      1  0.4577770000000  0.5697010000000  0.5741280000000 1.0
C      1  0.4745060000000  0.5256960000000  0.4024480000000 1.0
C      1  0.3978070000000  0.5504610000000  0.4998540000000 1.0
C      1  0.4719190000000  0.4488280000000  0.4144060000000 1.0
C      1  0.5697790000000  0.4255220000000  0.4718420000000 1.0
C      1  0.5293770000000  0.5659290000000  0.5606570000000 1.0
C      1  0.4115040000000  0.4446380000000  0.4899180000000 1.0
C      1  0.5925170000000  0.5431560000000  0.5395580000000 1.0
C      1  0.5658770000000  0.5902420000000  0.4892430000000 1.0
C      1  0.4951270000000  0.4047450000000  0.4747890000000 1.0
C      1  0.5313840000000  0.4151560000000  0.5484830000000 1.0
C      1  0.4495800000000  0.4666760000000  0.5343450000000 1.0
C      1  0.5199620000000  0.4673790000000  0.5576840000000 1.0
C      1  0.4847560000000  0.5446030000000  0.6099560000000 1.0
C      1  0.4092170000000  0.5043100000000  0.5627880000000 1.0
C      1  0.4507510000000  0.4873370000000  0.3935420000000 1.0
C      1  0.4115350000000  0.5189440000000  0.4324880000000 1.0
C      1  0.5248350000000  0.3850380000000  0.5107240000000 1.0
C      1  0.4850650000000  0.5461580000000  0.4878260000000 1.0
C      1  0.5736630000000  0.5799940000000  0.4615930000000 1.0
C      1  0.5635380000000  0.4885050000000  0.5054040000000 1.0
C      1  0.5552240000000  0.4363150000000  0.5440980000000 1.0
C      1  0.5889970000000  0.5548810000000  0.4599240000000 1.0
C      1  0.5277330000000  0.5224410000000  0.3982690000000 1.0
C      1  0.4701770000000  0.5197310000000  0.6044630000000 1.0
C      1  0.5638160000000  0.4150330000000  0.4975410000000 1.0
C      1  0.6042990000000  0.5012330000000  0.5146340000000 1.0
C      1  0.5933760000000  0.4741970000000  0.5259110000000 1.0
C      1  0.4696910000000  0.5926560000000  0.4506970000000 1.0
C      1  0.3926560000000  0.4923290000000  0.5439010000000 1.0
C      1  0.5240560000000  0.4751660000000  0.4074810000000 1.0
C      1  0.5629960000000  0.4826660000000  0.4755430000000 1.0
C      1  0.4186770000000  0.4555040000000  0.5730030000000 1.0
C      1  0.5184270000000  0.5700690000000  0.3968270000000 1.0
C      1  0.4491850000000  0.4113060000000  0.5474350000000 1.0
C      1  0.5659000000000  0.5116800000000  0.4650740000000 1.0
C      1  0.5891980000000  0.5552500000000  0.5130190000000 1.0
C      1  0.4566400000000  0.3926300000000  0.5248070000000 1.0
C      1  0.5418110000000  0.5136050000000  0.5989720000000 1.0
C      1  0.5963770000000  0.4482110000000  0.5130090000000 1.0
C      1  0.5057430000000  0.5344680000000  0.5295590000000 1.0
C      1  0.5094800000000  0.5405020000000  0.6232110000000 1.0
C      1  0.5005020000000  0.4852650000000  0.3940720000000 1.0
C      1  0.4296950000000  0.4279190000000  0.5062930000000 1.0
C      1  0.5547690000000  0.5167050000000  0.5082310000000 1.0
C      1  0.5742390000000  0.4300900000000  0.5201770000000 1.0
C      1  0.4113980000000  0.5451240000000  0.4426010000000 1.0
C      1  0.4332290000000  0.4768610000000  0.4151390000000 1.0
C      1  0.4972930000000  0.4918070000000  0.5199900000000 1.0
C      1  0.6007260000000  0.5157850000000  0.5406040000000 1.0
C      1  0.4281730000000  0.5467470000000  0.5424670000000 1.0
C      1  0.4721480000000  0.5991460000000  0.4799760000000 1.0
C      1  0.5381830000000  0.5796620000000  0.4897390000000 1.0
C      1  0.4726140000000  0.4779420000000  0.4647720000000 1.0
C      1  0.5728200000000  0.5461480000000  0.5620880000000 1.0
C      1  0.5269220000000  0.5791050000000  0.5165490000000 1.0
C      1  0.4401350000000  0.4376660000000  0.4484900000000 1.0
C      1  0.4830990000000  0.5639570000000  0.5879920000000 1.0
C      1  0.5360990000000  0.5494680000000  0.4797200000000 1.0
C      1  0.5005080000000  0.5141970000000  0.3909440000000 1.0
C      1  0.5809390000000  0.5388170000000  0.4334170000000 1.0
C      1  0.5864350000000  0.4739850000000  0.5552280000000 1.0
C      1  0.4752390000000  0.5544920000000  0.4012820000000 1.0
C      1  0.5803070000000  0.5823000000000  0.5144640000000 1.0
C      1  0.5004800000000  0.4495720000000  0.5984100000000 1.0
C      1  0.4955060000000  0.4262680000000  0.5811850000000 1.0
C      1  0.5433200000000  0.4989930000000  0.4043970000000 1.0
C      1  0.4444820000000  0.3948480000000  0.4745750000000 1.0
C      1  0.5696620000000  0.5053500000000  0.4170740000000 1.0
C      1  0.5448740000000  0.4689410000000  0.5431660000000 1.0
END
