TITL C-951347-9520-79 8.28382477475797e-07 125000 -903.581428844418 0 0 146 (C1) n - 1
REM
REM in /home/bkarasulu/work/CARBON/AIRSS/Generating-Clusters/EDIP-Nigel-Params/with-SteepDescent/Only-C1/SD-CG/HFTN-CG
REM
REM
REM
REM
REM
REM ./C.cell (11c1c37f851c82e70ff6c80c92926a4b)
REM
REM compiler GCC version 9.2.1 20190827 (Red Hat 9.2.1-1)
REM options -cpp -mtune=generic -march=x86-64 -g -O0 -fpre-include=/usr/include/finclude/math-vector-fortran.h
REM seed -284576812 117050906 -457504902 -1110605652 957117959 -956408559 -1289117596 -746094787 1338070669 -800103222 1915393655 -2040640456 2075402962 1638412588 560876465 -476124671 1189891332 1864857618 715015065 569952441 -321245441 1643251558 -708567823 442583285 -997908040 1704864422 -1461932143 237382059 -940290204 -1585498470 -514600715 1636942647 1041062437
REM
CELL 1.54180   50.00000   50.00000   50.00000   90.00000   90.00000   90.00000
LATT -1
SFAC C  
C      1  0.4298650000000  0.4248900000000  0.5444780000000 1.0
C      1  0.5283610000000  0.4891020000000  0.5471450000000 1.0
C      1  0.4366150000000  0.4274480000000  0.4723060000000 1.0
C      1  0.5375030000000  0.5527730000000  0.4801660000000 1.0
C      1  0.4324130000000  0.5484880000000  0.5617940000000 1.0
C      1  0.5317310000000  0.5320520000000  0.4127430000000 1.0
C      1  0.5111490000000  0.4422440000000  0.5569850000000 1.0
C      1  0.4016710000000  0.4958060000000  0.4831160000000 1.0
C      1  0.5373780000000  0.4828010000000  0.4141740000000 1.0
C      1  0.5954270000000  0.5074170000000  0.4641520000000 1.0
C      1  0.5621840000000  0.4196850000000  0.5346440000000 1.0
C      1  0.5083460000000  0.5930850000000  0.5171810000000 1.0
C      1  0.5406360000000  0.5967410000000  0.4802780000000 1.0
C      1  0.4506530000000  0.5541760000000  0.5091610000000 1.0
C      1  0.4578260000000  0.5432760000000  0.4794800000000 1.0
C      1  0.4132920000000  0.5283750000000  0.5486560000000 1.0
C      1  0.4583440000000  0.5035020000000  0.4594320000000 1.0
C      1  0.5559480000000  0.4642590000000  0.5132450000000 1.0
C      1  0.4160780000000  0.4474030000000  0.4630080000000 1.0
C      1  0.5185080000000  0.5492150000000  0.4565780000000 1.0
C      1  0.5832640000000  0.5320350000000  0.4796020000000 1.0
C      1  0.4977450000000  0.5522810000000  0.5366490000000 1.0
C      1  0.4973200000000  0.4236380000000  0.4223360000000 1.0
C      1  0.5548830000000  0.6063600000000  0.5242800000000 1.0
C      1  0.4598810000000  0.5108200000000  0.5805250000000 1.0
C      1  0.5697960000000  0.4403670000000  0.4686890000000 1.0
C      1  0.5020670000000  0.5979380000000  0.4582510000000 1.0
C      1  0.5015640000000  0.5822490000000  0.5441740000000 1.0
C      1  0.5324300000000  0.6061840000000  0.5069570000000 1.0
C      1  0.4326130000000  0.5056050000000  0.4440320000000 1.0
C      1  0.5671940000000  0.4151120000000  0.4836180000000 1.0
C      1  0.5781440000000  0.5587050000000  0.4654760000000 1.0
C      1  0.4680240000000  0.4303940000000  0.5720990000000 1.0
C      1  0.5125930000000  0.5354150000000  0.5565120000000 1.0
C      1  0.4880760000000  0.5007530000000  0.5821310000000 1.0
C      1  0.4802980000000  0.5134210000000  0.5014370000000 1.0
C      1  0.4857690000000  0.4350620000000  0.4898850000000 1.0
C      1  0.5781480000000  0.4708830000000  0.4313390000000 1.0
C      1  0.5487610000000  0.4686110000000  0.5604560000000 1.0
C      1  0.4648240000000  0.3968430000000  0.4868650000000 1.0
C      1  0.4169320000000  0.4263860000000  0.5174470000000 1.0
C      1  0.4060170000000  0.4542270000000  0.5118590000000 1.0
C      1  0.4965840000000  0.5702460000000  0.4555530000000 1.0
C      1  0.5494140000000  0.5038270000000  0.4572370000000 1.0
C      1  0.4083650000000  0.5284140000000  0.5197800000000 1.0
C      1  0.4890910000000  0.4568710000000  0.5098690000000 1.0
C      1  0.4558550000000  0.5930090000000  0.4721320000000 1.0
C      1  0.5234100000000  0.4141800000000  0.4287360000000 1.0
C      1  0.5343420000000  0.5173740000000  0.5058300000000 1.0
C      1  0.5569510000000  0.4518620000000  0.4433010000000 1.0
C      1  0.5139120000000  0.4531450000000  0.5252550000000 1.0
C      1  0.5246630000000  0.5071430000000  0.4052840000000 1.0
C      1  0.5110710000000  0.4126900000000  0.5478010000000 1.0
C      1  0.5522730000000  0.5364150000000  0.5755620000000 1.0
C      1  0.4911590000000  0.4719370000000  0.5907830000000 1.0
C      1  0.4881990000000  0.3987420000000  0.5046310000000 1.0
C      1  0.5187000000000  0.3995970000000  0.4810750000000 1.0
C      1  0.4457210000000  0.4732410000000  0.4930500000000 1.0
C      1  0.5815410000000  0.4978780000000  0.5472230000000 1.0
C      1  0.4711180000000  0.4028700000000  0.4599260000000 1.0
C      1  0.5308010000000  0.4348500000000  0.5086500000000 1.0
C      1  0.5212580000000  0.5463670000000  0.5059920000000 1.0
C      1  0.6140650000000  0.5154000000000  0.5115760000000 1.0
C      1  0.4150820000000  0.5009200000000  0.5581780000000 1.0
C      1  0.4360520000000  0.5779800000000  0.5596500000000 1.0
C      1  0.4621280000000  0.4505020000000  0.4435150000000 1.0
C      1  0.4581910000000  0.5836520000000  0.5058170000000 1.0
C      1  0.4701570000000  0.5223120000000  0.4200620000000 1.0
C      1  0.4399030000000  0.4641390000000  0.5753510000000 1.0
C      1  0.5652700000000  0.5797230000000  0.4856050000000 1.0
C      1  0.5369410000000  0.5501640000000  0.4331420000000 1.0
C      1  0.4395860000000  0.5241250000000  0.4218180000000 1.0
C      1  0.4730600000000  0.4220670000000  0.4390710000000 1.0
C      1  0.4891840000000  0.5821790000000  0.4972810000000 1.0
C      1  0.5621380000000  0.5138260000000  0.5327970000000 1.0
C      1  0.5026490000000  0.5067260000000  0.5550210000000 1.0
C      1  0.5339120000000  0.4110720000000  0.5278610000000 1.0
C      1  0.4570830000000  0.5001580000000  0.4871680000000 1.0
C      1  0.4988840000000  0.4504940000000  0.4106180000000 1.0
C      1  0.5691850000000  0.4881690000000  0.5724210000000 1.0
C      1  0.5295830000000  0.4770360000000  0.5211160000000 1.0
C      1  0.4426160000000  0.4919880000000  0.5650670000000 1.0
C      1  0.5283310000000  0.6073120000000  0.4575300000000 1.0
C      1  0.4550430000000  0.4928950000000  0.5382950000000 1.0
C      1  0.5630290000000  0.5557780000000  0.4418630000000 1.0
C      1  0.5068420000000  0.4739360000000  0.4532770000000 1.0
C      1  0.5048100000000  0.5225530000000  0.4613280000000 1.0
C      1  0.4321850000000  0.5511810000000  0.4256150000000 1.0
C      1  0.4156910000000  0.4682860000000  0.4861870000000 1.0
C      1  0.5908510000000  0.4571950000000  0.4752020000000 1.0
C      1  0.4120610000000  0.5158180000000  0.4637530000000 1.0
C      1  0.5959630000000  0.5362920000000  0.5065900000000 1.0
C      1  0.4857390000000  0.4697550000000  0.4301840000000 1.0
C      1  0.4758350000000  0.5963780000000  0.5520170000000 1.0
C      1  0.4604580000000  0.4483200000000  0.4752160000000 1.0
C      1  0.5203870000000  0.4696860000000  0.5974850000000 1.0
C      1  0.5761320000000  0.4142670000000  0.5104420000000 1.0
C      1  0.4847510000000  0.4055550000000  0.5341250000000 1.0
C      1  0.4570840000000  0.5638800000000  0.4293180000000 1.0
C      1  0.5418520000000  0.4347860000000  0.4219220000000 1.0
C      1  0.5062820000000  0.5543000000000  0.5802200000000 1.0
C      1  0.4797480000000  0.6095690000000  0.4715560000000 1.0
C      1  0.4162570000000  0.4690160000000  0.5363200000000 1.0
C      1  0.4782250000000  0.5098690000000  0.5319000000000 1.0
C      1  0.5532750000000  0.5235150000000  0.4807540000000 1.0
C      1  0.5897590000000  0.4765530000000  0.5284710000000 1.0
C      1  0.5324750000000  0.4511300000000  0.5774950000000 1.0
C      1  0.5333600000000  0.4951500000000  0.5986720000000 1.0
C      1  0.3933260000000  0.5087100000000  0.5066230000000 1.0
C      1  0.4198840000000  0.5416440000000  0.4751180000000 1.0
C      1  0.5995740000000  0.4831650000000  0.4810100000000 1.0
C      1  0.5484520000000  0.5613050000000  0.5605750000000 1.0
C      1  0.5064860000000  0.5068680000000  0.4878160000000 1.0
C      1  0.5462130000000  0.3974450000000  0.4776280000000 1.0
C      1  0.4768100000000  0.5506660000000  0.4125300000000 1.0
C      1  0.5546130000000  0.5098200000000  0.5871730000000 1.0
C      1  0.4315490000000  0.4555320000000  0.4383030000000 1.0
C      1  0.4540050000000  0.5970040000000  0.5324430000000 1.0
C      1  0.4922510000000  0.5497640000000  0.4940080000000 1.0
C      1  0.5690030000000  0.5832000000000  0.5162290000000 1.0
C      1  0.4246440000000  0.4812560000000  0.4320530000000 1.0
C      1  0.4211280000000  0.4499070000000  0.5587190000000 1.0
C      1  0.5143210000000  0.4275260000000  0.4843790000000 1.0
C      1  0.5635740000000  0.4504570000000  0.5390730000000 1.0
C      1  0.5015470000000  0.4783210000000  0.4819580000000 1.0
C      1  0.4661770000000  0.5670830000000  0.4583940000000 1.0
C      1  0.5276010000000  0.4554610000000  0.4053110000000 1.0
C      1  0.4753570000000  0.5582620000000  0.5819850000000 1.0
C      1  0.4618440000000  0.5841730000000  0.5741750000000 1.0
C      1  0.5755380000000  0.5008710000000  0.4424950000000 1.0
C      1  0.4319020000000  0.4124550000000  0.4967030000000 1.0
C      1  0.5664760000000  0.4842760000000  0.4085450000000 1.0
C      1  0.4669390000000  0.4511560000000  0.5288580000000 1.0
C      1  0.4213180000000  0.5482680000000  0.5034750000000 1.0
C      1  0.4781110000000  0.4938900000000  0.4139250000000 1.0
C      1  0.5227450000000  0.5771620000000  0.5676180000000 1.0
C      1  0.4616710000000  0.4251790000000  0.5436040000000 1.0
C      1  0.4859090000000  0.4521690000000  0.5689360000000 1.0
C      1  0.6078710000000  0.4883100000000  0.5079840000000 1.0
C      1  0.4699130000000  0.5388030000000  0.5367070000000 1.0
C      1  0.5766310000000  0.5379570000000  0.5289150000000 1.0
C      1  0.4785240000000  0.5207610000000  0.4488080000000 1.0
C      1  0.5352810000000  0.4795760000000  0.4453060000000 1.0
C      1  0.5605130000000  0.5611440000000  0.5329260000000 1.0
C      1  0.4595060000000  0.5378750000000  0.5664060000000 1.0
C      1  0.4460000000000  0.4702870000000  0.5234040000000 1.0
END
