TITL C-950535-5962-56 -2.13640099452016e-06 125000 -1045.39490601857 0 0 168 (C1) n - 1
REM
REM in /home/bkarasulu/work/CARBON/AIRSS/Generating-Clusters/EDIP-Nigel-Params/with-SteepDescent/Only-C1/SD-CG/HFTN-CG
REM
REM
REM
REM
REM
REM ./C.cell (11c1c37f851c82e70ff6c80c92926a4b)
REM
REM compiler GCC version 9.2.1 20190827 (Red Hat 9.2.1-1)
REM options -cpp -mtune=generic -march=x86-64 -g -O0 -fpre-include=/usr/include/finclude/math-vector-fortran.h
REM seed -1114128789 -737371175 -1403861402 726204375 578265552 -1060489308 -1394012219 542414875 1081003119 1441311313 -1557240489 -615018051 -199091454 -598867584 1268998255 -1875085178 1669117318 1187638438 1064904554 287203832 -1662914986 -1668813785 1269640462 1548393075 -970594860 -653784097 1090091296 1513017649 1308360958 -1481159673 -869429043 -581218615 1172041951
REM
CELL 1.54180   50.00000   50.00000   50.00000   90.00000   90.00000   90.00000
LATT -1
SFAC C  
C      1  0.5510100000000  0.4922230000000  0.4904800000000 1.0
C      1  0.4701710000000  0.4316400000000  0.4205940000000 1.0
C      1  0.4390290000000  0.4740140000000  0.5980390000000 1.0
C      1  0.4275050000000  0.4155310000000  0.5564170000000 1.0
C      1  0.5985820000000  0.5480140000000  0.5226070000000 1.0
C      1  0.5999030000000  0.5043950000000  0.5541360000000 1.0
C      1  0.4236660000000  0.5619290000000  0.4384500000000 1.0
C      1  0.4354280000000  0.4622060000000  0.4318420000000 1.0
C      1  0.5695080000000  0.4492450000000  0.5059960000000 1.0
C      1  0.5065870000000  0.5920810000000  0.5709220000000 1.0
C      1  0.4498270000000  0.4741350000000  0.4102000000000 1.0
C      1  0.3879170000000  0.4975690000000  0.5060330000000 1.0
C      1  0.4900670000000  0.4141040000000  0.4343520000000 1.0
C      1  0.5034470000000  0.5455020000000  0.5821550000000 1.0
C      1  0.5754020000000  0.5316280000000  0.5221230000000 1.0
C      1  0.5360220000000  0.5936500000000  0.4982750000000 1.0
C      1  0.4940960000000  0.4805700000000  0.5522020000000 1.0
C      1  0.5802860000000  0.4780140000000  0.4275810000000 1.0
C      1  0.5061400000000  0.4883310000000  0.4977450000000 1.0
C      1  0.4293940000000  0.5860570000000  0.4803740000000 1.0
C      1  0.5811550000000  0.4937160000000  0.5866570000000 1.0
C      1  0.5293330000000  0.3997610000000  0.4564200000000 1.0
C      1  0.4510680000000  0.5120890000000  0.4597640000000 1.0
C      1  0.4696930000000  0.6075000000000  0.4529160000000 1.0
C      1  0.4429820000000  0.4485350000000  0.5870360000000 1.0
C      1  0.5189890000000  0.3940380000000  0.4848500000000 1.0
C      1  0.4482010000000  0.4702470000000  0.4828800000000 1.0
C      1  0.4488460000000  0.4715150000000  0.5336780000000 1.0
C      1  0.5091990000000  0.4289560000000  0.4711600000000 1.0
C      1  0.5216150000000  0.5352280000000  0.3991620000000 1.0
C      1  0.4190210000000  0.4670660000000  0.4741390000000 1.0
C      1  0.4706260000000  0.4447960000000  0.5742640000000 1.0
C      1  0.5771240000000  0.4195890000000  0.5383010000000 1.0
C      1  0.5492260000000  0.5407540000000  0.5939260000000 1.0
C      1  0.5662840000000  0.5830450000000  0.5346920000000 1.0
C      1  0.4019690000000  0.5240920000000  0.4522520000000 1.0
C      1  0.5580210000000  0.5744300000000  0.5069810000000 1.0
C      1  0.5843420000000  0.5027140000000  0.5289930000000 1.0
C      1  0.5203740000000  0.4591470000000  0.3921510000000 1.0
C      1  0.5666350000000  0.4648620000000  0.5561220000000 1.0
C      1  0.5606740000000  0.5334630000000  0.5684430000000 1.0
C      1  0.4522280000000  0.4037020000000  0.5515910000000 1.0
C      1  0.4081100000000  0.4501770000000  0.5177290000000 1.0
C      1  0.4708580000000  0.5793160000000  0.5086640000000 1.0
C      1  0.5107700000000  0.5634000000000  0.5324540000000 1.0
C      1  0.4749920000000  0.5052740000000  0.4439360000000 1.0
C      1  0.4253950000000  0.5676790000000  0.5282570000000 1.0
C      1  0.4626510000000  0.3971830000000  0.5032120000000 1.0
C      1  0.4831450000000  0.5740030000000  0.5364150000000 1.0
C      1  0.4929840000000  0.4958550000000  0.6080910000000 1.0
C      1  0.5199590000000  0.5179990000000  0.5371800000000 1.0
C      1  0.5430650000000  0.6000090000000  0.5413610000000 1.0
C      1  0.5999070000000  0.5318030000000  0.4530090000000 1.0
C      1  0.4800480000000  0.4452360000000  0.5076720000000 1.0
C      1  0.4546760000000  0.4996260000000  0.4855160000000 1.0
C      1  0.3985700000000  0.5591160000000  0.5252880000000 1.0
C      1  0.4515320000000  0.4170430000000  0.4634720000000 1.0
C      1  0.5134510000000  0.6043040000000  0.5166140000000 1.0
C      1  0.6130460000000  0.5368370000000  0.4771840000000 1.0
C      1  0.5420200000000  0.4241280000000  0.5681720000000 1.0
C      1  0.4721410000000  0.5096940000000  0.5923080000000 1.0
C      1  0.4704290000000  0.4649930000000  0.5525530000000 1.0
C      1  0.5440750000000  0.5801290000000  0.4528100000000 1.0
C      1  0.5393160000000  0.5462180000000  0.4176320000000 1.0
C      1  0.4924470000000  0.4715990000000  0.3911360000000 1.0
C      1  0.5502330000000  0.4733010000000  0.5131210000000 1.0
C      1  0.4038310000000  0.5082880000000  0.5287850000000 1.0
C      1  0.5925100000000  0.5039400000000  0.4789050000000 1.0
C      1  0.4867470000000  0.3936490000000  0.4846380000000 1.0
C      1  0.4751150000000  0.5128610000000  0.5271360000000 1.0
C      1  0.3839430000000  0.5179510000000  0.4855410000000 1.0
C      1  0.5389130000000  0.4643360000000  0.4584330000000 1.0
C      1  0.5729770000000  0.4342420000000  0.4481120000000 1.0
C      1  0.5929250000000  0.4620410000000  0.4909210000000 1.0
C      1  0.5082410000000  0.5847760000000  0.4162720000000 1.0
C      1  0.5916970000000  0.4364690000000  0.5207280000000 1.0
C      1  0.4211430000000  0.4623980000000  0.5429710000000 1.0
C      1  0.5231130000000  0.5344670000000  0.6002210000000 1.0
C      1  0.4760950000000  0.4005240000000  0.4575320000000 1.0
C      1  0.3981630000000  0.5353170000000  0.5412770000000 1.0
C      1  0.5388390000000  0.4075630000000  0.5065850000000 1.0
C      1  0.4879640000000  0.6025410000000  0.4991990000000 1.0
C      1  0.6019750000000  0.5559230000000  0.4958590000000 1.0
C      1  0.5582050000000  0.4016540000000  0.5264370000000 1.0
C      1  0.4381330000000  0.5568920000000  0.5522250000000 1.0
C      1  0.5274830000000  0.4518740000000  0.5447910000000 1.0
C      1  0.4866340000000  0.5017690000000  0.3979130000000 1.0
C      1  0.5152720000000  0.6188380000000  0.4624560000000 1.0
C      1  0.5201530000000  0.5395980000000  0.5159300000000 1.0
C      1  0.4968780000000  0.5341730000000  0.4888070000000 1.0
C      1  0.5426030000000  0.5090110000000  0.5542480000000 1.0
C      1  0.4311110000000  0.5087910000000  0.5637510000000 1.0
C      1  0.4477920000000  0.5025830000000  0.5323090000000 1.0
C      1  0.4907260000000  0.4683180000000  0.6123010000000 1.0
C      1  0.4815860000000  0.4373980000000  0.4800350000000 1.0
C      1  0.4729030000000  0.5530180000000  0.4932560000000 1.0
C      1  0.5732230000000  0.5413400000000  0.4519950000000 1.0
C      1  0.5275030000000  0.5770890000000  0.5537590000000 1.0
C      1  0.5202050000000  0.4150780000000  0.4321800000000 1.0
C      1  0.4975120000000  0.5274670000000  0.4504450000000 1.0
C      1  0.5318860000000  0.5726610000000  0.4274830000000 1.0
C      1  0.5511730000000  0.5269180000000  0.4381640000000 1.0
C      1  0.5804110000000  0.5744150000000  0.4867520000000 1.0
C      1  0.5200950000000  0.4635120000000  0.5107850000000 1.0
C      1  0.4363700000000  0.5141540000000  0.5057750000000 1.0
C      1  0.5263140000000  0.5003290000000  0.4808100000000 1.0
C      1  0.5679670000000  0.4888640000000  0.4680340000000 1.0
C      1  0.4395730000000  0.4106320000000  0.4906850000000 1.0
C      1  0.4222080000000  0.4281900000000  0.5053790000000 1.0
C      1  0.4762070000000  0.6045110000000  0.4253620000000 1.0
C      1  0.5608190000000  0.4613430000000  0.4131940000000 1.0
C      1  0.4165570000000  0.4785130000000  0.4467100000000 1.0
C      1  0.4914650000000  0.6074390000000  0.4710270000000 1.0
C      1  0.4402360000000  0.5840030000000  0.5085800000000 1.0
C      1  0.5483380000000  0.4440920000000  0.4353460000000 1.0
C      1  0.4924490000000  0.5717630000000  0.5849880000000 1.0
C      1  0.4483020000000  0.5405990000000  0.5016680000000 1.0
C      1  0.5680030000000  0.4176220000000  0.4693150000000 1.0
C      1  0.5008570000000  0.6114000000000  0.4146390000000 1.0
C      1  0.4742750000000  0.4175860000000  0.5628270000000 1.0
C      1  0.5139470000000  0.4722970000000  0.4402500000000 1.0
C      1  0.5682450000000  0.5044540000000  0.4273930000000 1.0
C      1  0.5878020000000  0.4594560000000  0.4527790000000 1.0
C      1  0.4448810000000  0.6017200000000  0.4633550000000 1.0
C      1  0.4834940000000  0.5076740000000  0.4991000000000 1.0
C      1  0.4699480000000  0.4550540000000  0.4018160000000 1.0
C      1  0.4098730000000  0.4890220000000  0.5514090000000 1.0
C      1  0.5253930000000  0.5197050000000  0.4587060000000 1.0
C      1  0.5402580000000  0.4787050000000  0.4004880000000 1.0
C      1  0.5690520000000  0.5680700000000  0.4603180000000 1.0
C      1  0.5320990000000  0.4915750000000  0.5777970000000 1.0
C      1  0.5525060000000  0.4289900000000  0.4904900000000 1.0
C      1  0.4197030000000  0.5365980000000  0.5623450000000 1.0
C      1  0.4960760000000  0.4529620000000  0.5895560000000 1.0
C      1  0.4828450000000  0.5277050000000  0.5709560000000 1.0
C      1  0.5501350000000  0.5449930000000  0.5101630000000 1.0
C      1  0.4670220000000  0.4578530000000  0.4621340000000 1.0
C      1  0.5235900000000  0.4207230000000  0.5463890000000 1.0
C      1  0.4346910000000  0.5183660000000  0.4169090000000 1.0
C      1  0.4583680000000  0.3881300000000  0.5292910000000 1.0
C      1  0.4549890000000  0.4578180000000  0.5086300000000 1.0
C      1  0.5354160000000  0.6011810000000  0.4703630000000 1.0
C      1  0.5867810000000  0.5195050000000  0.5749880000000 1.0
C      1  0.4462440000000  0.4347590000000  0.4377920000000 1.0
C      1  0.4232530000000  0.4417110000000  0.5657140000000 1.0
C      1  0.4252240000000  0.5079210000000  0.4441340000000 1.0
C      1  0.4940180000000  0.5097030000000  0.5477320000000 1.0
C      1  0.4168770000000  0.5637490000000  0.4656930000000 1.0
C      1  0.5626200000000  0.5601060000000  0.5535940000000 1.0
C      1  0.5296710000000  0.4469890000000  0.4819710000000 1.0
C      1  0.5599980000000  0.4871550000000  0.5385310000000 1.0
C      1  0.5258760000000  0.4937020000000  0.4229350000000 1.0
C      1  0.5546940000000  0.4863070000000  0.5951870000000 1.0
C      1  0.4610640000000  0.5018560000000  0.4143430000000 1.0
C      1  0.3980320000000  0.4694900000000  0.4966050000000 1.0
C      1  0.4033290000000  0.5397390000000  0.4767200000000 1.0
C      1  0.4866200000000  0.4790210000000  0.4525470000000 1.0
C      1  0.5662580000000  0.4364860000000  0.5598250000000 1.0
C      1  0.5213370000000  0.5051960000000  0.6031120000000 1.0
C      1  0.4912170000000  0.6008470000000  0.5473710000000 1.0
C      1  0.4677060000000  0.5570840000000  0.5584660000000 1.0
C      1  0.5990810000000  0.4896400000000  0.5042220000000 1.0
C      1  0.5139820000000  0.4678520000000  0.5683720000000 1.0
C      1  0.5098120000000  0.4501800000000  0.4194190000000 1.0
C      1  0.4450270000000  0.4995840000000  0.5889150000000 1.0
C      1  0.4990670000000  0.4107680000000  0.5536370000000 1.0
C      1  0.5073050000000  0.5156290000000  0.4147200000000 1.0
C      1  0.4335430000000  0.5462490000000  0.4186550000000 1.0
END
