TITL C-951342-2639-743 -2.59315523936094e-07 125000 -859.356397091728 0 0 139 (C1) n - 1
REM
REM in /home/bkarasulu/work/CARBON/AIRSS/Generating-Clusters/EDIP-Nigel-Params/with-SteepDescent/Only-C1/SD-CG/HFTN-CG
REM
REM
REM
REM
REM
REM ./C.cell (11c1c37f851c82e70ff6c80c92926a4b)
REM
REM compiler GCC version 9.2.1 20190827 (Red Hat 9.2.1-1)
REM options -cpp -mtune=generic -march=x86-64 -g -O0 -fpre-include=/usr/include/finclude/math-vector-fortran.h
REM seed 746960961 1911278635 -858411283 424091643 2115099367 992439925 -1405407093 -841250066 -818083176 269452640 -2042425156 -141798241 -1085448090 -694003010 -244664021 -74656671 1770788099 -1982567906 678857938 -733166990 -521918350 1735306555 1076570104 -351754852 -941133288 -515639940 -1913816924 -388059784 -1673621236 715405898 1515081866 1933121843 1660422906
REM
CELL 1.54180   50.00000   50.00000   50.00000   90.00000   90.00000   90.00000
LATT -1
SFAC C  
C      1  0.5442380000000  0.4532390000000  0.4256140000000 1.0
C      1  0.5820200000000  0.5038710000000  0.4975130000000 1.0
C      1  0.4830860000000  0.4242600000000  0.5784220000000 1.0
C      1  0.5311600000000  0.5373120000000  0.4730690000000 1.0
C      1  0.5906680000000  0.5030390000000  0.5254430000000 1.0
C      1  0.5623770000000  0.4549860000000  0.4933670000000 1.0
C      1  0.4748140000000  0.5227460000000  0.5782320000000 1.0
C      1  0.4637070000000  0.4514000000000  0.5388610000000 1.0
C      1  0.4817650000000  0.4839340000000  0.6078460000000 1.0
C      1  0.5525760000000  0.5435780000000  0.5274070000000 1.0
C      1  0.5104110000000  0.5498990000000  0.4941640000000 1.0
C      1  0.5195500000000  0.6051920000000  0.4922470000000 1.0
C      1  0.4376670000000  0.4422870000000  0.4424570000000 1.0
C      1  0.5734310000000  0.5519980000000  0.5088490000000 1.0
C      1  0.5753570000000  0.5270830000000  0.5677020000000 1.0
C      1  0.4409630000000  0.5621220000000  0.4350060000000 1.0
C      1  0.4626970000000  0.5208130000000  0.5078550000000 1.0
C      1  0.5285300000000  0.4395530000000  0.5660050000000 1.0
C      1  0.4833630000000  0.5584090000000  0.4783890000000 1.0
C      1  0.4977570000000  0.5456710000000  0.4163610000000 1.0
C      1  0.5272780000000  0.4505940000000  0.5355850000000 1.0
C      1  0.5168710000000  0.5092190000000  0.4786330000000 1.0
C      1  0.5153750000000  0.5693840000000  0.4139850000000 1.0
C      1  0.4974570000000  0.4016760000000  0.4889880000000 1.0
C      1  0.5133510000000  0.4953360000000  0.4234200000000 1.0
C      1  0.4736850000000  0.3946600000000  0.5037770000000 1.0
C      1  0.4971450000000  0.4118970000000  0.4622940000000 1.0
C      1  0.4695040000000  0.4928670000000  0.4006960000000 1.0
C      1  0.5397510000000  0.5733390000000  0.4593470000000 1.0
C      1  0.5084490000000  0.4968590000000  0.6097740000000 1.0
C      1  0.5612110000000  0.4121560000000  0.5158770000000 1.0
C      1  0.5329550000000  0.5203940000000  0.5315210000000 1.0
C      1  0.5642270000000  0.5728240000000  0.4898610000000 1.0
C      1  0.5326710000000  0.5947810000000  0.5375800000000 1.0
C      1  0.4120120000000  0.4936700000000  0.5393230000000 1.0
C      1  0.5222390000000  0.4184480000000  0.4487710000000 1.0
C      1  0.4727810000000  0.5412490000000  0.3988690000000 1.0
C      1  0.4581850000000  0.4812740000000  0.4710700000000 1.0
C      1  0.4533970000000  0.5508790000000  0.5645990000000 1.0
C      1  0.4315170000000  0.5553780000000  0.4621530000000 1.0
C      1  0.4634480000000  0.5276740000000  0.4504980000000 1.0
C      1  0.5568840000000  0.4579330000000  0.5323760000000 1.0
C      1  0.5368500000000  0.5374850000000  0.5969080000000 1.0
C      1  0.5140370000000  0.4379730000000  0.5081980000000 1.0
C      1  0.5547430000000  0.4898780000000  0.5912290000000 1.0
C      1  0.5339820000000  0.5504650000000  0.5703320000000 1.0
C      1  0.4364360000000  0.4696940000000  0.4516000000000 1.0
C      1  0.5643040000000  0.5335700000000  0.4698050000000 1.0
C      1  0.5809820000000  0.4769920000000  0.4841140000000 1.0
C      1  0.5419820000000  0.5985020000000  0.5095720000000 1.0
C      1  0.4617010000000  0.5020560000000  0.5960210000000 1.0
C      1  0.5147960000000  0.5215920000000  0.4096170000000 1.0
C      1  0.4042340000000  0.5082670000000  0.5144890000000 1.0
C      1  0.4342370000000  0.5059400000000  0.5551390000000 1.0
C      1  0.5641450000000  0.4530690000000  0.5605550000000 1.0
C      1  0.4713430000000  0.4343600000000  0.4267460000000 1.0
C      1  0.5053190000000  0.4038530000000  0.5426090000000 1.0
C      1  0.4145800000000  0.5345120000000  0.5069530000000 1.0
C      1  0.4719030000000  0.4697080000000  0.5630110000000 1.0
C      1  0.4903480000000  0.5741720000000  0.5709500000000 1.0
C      1  0.5236230000000  0.3957150000000  0.4996040000000 1.0
C      1  0.4491580000000  0.5660960000000  0.5103840000000 1.0
C      1  0.4471260000000  0.4687150000000  0.5196950000000 1.0
C      1  0.4478020000000  0.5369240000000  0.4158580000000 1.0
C      1  0.5458730000000  0.4120900000000  0.4912510000000 1.0
C      1  0.4719520000000  0.4148760000000  0.4483090000000 1.0
C      1  0.4041210000000  0.4621370000000  0.5025170000000 1.0
C      1  0.5097210000000  0.4157680000000  0.5685280000000 1.0
C      1  0.4856850000000  0.4543030000000  0.5865210000000 1.0
C      1  0.5607450000000  0.4473300000000  0.4497640000000 1.0
C      1  0.5196630000000  0.4365630000000  0.4256120000000 1.0
C      1  0.5262930000000  0.4829080000000  0.5921340000000 1.0
C      1  0.5018020000000  0.6054060000000  0.4489670000000 1.0
C      1  0.5603190000000  0.4943500000000  0.4404670000000 1.0
C      1  0.5333530000000  0.4882390000000  0.4920770000000 1.0
C      1  0.4465200000000  0.4167690000000  0.5388280000000 1.0
C      1  0.5381330000000  0.5646880000000  0.4308020000000 1.0
C      1  0.4628370000000  0.4140580000000  0.5614030000000 1.0
C      1  0.4688160000000  0.5738920000000  0.4355640000000 1.0
C      1  0.4927800000000  0.4874000000000  0.5524040000000 1.0
C      1  0.5603890000000  0.5503730000000  0.5559820000000 1.0
C      1  0.4752780000000  0.5871170000000  0.4815500000000 1.0
C      1  0.5100040000000  0.5806770000000  0.5492460000000 1.0
C      1  0.4571470000000  0.5460990000000  0.4894460000000 1.0
C      1  0.4158260000000  0.5362630000000  0.4772970000000 1.0
C      1  0.5765530000000  0.5027850000000  0.5506690000000 1.0
C      1  0.5944960000000  0.5328880000000  0.5003570000000 1.0
C      1  0.5820850000000  0.5657440000000  0.4673100000000 1.0
C      1  0.5255100000000  0.4595720000000  0.4833800000000 1.0
C      1  0.4786570000000  0.4615090000000  0.4781750000000 1.0
C      1  0.5099900000000  0.5261000000000  0.6040690000000 1.0
C      1  0.5090840000000  0.4758030000000  0.5309230000000 1.0
C      1  0.4665080000000  0.5753460000000  0.5544640000000 1.0
C      1  0.5456610000000  0.4257540000000  0.4649690000000 1.0
C      1  0.4491080000000  0.5296700000000  0.5429310000000 1.0
C      1  0.5709110000000  0.4796820000000  0.5686360000000 1.0
C      1  0.4745280000000  0.5022380000000  0.4584010000000 1.0
C      1  0.5156300000000  0.4573290000000  0.5852780000000 1.0
C      1  0.5523920000000  0.5405470000000  0.4227110000000 1.0
C      1  0.4321420000000  0.5479970000000  0.5259080000000 1.0
C      1  0.5723150000000  0.4380640000000  0.5159510000000 1.0
C      1  0.5027400000000  0.4954090000000  0.4549060000000 1.0
C      1  0.4757240000000  0.5163170000000  0.3856080000000 1.0
C      1  0.4955360000000  0.5241380000000  0.5084400000000 1.0
C      1  0.4835630000000  0.5499260000000  0.4480530000000 1.0
C      1  0.4186450000000  0.4662450000000  0.5286130000000 1.0
C      1  0.5410830000000  0.4827280000000  0.4220890000000 1.0
C      1  0.4947120000000  0.4526830000000  0.4290800000000 1.0
C      1  0.5240830000000  0.5982360000000  0.4643890000000 1.0
C      1  0.5156830000000  0.5318830000000  0.5528190000000 1.0
C      1  0.4881260000000  0.4593110000000  0.5063960000000 1.0
C      1  0.4136180000000  0.4912720000000  0.4919550000000 1.0
C      1  0.4067650000000  0.5042020000000  0.4407680000000 1.0
C      1  0.4483370000000  0.4871400000000  0.5742720000000 1.0
C      1  0.5266990000000  0.4950750000000  0.5192350000000 1.0
C      1  0.6008000000000  0.5445240000000  0.4737720000000 1.0
C      1  0.4495750000000  0.4089110000000  0.5106580000000 1.0
C      1  0.4922860000000  0.6004610000000  0.5014450000000 1.0
C      1  0.5285870000000  0.3949030000000  0.5282230000000 1.0
C      1  0.4937460000000  0.4772210000000  0.4099730000000 1.0
C      1  0.4834620000000  0.5505100000000  0.5908160000000 1.0
C      1  0.5012380000000  0.5107590000000  0.5689270000000 1.0
C      1  0.5608160000000  0.5191980000000  0.5931690000000 1.0
C      1  0.4071200000000  0.5101300000000  0.4679420000000 1.0
C      1  0.4879320000000  0.4228540000000  0.5263040000000 1.0
C      1  0.4508210000000  0.5046010000000  0.4218270000000 1.0
C      1  0.4463460000000  0.4918480000000  0.4976540000000 1.0
C      1  0.4465360000000  0.4220690000000  0.4615310000000 1.0
C      1  0.4273790000000  0.4885100000000  0.4309070000000 1.0
C      1  0.5019130000000  0.4650610000000  0.4609800000000 1.0
C      1  0.4752040000000  0.5974870000000  0.4532710000000 1.0
C      1  0.4127170000000  0.4376710000000  0.4921860000000 1.0
C      1  0.4353990000000  0.4219380000000  0.4886100000000 1.0
C      1  0.5408430000000  0.5278500000000  0.4003240000000 1.0
C      1  0.4729470000000  0.5766290000000  0.5248820000000 1.0
C      1  0.5308450000000  0.5622240000000  0.5166920000000 1.0
C      1  0.5651280000000  0.5229090000000  0.4423620000000 1.0
C      1  0.5746230000000  0.4736630000000  0.4554120000000 1.0
C      1  0.4954360000000  0.5477510000000  0.5355200000000 1.0
END
