TITL C-950536-5891-296 2.20713366711051e-06 125000 -284.317103282023 0 0 48 (C1) n - 1
REM
REM in /home/bkarasulu/work/CARBON/AIRSS/Generating-Clusters/EDIP-Nigel-Params/with-SteepDescent/Only-C1/SD-CG/HFTN-CG
REM
REM
REM
REM
REM
REM ./C.cell (11c1c37f851c82e70ff6c80c92926a4b)
REM
REM compiler GCC version 9.2.1 20190827 (Red Hat 9.2.1-1)
REM options -cpp -mtune=generic -march=x86-64 -g -O0 -fpre-include=/usr/include/finclude/math-vector-fortran.h
REM seed 1333435132 -2144171083 -656060117 31039056 -2138130914 -2027529427 755776434 80496368 -1940872827 -1214482331 923163846 1537217959 777915248 2085057041 -319007292 -1914229329 -905325654 -2110663914 -1158278872 -1468276541 1565635797 -779007496 2102334898 719093697 1358684129 -192263903 363744102 -1223240936 -765544273 567724329 593856868 -2032400975 1506042632
REM
CELL 1.54180   50.00000   50.00000   50.00000   90.00000   90.00000   90.00000
LATT -1
SFAC C  
C      1  0.5337670000000  0.4743980000000  0.5383410000000 1.0
C      1  0.5125400000000  0.5387410000000  0.5083230000000 1.0
C      1  0.5207450000000  0.5172500000000  0.4424090000000 1.0
C      1  0.5563260000000  0.4967260000000  0.4652230000000 1.0
C      1  0.4660780000000  0.5512030000000  0.4816290000000 1.0
C      1  0.4470750000000  0.5060760000000  0.5356420000000 1.0
C      1  0.5026460000000  0.4473470000000  0.5118240000000 1.0
C      1  0.5030790000000  0.4777070000000  0.5081300000000 1.0
C      1  0.4372380000000  0.5132610000000  0.4677700000000 1.0
C      1  0.4494750000000  0.4633300000000  0.5152100000000 1.0
C      1  0.5449670000000  0.4537280000000  0.5000770000000 1.0
C      1  0.4890040000000  0.4342750000000  0.4915090000000 1.0
C      1  0.5056420000000  0.4877120000000  0.4707710000000 1.0
C      1  0.4866270000000  0.4693090000000  0.4547870000000 1.0
C      1  0.5270200000000  0.4717080000000  0.4358350000000 1.0
C      1  0.4532040000000  0.4649860000000  0.4872310000000 1.0
C      1  0.5571200000000  0.5062940000000  0.5181230000000 1.0
C      1  0.4751960000000  0.5779380000000  0.5244920000000 1.0
C      1  0.4594230000000  0.5172510000000  0.4462600000000 1.0
C      1  0.5257250000000  0.4670140000000  0.5655060000000 1.0
C      1  0.4740450000000  0.4497080000000  0.4741490000000 1.0
C      1  0.4934090000000  0.5671880000000  0.5416210000000 1.0
C      1  0.5285210000000  0.4371040000000  0.5154730000000 1.0
C      1  0.5385240000000  0.4960140000000  0.4432510000000 1.0
C      1  0.4824550000000  0.5691530000000  0.4984910000000 1.0
C      1  0.5217630000000  0.5523210000000  0.4739150000000 1.0
C      1  0.5011920000000  0.4594080000000  0.5545180000000 1.0
C      1  0.5642950000000  0.4789620000000  0.5305560000000 1.0
C      1  0.5072220000000  0.5392290000000  0.4528700000000 1.0
C      1  0.4834800000000  0.4991410000000  0.5719040000000 1.0
C      1  0.4618700000000  0.4856630000000  0.4439760000000 1.0
C      1  0.5203570000000  0.5255670000000  0.5499750000000 1.0
C      1  0.5012980000000  0.5189380000000  0.5691220000000 1.0
C      1  0.4786750000000  0.4768410000000  0.5560360000000 1.0
C      1  0.4622720000000  0.5217070000000  0.5181160000000 1.0
C      1  0.5153070000000  0.5505810000000  0.5355990000000 1.0
C      1  0.5613760000000  0.5082310000000  0.4898530000000 1.0
C      1  0.5092630000000  0.5723600000000  0.4892260000000 1.0
C      1  0.4472660000000  0.5347750000000  0.4967930000000 1.0
C      1  0.4584040000000  0.4807980000000  0.5353480000000 1.0
C      1  0.5316540000000  0.4798400000000  0.4937260000000 1.0
C      1  0.5283930000000  0.5049280000000  0.5294890000000 1.0
C      1  0.4409070000000  0.4830880000000  0.4670740000000 1.0
C      1  0.4891510000000  0.5095920000000  0.4811030000000 1.0
C      1  0.5037380000000  0.4577820000000  0.4344530000000 1.0
C      1  0.4805150000000  0.5310630000000  0.4635170000000 1.0
C      1  0.4912090000000  0.5145010000000  0.5097780000000 1.0
C      1  0.5705410000000  0.4592630000000  0.5109760000000 1.0
END
