TITL C-951340-9809-453 2.53321971149561e-06 125000 -1113.18334091656 0 0 178 (C1) n - 1
REM
REM in /home/bkarasulu/work/CARBON/AIRSS/Generating-Clusters/EDIP-Nigel-Params/with-SteepDescent/Only-C1/SD-CG/HFTN-CG
REM
REM
REM
REM
REM
REM ./C.cell (11c1c37f851c82e70ff6c80c92926a4b)
REM
REM compiler GCC version 9.2.1 20190827 (Red Hat 9.2.1-1)
REM options -cpp -mtune=generic -march=x86-64 -g -O0 -fpre-include=/usr/include/finclude/math-vector-fortran.h
REM seed -1403171871 -927214336 -244622185 -1283659389 27477731 1876520927 -838463886 -73480497 -2097553815 -1644903556 243668919 817544005 -1174491880 342549934 714627646 -2059472830 -678227877 938752809 2044886293 -1870315305 327667313 1790377110 558545277 -526213370 -1340523390 822519834 -1338191288 1305187145 1005698945 -380586264 -1974594757 -1292813777 -1748995075
REM
CELL 1.54180   50.00000   50.00000   50.00000   90.00000   90.00000   90.00000
LATT -1
SFAC C  
C      1  0.5994060000000  0.5371930000000  0.4940420000000 1.0
C      1  0.4848880000000  0.6095820000000  0.5511620000000 1.0
C      1  0.4830780000000  0.5988560000000  0.4777710000000 1.0
C      1  0.3923140000000  0.4201450000000  0.5317080000000 1.0
C      1  0.4355750000000  0.4096510000000  0.4697060000000 1.0
C      1  0.4036250000000  0.5225500000000  0.5196150000000 1.0
C      1  0.4599790000000  0.4277920000000  0.5698350000000 1.0
C      1  0.4699930000000  0.4345890000000  0.4658680000000 1.0
C      1  0.5422410000000  0.5659990000000  0.5707500000000 1.0
C      1  0.5369140000000  0.4795270000000  0.5343810000000 1.0
C      1  0.5276770000000  0.4488140000000  0.5996950000000 1.0
C      1  0.4334280000000  0.5978300000000  0.4731540000000 1.0
C      1  0.5375130000000  0.5171880000000  0.4080790000000 1.0
C      1  0.5028130000000  0.4524300000000  0.5576180000000 1.0
C      1  0.4384980000000  0.5498280000000  0.4855610000000 1.0
C      1  0.5431800000000  0.5813570000000  0.4983780000000 1.0
C      1  0.4304690000000  0.4934730000000  0.5723760000000 1.0
C      1  0.4465900000000  0.5181410000000  0.5731730000000 1.0
C      1  0.5157130000000  0.5134200000000  0.5169840000000 1.0
C      1  0.4014100000000  0.4992780000000  0.5392270000000 1.0
C      1  0.5440770000000  0.4827910000000  0.4863430000000 1.0
C      1  0.3947760000000  0.5526560000000  0.5101940000000 1.0
C      1  0.5300860000000  0.4145560000000  0.4604940000000 1.0
C      1  0.4730920000000  0.5352940000000  0.6108100000000 1.0
C      1  0.5615250000000  0.4602740000000  0.4974950000000 1.0
C      1  0.4402950000000  0.5787200000000  0.4488730000000 1.0
C      1  0.5470030000000  0.4899850000000  0.4067320000000 1.0
C      1  0.5587600000000  0.4903730000000  0.5959030000000 1.0
C      1  0.4467700000000  0.4884820000000  0.4805500000000 1.0
C      1  0.4995420000000  0.5489520000000  0.4856040000000 1.0
C      1  0.5564450000000  0.5111720000000  0.4810940000000 1.0
C      1  0.5472710000000  0.5469400000000  0.4964510000000 1.0
C      1  0.4245470000000  0.5395790000000  0.4277430000000 1.0
C      1  0.4719880000000  0.4976280000000  0.3843790000000 1.0
C      1  0.5115230000000  0.5055800000000  0.4098420000000 1.0
C      1  0.4876520000000  0.3945260000000  0.4706550000000 1.0
C      1  0.5355590000000  0.5752670000000  0.4271520000000 1.0
C      1  0.4960310000000  0.4778740000000  0.4556990000000 1.0
C      1  0.5870650000000  0.5847290000000  0.4981560000000 1.0
C      1  0.5384340000000  0.4091100000000  0.5159630000000 1.0
C      1  0.5166450000000  0.5655570000000  0.4069850000000 1.0
C      1  0.5620420000000  0.5735860000000  0.5509820000000 1.0
C      1  0.5110920000000  0.6040050000000  0.5601620000000 1.0
C      1  0.5067190000000  0.4011990000000  0.4494520000000 1.0
C      1  0.5127430000000  0.4386740000000  0.4157530000000 1.0
C      1  0.4449020000000  0.4471070000000  0.5828200000000 1.0
C      1  0.5926960000000  0.4555200000000  0.4477060000000 1.0
C      1  0.5725250000000  0.4762290000000  0.4489300000000 1.0
C      1  0.5526870000000  0.4120640000000  0.5421930000000 1.0
C      1  0.5663500000000  0.5244970000000  0.5816740000000 1.0
C      1  0.5464070000000  0.3932920000000  0.4760710000000 1.0
C      1  0.4941850000000  0.6044620000000  0.5047860000000 1.0
C      1  0.4520760000000  0.4997460000000  0.5062140000000 1.0
C      1  0.4045970000000  0.5084320000000  0.4935130000000 1.0
C      1  0.5263580000000  0.5521120000000  0.4722410000000 1.0
C      1  0.5946090000000  0.4933600000000  0.5226490000000 1.0
C      1  0.5413970000000  0.5268800000000  0.5503990000000 1.0
C      1  0.5155250000000  0.4896270000000  0.4971430000000 1.0
C      1  0.4933520000000  0.5047730000000  0.5747460000000 1.0
C      1  0.5872560000000  0.5577160000000  0.5110350000000 1.0
C      1  0.4594800000000  0.3940870000000  0.4668380000000 1.0
C      1  0.4715380000000  0.4813380000000  0.4409520000000 1.0
C      1  0.5651970000000  0.4501210000000  0.5689150000000 1.0
C      1  0.4186000000000  0.4639630000000  0.4519380000000 1.0
C      1  0.4197320000000  0.5670030000000  0.4319900000000 1.0
C      1  0.4968840000000  0.4285070000000  0.5410790000000 1.0
C      1  0.5002670000000  0.3817110000000  0.4940180000000 1.0
C      1  0.5410000000000  0.4364300000000  0.4399710000000 1.0
C      1  0.5289440000000  0.3788910000000  0.4945200000000 1.0
C      1  0.4514600000000  0.4794990000000  0.3966300000000 1.0
C      1  0.4950380000000  0.3823270000000  0.5472650000000 1.0
C      1  0.4651820000000  0.4556930000000  0.5179200000000 1.0
C      1  0.5786320000000  0.5163150000000  0.4276920000000 1.0
C      1  0.4952870000000  0.5460030000000  0.4034570000000 1.0
C      1  0.4261110000000  0.4815330000000  0.5458720000000 1.0
C      1  0.4254970000000  0.4929110000000  0.4383630000000 1.0
C      1  0.5285620000000  0.5909690000000  0.4518990000000 1.0
C      1  0.5519060000000  0.5292250000000  0.4317120000000 1.0
C      1  0.4953470000000  0.5546830000000  0.5733330000000 1.0
C      1  0.5357020000000  0.4104310000000  0.5663750000000 1.0
C      1  0.4980350000000  0.5602570000000  0.4447110000000 1.0
C      1  0.4637850000000  0.4870910000000  0.6044300000000 1.0
C      1  0.4973810000000  0.4156690000000  0.4261150000000 1.0
C      1  0.5358240000000  0.4773030000000  0.6089280000000 1.0
C      1  0.4625770000000  0.3841440000000  0.5259020000000 1.0
C      1  0.4894030000000  0.4732470000000  0.6051120000000 1.0
C      1  0.4522790000000  0.4381710000000  0.4257360000000 1.0
C      1  0.4114750000000  0.5189810000000  0.4438490000000 1.0
C      1  0.5603900000000  0.4103900000000  0.4949310000000 1.0
C      1  0.5114840000000  0.4937090000000  0.6076840000000 1.0
C      1  0.5105100000000  0.5652870000000  0.5306940000000 1.0
C      1  0.5163080000000  0.4314130000000  0.5100310000000 1.0
C      1  0.4995540000000  0.4487930000000  0.5879160000000 1.0
C      1  0.5155950000000  0.5740020000000  0.5611360000000 1.0
C      1  0.4574150000000  0.6123040000000  0.4752960000000 1.0
C      1  0.5648420000000  0.4352990000000  0.4813200000000 1.0
C      1  0.5108020000000  0.5278340000000  0.5661710000000 1.0
C      1  0.4018270000000  0.4796400000000  0.4947780000000 1.0
C      1  0.4555340000000  0.5476410000000  0.5108160000000 1.0
C      1  0.5845920000000  0.5315700000000  0.5578930000000 1.0
C      1  0.4970200000000  0.4620910000000  0.5117060000000 1.0
C      1  0.4754600000000  0.5980220000000  0.5270560000000 1.0
C      1  0.4490760000000  0.4455630000000  0.4917080000000 1.0
C      1  0.4695220000000  0.5593630000000  0.5577120000000 1.0
C      1  0.5306320000000  0.5391480000000  0.5221540000000 1.0
C      1  0.4339710000000  0.4196620000000  0.4993180000000 1.0
C      1  0.4499630000000  0.4092260000000  0.5240110000000 1.0
C      1  0.4061910000000  0.4271790000000  0.5074660000000 1.0
C      1  0.5430280000000  0.4650470000000  0.4573980000000 1.0
C      1  0.5831860000000  0.4311100000000  0.4583670000000 1.0
C      1  0.5966570000000  0.5436590000000  0.4647050000000 1.0
C      1  0.4260850000000  0.4675730000000  0.4807180000000 1.0
C      1  0.4687360000000  0.5136220000000  0.5918600000000 1.0
C      1  0.4417450000000  0.4736160000000  0.5908000000000 1.0
C      1  0.4696770000000  0.4172490000000  0.4308760000000 1.0
C      1  0.5296440000000  0.6097920000000  0.5371710000000 1.0
C      1  0.4545040000000  0.5559080000000  0.4631900000000 1.0
C      1  0.4841950000000  0.4946540000000  0.5464030000000 1.0
C      1  0.5573280000000  0.5986750000000  0.5371400000000 1.0
C      1  0.4882840000000  0.5875570000000  0.4329640000000 1.0
C      1  0.5447410000000  0.5431060000000  0.5895630000000 1.0
C      1  0.4604940000000  0.5910830000000  0.4327330000000 1.0
C      1  0.5976580000000  0.5073260000000  0.4970620000000 1.0
C      1  0.3994270000000  0.5251080000000  0.4700610000000 1.0
C      1  0.4953160000000  0.4517920000000  0.4689040000000 1.0
C      1  0.5471650000000  0.4323910000000  0.5843050000000 1.0
C      1  0.4233970000000  0.5890980000000  0.4988420000000 1.0
C      1  0.4866680000000  0.5361870000000  0.4304070000000 1.0
C      1  0.4382810000000  0.5253330000000  0.4050990000000 1.0
C      1  0.5479150000000  0.5983350000000  0.4727940000000 1.0
C      1  0.5044720000000  0.4067600000000  0.5619540000000 1.0
C      1  0.4670420000000  0.5286690000000  0.4535620000000 1.0
C      1  0.5835500000000  0.4993990000000  0.4704880000000 1.0
C      1  0.5751950000000  0.5620920000000  0.4562760000000 1.0
C      1  0.4072010000000  0.5513860000000  0.4822390000000 1.0
C      1  0.5588840000000  0.5581850000000  0.4316810000000 1.0
C      1  0.5017620000000  0.6036200000000  0.4534700000000 1.0
C      1  0.4543020000000  0.4826210000000  0.5299950000000 1.0
C      1  0.5057000000000  0.4739940000000  0.5389570000000 1.0
C      1  0.5502210000000  0.4557490000000  0.5232530000000 1.0
C      1  0.4935910000000  0.4585180000000  0.4042490000000 1.0
C      1  0.5064420000000  0.5019260000000  0.4710230000000 1.0
C      1  0.5668190000000  0.4390220000000  0.5416120000000 1.0
C      1  0.6001740000000  0.4659430000000  0.5245520000000 1.0
C      1  0.4707840000000  0.5212930000000  0.5063950000000 1.0
C      1  0.5959780000000  0.5177780000000  0.4510310000000 1.0
C      1  0.4857090000000  0.5232610000000  0.4785640000000 1.0
C      1  0.4958270000000  0.5488690000000  0.6028230000000 1.0
C      1  0.4776140000000  0.5677630000000  0.5298320000000 1.0
C      1  0.4663660000000  0.4633610000000  0.4172240000000 1.0
C      1  0.4454150000000  0.5427810000000  0.5574470000000 1.0
C      1  0.4338430000000  0.4372770000000  0.4490480000000 1.0
C      1  0.4654340000000  0.4306620000000  0.5388810000000 1.0
C      1  0.4519330000000  0.4994520000000  0.4531240000000 1.0
C      1  0.5559820000000  0.4783410000000  0.5696990000000 1.0
C      1  0.4150940000000  0.5720330000000  0.5208740000000 1.0
C      1  0.4308490000000  0.4966630000000  0.4087290000000 1.0
C      1  0.5191160000000  0.5905950000000  0.5157340000000 1.0
C      1  0.5761000000000  0.5876330000000  0.4695500000000 1.0
C      1  0.5717880000000  0.6035990000000  0.5131630000000 1.0
C      1  0.4657400000000  0.5253860000000  0.3931100000000 1.0
C      1  0.4990030000000  0.4861270000000  0.3922450000000 1.0
C      1  0.5944220000000  0.4404330000000  0.5323060000000 1.0
C      1  0.3950610000000  0.4735900000000  0.5230780000000 1.0
C      1  0.5964610000000  0.5081040000000  0.5466290000000 1.0
C      1  0.4047790000000  0.4462240000000  0.5311130000000 1.0
C      1  0.5814780000000  0.5551080000000  0.5404140000000 1.0
C      1  0.4900100000000  0.5172140000000  0.5286390000000 1.0
C      1  0.5200820000000  0.5314750000000  0.6038410000000 1.0
C      1  0.4781880000000  0.5685650000000  0.4774130000000 1.0
C      1  0.5688840000000  0.4287620000000  0.4329880000000 1.0
C      1  0.4893000000000  0.3882690000000  0.5199440000000 1.0
C      1  0.5716900000000  0.4887290000000  0.4215380000000 1.0
C      1  0.5363570000000  0.5237400000000  0.4608070000000 1.0
C      1  0.5582370000000  0.4992140000000  0.5464240000000 1.0
C      1  0.4856820000000  0.4207920000000  0.5839080000000 1.0
C      1  0.4325130000000  0.5451380000000  0.5302960000000 1.0
C      1  0.5210770000000  0.4400590000000  0.4785250000000 1.0
END
