TITL C-950530-3293-570 1.57502675591341e-08 125000 -453.292088041531 0 0 73 (C1) n - 1
REM
REM in /home/bkarasulu/work/CARBON/AIRSS/Generating-Clusters/EDIP-Nigel-Params/with-SteepDescent/Only-C1/SD-CG/HFTN-CG
REM
REM
REM
REM
REM
REM ./C.cell (11c1c37f851c82e70ff6c80c92926a4b)
REM
REM compiler GCC version 9.2.1 20190827 (Red Hat 9.2.1-1)
REM options -cpp -mtune=generic -march=x86-64 -g -O0 -fpre-include=/usr/include/finclude/math-vector-fortran.h
REM seed -207233511 668040107 1386834145 -1056294578 -917946112 1017561346 186092406 -1142557134 -2102583860 -938508086 -1689941934 1372991433 1497261936 -62359529 -278184205 332090713 1945203634 232676966 1407925147 -377451952 917369211 1126266124 1619652974 -1999397361 2087955378 983027340 128512974 -1042978856 1409272331 1388228202 -1728925287 -1667556270 1945036482
REM
CELL 1.54180   50.00000   50.00000   50.00000   90.00000   90.00000   90.00000
LATT -1
SFAC C  
C      1  0.4567890000000  0.5405450000000  0.4445950000000 1.0
C      1  0.5042170000000  0.5552530000000  0.4802850000000 1.0
C      1  0.5797060000000  0.4874610000000  0.4993930000000 1.0
C      1  0.4617010000000  0.5015280000000  0.5749620000000 1.0
C      1  0.4683410000000  0.5038530000000  0.5152500000000 1.0
C      1  0.5409730000000  0.4935630000000  0.4564330000000 1.0
C      1  0.5280180000000  0.5618780000000  0.4993630000000 1.0
C      1  0.4925840000000  0.5243250000000  0.5191790000000 1.0
C      1  0.4833820000000  0.4846490000000  0.5775410000000 1.0
C      1  0.4802760000000  0.4480560000000  0.4432770000000 1.0
C      1  0.5616940000000  0.4938810000000  0.5223580000000 1.0
C      1  0.5216940000000  0.5465240000000  0.5623340000000 1.0
C      1  0.5157330000000  0.5137860000000  0.5035340000000 1.0
C      1  0.5148650000000  0.4526730000000  0.5522530000000 1.0
C      1  0.5076600000000  0.5240210000000  0.4756750000000 1.0
C      1  0.4654960000000  0.4562370000000  0.5333790000000 1.0
C      1  0.4897610000000  0.5543470000000  0.5238110000000 1.0
C      1  0.4541040000000  0.5502330000000  0.4946920000000 1.0
C      1  0.4847700000000  0.5062950000000  0.4627690000000 1.0
C      1  0.5126040000000  0.4836740000000  0.5056830000000 1.0
C      1  0.5688240000000  0.4623650000000  0.4807430000000 1.0
C      1  0.4217500000000  0.5243110000000  0.4789990000000 1.0
C      1  0.4402500000000  0.5480540000000  0.4689170000000 1.0
C      1  0.4407080000000  0.5010180000000  0.5299700000000 1.0
C      1  0.5252660000000  0.4753970000000  0.4425700000000 1.0
C      1  0.5365100000000  0.4720730000000  0.5585560000000 1.0
C      1  0.4982800000000  0.4255540000000  0.5103080000000 1.0
C      1  0.4382300000000  0.4700420000000  0.5285980000000 1.0
C      1  0.5074310000000  0.5652910000000  0.4521520000000 1.0
C      1  0.4788010000000  0.5637890000000  0.4970730000000 1.0
C      1  0.5190040000000  0.4350820000000  0.5285130000000 1.0
C      1  0.4869690000000  0.4621460000000  0.5580150000000 1.0
C      1  0.5601500000000  0.4721080000000  0.5413560000000 1.0
C      1  0.4494640000000  0.5415730000000  0.5463890000000 1.0
C      1  0.5357250000000  0.5660220000000  0.4483380000000 1.0
C      1  0.4443830000000  0.5136640000000  0.5570560000000 1.0
C      1  0.5296470000000  0.5204010000000  0.4540170000000 1.0
C      1  0.5428680000000  0.4462440000000  0.4871130000000 1.0
C      1  0.4199190000000  0.5227340000000  0.5094790000000 1.0
C      1  0.4942990000000  0.5483940000000  0.5704300000000 1.0
C      1  0.5324880000000  0.5212530000000  0.5522790000000 1.0
C      1  0.5159210000000  0.5692740000000  0.5246980000000 1.0
C      1  0.5506420000000  0.5202500000000  0.5286130000000 1.0
C      1  0.5648770000000  0.5361700000000  0.4790910000000 1.0
C      1  0.5816680000000  0.5111870000000  0.4777810000000 1.0
C      1  0.5500970000000  0.5419940000000  0.4531860000000 1.0
C      1  0.4868500000000  0.4806730000000  0.5233040000000 1.0
C      1  0.4524560000000  0.4393790000000  0.4907350000000 1.0
C      1  0.4619470000000  0.4412970000000  0.4638380000000 1.0
C      1  0.5225140000000  0.4281340000000  0.4706350000000 1.0
C      1  0.5317200000000  0.5682690000000  0.5478130000000 1.0
C      1  0.5125110000000  0.4690460000000  0.4783570000000 1.0
C      1  0.4820800000000  0.4789750000000  0.4743800000000 1.0
C      1  0.4380490000000  0.5440690000000  0.5184130000000 1.0
C      1  0.5450870000000  0.4357200000000  0.5153830000000 1.0
C      1  0.5062090000000  0.4374370000000  0.4491300000000 1.0
C      1  0.4790050000000  0.4763470000000  0.4304660000000 1.0
C      1  0.5655810000000  0.4465810000000  0.5311780000000 1.0
C      1  0.5107350000000  0.5211740000000  0.4301720000000 1.0
C      1  0.4543720000000  0.4867170000000  0.4886380000000 1.0
C      1  0.5071000000000  0.4117390000000  0.4876140000000 1.0
C      1  0.4377710000000  0.5018420000000  0.4685760000000 1.0
C      1  0.4924970000000  0.5452950000000  0.4352970000000 1.0
C      1  0.5687600000000  0.4870690000000  0.4617940000000 1.0
C      1  0.4756050000000  0.5560200000000  0.5502890000000 1.0
C      1  0.4581000000000  0.5110180000000  0.4487890000000 1.0
C      1  0.4376790000000  0.4637790000000  0.4991820000000 1.0
C      1  0.5462970000000  0.5378700000000  0.5032450000000 1.0
C      1  0.5068580000000  0.4963980000000  0.5864800000000 1.0
C      1  0.4708980000000  0.4347210000000  0.5135110000000 1.0
C      1  0.5053230000000  0.4897270000000  0.4272060000000 1.0
C      1  0.5288970000000  0.4980300000000  0.5694590000000 1.0
C      1  0.4565660000000  0.4935000000000  0.4251140000000 1.0
END
