TITL C-951347-9520-298 5.1330962890224e-07 125000 -274.720481905596 0 0 46 (C1) n - 1
REM
REM in /home/bkarasulu/work/CARBON/AIRSS/Generating-Clusters/EDIP-Nigel-Params/with-SteepDescent/Only-C1/SD-CG/HFTN-CG
REM
REM
REM
REM
REM
REM ./C.cell (11c1c37f851c82e70ff6c80c92926a4b)
REM
REM compiler GCC version 9.2.1 20190827 (Red Hat 9.2.1-1)
REM options -cpp -mtune=generic -march=x86-64 -g -O0 -fpre-include=/usr/include/finclude/math-vector-fortran.h
REM seed -750947323 -347197908 -231685226 -1434967420 366751295 1634376730 455935135 -1170201928 -202203304 801476665 1863149597 1019797760 -988261050 -250786514 -79547996 365963573 576622315 -1656279369 -1869015091 -321159089 1432120031 -1548998623 1025609390 1680096772 1367942386 -344465547 -279628019 1617711972 -1439183138 -896051667 420238621 -22798505 41520492
REM
CELL 1.54180   50.00000   50.00000   50.00000   90.00000   90.00000   90.00000
LATT -1
SFAC C  
C      1  0.4683630000000  0.5397360000000  0.5250080000000 1.0
C      1  0.4563590000000  0.4587520000000  0.4672210000000 1.0
C      1  0.5194710000000  0.5291420000000  0.5288180000000 1.0
C      1  0.5433390000000  0.4628400000000  0.4518540000000 1.0
C      1  0.5461110000000  0.4840610000000  0.4840160000000 1.0
C      1  0.4458820000000  0.5332490000000  0.5421820000000 1.0
C      1  0.4817350000000  0.4563730000000  0.4544140000000 1.0
C      1  0.4652910000000  0.4784660000000  0.5117800000000 1.0
C      1  0.4900040000000  0.4963950000000  0.5044190000000 1.0
C      1  0.4998750000000  0.5700700000000  0.5136870000000 1.0
C      1  0.5163480000000  0.4800980000000  0.5305110000000 1.0
C      1  0.5261650000000  0.4508720000000  0.4767670000000 1.0
C      1  0.4348730000000  0.5100460000000  0.5338300000000 1.0
C      1  0.4920710000000  0.5051690000000  0.4722680000000 1.0
C      1  0.4977510000000  0.5614560000000  0.4868690000000 1.0
C      1  0.4725970000000  0.4720560000000  0.5401900000000 1.0
C      1  0.4675660000000  0.5179120000000  0.4588150000000 1.0
C      1  0.5604660000000  0.4822380000000  0.5096070000000 1.0
C      1  0.5040310000000  0.4360480000000  0.5179480000000 1.0
C      1  0.5430720000000  0.5614920000000  0.4757720000000 1.0
C      1  0.4473600000000  0.5264130000000  0.4777130000000 1.0
C      1  0.4578270000000  0.5080600000000  0.4359630000000 1.0
C      1  0.4589750000000  0.5413160000000  0.4980350000000 1.0
C      1  0.4905210000000  0.5172510000000  0.5279810000000 1.0
C      1  0.4991340000000  0.4801840000000  0.4567240000000 1.0
C      1  0.5248700000000  0.5575460000000  0.5222450000000 1.0
C      1  0.4392610000000  0.4936330000000  0.5118400000000 1.0
C      1  0.5414670000000  0.5147640000000  0.5419280000000 1.0
C      1  0.4984420000000  0.4574390000000  0.5393230000000 1.0
C      1  0.4823760000000  0.4987660000000  0.5516980000000 1.0
C      1  0.4789860000000  0.5655970000000  0.5319330000000 1.0
C      1  0.4994030000000  0.4375460000000  0.4690320000000 1.0
C      1  0.4623930000000  0.4539290000000  0.4943030000000 1.0
C      1  0.5233440000000  0.4818670000000  0.4402190000000 1.0
C      1  0.4844610000000  0.4341240000000  0.4949140000000 1.0
C      1  0.5357260000000  0.5079820000000  0.4481490000000 1.0
C      1  0.5314090000000  0.4421130000000  0.5058390000000 1.0
C      1  0.5171350000000  0.5213700000000  0.4673620000000 1.0
C      1  0.5449680000000  0.5628730000000  0.5030100000000 1.0
C      1  0.5177240000000  0.5502860000000  0.4703950000000 1.0
C      1  0.5596400000000  0.4963260000000  0.4608860000000 1.0
C      1  0.4320240000000  0.5050170000000  0.4874000000000 1.0
C      1  0.5415860000000  0.4640270000000  0.5230650000000 1.0
C      1  0.5321330000000  0.4954900000000  0.5611950000000 1.0
C      1  0.5051610000000  0.4939740000000  0.5677270000000 1.0
C      1  0.5623030000000  0.5056370000000  0.5251450000000 1.0
END
