TITL C-950533-5798-123 -4.47227390025713e-06 125000 -1190.87032830025 0 0 192 (C1) n - 1
REM
REM in /home/bkarasulu/work/CARBON/AIRSS/Generating-Clusters/EDIP-Nigel-Params/with-SteepDescent/Only-C1/SD-CG/HFTN-CG
REM
REM
REM
REM
REM
REM ./C.cell (11c1c37f851c82e70ff6c80c92926a4b)
REM
REM compiler GCC version 9.2.1 20190827 (Red Hat 9.2.1-1)
REM options -cpp -mtune=generic -march=x86-64 -g -O0 -fpre-include=/usr/include/finclude/math-vector-fortran.h
REM seed 1930250336 1762847025 -1358311902 -51824269 565885976 -759787224 -425507444 -1318070647 1535467076 1344427007 -738398711 -58088189 1523835399 -868317681 -1443029819 -2106633048 -1272466524 1993513699 791731006 1230119776 966989806 1956248890 -1625094045 -905684833 1361031950 -1487052892 1387832454 -1366992350 1470576520 -1276133308 1406914106 -1528403266 -2029649281
REM
CELL 1.54180   50.00000   50.00000   50.00000   90.00000   90.00000   90.00000
LATT -1
SFAC C  
C      1  0.5988970000000  0.4418110000000  0.4969550000000 1.0
C      1  0.4019800000000  0.5094840000000  0.4435700000000 1.0
C      1  0.4466410000000  0.4116640000000  0.4516440000000 1.0
C      1  0.4923800000000  0.5745040000000  0.5506260000000 1.0
C      1  0.4438870000000  0.5951880000000  0.5307160000000 1.0
C      1  0.5244560000000  0.4878830000000  0.4539250000000 1.0
C      1  0.4520660000000  0.4960900000000  0.4241820000000 1.0
C      1  0.4196610000000  0.4706840000000  0.5177810000000 1.0
C      1  0.5049790000000  0.5567910000000  0.5313350000000 1.0
C      1  0.5932420000000  0.5525100000000  0.4504630000000 1.0
C      1  0.4017900000000  0.4896940000000  0.5614070000000 1.0
C      1  0.5170690000000  0.4243040000000  0.4532650000000 1.0
C      1  0.6078440000000  0.4902010000000  0.4962610000000 1.0
C      1  0.4618180000000  0.5328500000000  0.5625890000000 1.0
C      1  0.5610810000000  0.4678350000000  0.4122480000000 1.0
C      1  0.4991470000000  0.3970690000000  0.4846490000000 1.0
C      1  0.5802260000000  0.5416720000000  0.4257300000000 1.0
C      1  0.4073130000000  0.5383580000000  0.5477340000000 1.0
C      1  0.4728960000000  0.4930610000000  0.6143660000000 1.0
C      1  0.5794610000000  0.5118190000000  0.4264930000000 1.0
C      1  0.4311810000000  0.3986610000000  0.4940430000000 1.0
C      1  0.5201700000000  0.4541320000000  0.3857450000000 1.0
C      1  0.5402660000000  0.4599420000000  0.4908090000000 1.0
C      1  0.3774840000000  0.5034520000000  0.4577060000000 1.0
C      1  0.4719000000000  0.4813990000000  0.4963130000000 1.0
C      1  0.4545850000000  0.4646320000000  0.4246300000000 1.0
C      1  0.4088500000000  0.4391020000000  0.4449000000000 1.0
C      1  0.4321320000000  0.4746780000000  0.4685320000000 1.0
C      1  0.5573730000000  0.5173340000000  0.4728810000000 1.0
C      1  0.4895430000000  0.5220780000000  0.5733770000000 1.0
C      1  0.5617450000000  0.5157730000000  0.5286070000000 1.0
C      1  0.5002690000000  0.4530130000000  0.5907850000000 1.0
C      1  0.5215140000000  0.4755660000000  0.6131550000000 1.0
C      1  0.4024480000000  0.4590740000000  0.5599570000000 1.0
C      1  0.5397780000000  0.4613020000000  0.4613480000000 1.0
C      1  0.6111610000000  0.5160810000000  0.5115550000000 1.0
C      1  0.5563460000000  0.5410480000000  0.4901150000000 1.0
C      1  0.4911830000000  0.4633630000000  0.3899370000000 1.0
C      1  0.5203570000000  0.6053580000000  0.5226630000000 1.0
C      1  0.4773040000000  0.4528150000000  0.4119530000000 1.0
C      1  0.4962690000000  0.4018640000000  0.4541180000000 1.0
C      1  0.4549470000000  0.5121090000000  0.5420190000000 1.0
C      1  0.5448950000000  0.4718550000000  0.5438420000000 1.0
C      1  0.4511170000000  0.5520800000000  0.4288930000000 1.0
C      1  0.5878310000000  0.5235650000000  0.5803270000000 1.0
C      1  0.5068450000000  0.4153680000000  0.5585380000000 1.0
C      1  0.5334640000000  0.5044820000000  0.4313990000000 1.0
C      1  0.6151980000000  0.5647410000000  0.4910500000000 1.0
C      1  0.5340960000000  0.5637800000000  0.5764220000000 1.0
C      1  0.5471170000000  0.4010440000000  0.4599160000000 1.0
C      1  0.4972260000000  0.4917360000000  0.3885240000000 1.0
C      1  0.5972360000000  0.5745110000000  0.4707420000000 1.0
C      1  0.5136030000000  0.6024420000000  0.4855100000000 1.0
C      1  0.6163410000000  0.5015180000000  0.5423930000000 1.0
C      1  0.4794400000000  0.4240420000000  0.4137310000000 1.0
C      1  0.5323630000000  0.5021820000000  0.6201900000000 1.0
C      1  0.3798310000000  0.4821710000000  0.4764480000000 1.0
C      1  0.4819910000000  0.4930710000000  0.5769400000000 1.0
C      1  0.4297930000000  0.4600200000000  0.4063170000000 1.0
C      1  0.5550000000000  0.4322290000000  0.5592630000000 1.0
C      1  0.5850400000000  0.5631670000000  0.5233300000000 1.0
C      1  0.5652660000000  0.5802560000000  0.5087860000000 1.0
C      1  0.4944090000000  0.6019200000000  0.5386250000000 1.0
C      1  0.5207440000000  0.5315820000000  0.4306500000000 1.0
C      1  0.4888900000000  0.4253070000000  0.4967230000000 1.0
C      1  0.4522180000000  0.5766860000000  0.4815180000000 1.0
C      1  0.4844260000000  0.4044540000000  0.5450590000000 1.0
C      1  0.5058150000000  0.5734490000000  0.5772410000000 1.0
C      1  0.5943890000000  0.4836110000000  0.4722100000000 1.0
C      1  0.5004310000000  0.5055980000000  0.5309980000000 1.0
C      1  0.6092960000000  0.4661810000000  0.5108410000000 1.0
C      1  0.4004100000000  0.5458500000000  0.4890720000000 1.0
C      1  0.4176620000000  0.5324920000000  0.4508410000000 1.0
C      1  0.3999130000000  0.4840780000000  0.4975710000000 1.0
C      1  0.5270990000000  0.4466390000000  0.5365910000000 1.0
C      1  0.4766720000000  0.5174810000000  0.5209430000000 1.0
C      1  0.4936170000000  0.5344190000000  0.6011200000000 1.0
C      1  0.4449790000000  0.5799370000000  0.5589820000000 1.0
C      1  0.4563520000000  0.5935050000000  0.4546730000000 1.0
C      1  0.4482050000000  0.3908280000000  0.5154390000000 1.0
C      1  0.5258650000000  0.4875770000000  0.3782280000000 1.0
C      1  0.4090940000000  0.4634160000000  0.4270740000000 1.0
C      1  0.4370850000000  0.4038860000000  0.5389320000000 1.0
C      1  0.3993250000000  0.5146510000000  0.4871990000000 1.0
C      1  0.4256290000000  0.4186920000000  0.4341900000000 1.0
C      1  0.4739530000000  0.4154710000000  0.4417740000000 1.0
C      1  0.5168360000000  0.5761830000000  0.4147880000000 1.0
C      1  0.4205510000000  0.4870670000000  0.4421400000000 1.0
C      1  0.4057520000000  0.4482630000000  0.5326260000000 1.0
C      1  0.4587570000000  0.4117630000000  0.5567420000000 1.0
C      1  0.4786100000000  0.3934750000000  0.5172430000000 1.0
C      1  0.4304560000000  0.5260250000000  0.5836940000000 1.0
C      1  0.4202380000000  0.4936950000000  0.5381330000000 1.0
C      1  0.5524230000000  0.5771380000000  0.5562910000000 1.0
C      1  0.3994250000000  0.5612830000000  0.5357880000000 1.0
C      1  0.5665730000000  0.4488090000000  0.4518820000000 1.0
C      1  0.4779370000000  0.6120520000000  0.4544000000000 1.0
C      1  0.5722030000000  0.5877090000000  0.4803090000000 1.0
C      1  0.5835780000000  0.5082630000000  0.4583550000000 1.0
C      1  0.5442070000000  0.4130180000000  0.5064400000000 1.0
C      1  0.5963100000000  0.4630180000000  0.5581910000000 1.0
C      1  0.5639200000000  0.5225590000000  0.5965580000000 1.0
C      1  0.4181470000000  0.4454770000000  0.4730100000000 1.0
C      1  0.4156270000000  0.5206870000000  0.5270100000000 1.0
C      1  0.4119070000000  0.5617770000000  0.5106120000000 1.0
C      1  0.4683920000000  0.5706530000000  0.4404640000000 1.0
C      1  0.4814330000000  0.4675060000000  0.4694780000000 1.0
C      1  0.4601100000000  0.4353090000000  0.4967760000000 1.0
C      1  0.5150770000000  0.5162610000000  0.5550390000000 1.0
C      1  0.5146810000000  0.4286200000000  0.5823670000000 1.0
C      1  0.5075200000000  0.5249200000000  0.4790650000000 1.0
C      1  0.4566330000000  0.5433080000000  0.4761000000000 1.0
C      1  0.4742170000000  0.5095070000000  0.3814400000000 1.0
C      1  0.5217700000000  0.5285280000000  0.6102820000000 1.0
C      1  0.6054140000000  0.5294420000000  0.4630050000000 1.0
C      1  0.4179380000000  0.4998060000000  0.5855520000000 1.0
C      1  0.4319230000000  0.4801570000000  0.3860970000000 1.0
C      1  0.5014730000000  0.5947820000000  0.4595840000000 1.0
C      1  0.5536230000000  0.4885970000000  0.5217790000000 1.0
C      1  0.5308040000000  0.4849360000000  0.5021790000000 1.0
C      1  0.4794080000000  0.5248010000000  0.4903400000000 1.0
C      1  0.5914670000000  0.5481290000000  0.5688270000000 1.0
C      1  0.5841220000000  0.5328350000000  0.5153380000000 1.0
C      1  0.5243870000000  0.5929080000000  0.4386480000000 1.0
C      1  0.4701980000000  0.5224750000000  0.6156460000000 1.0
C      1  0.4166840000000  0.4225130000000  0.5339260000000 1.0
C      1  0.4269700000000  0.4515020000000  0.5750470000000 1.0
C      1  0.4587800000000  0.4859590000000  0.5588540000000 1.0
C      1  0.5036050000000  0.4738130000000  0.5683060000000 1.0
C      1  0.5412620000000  0.4692770000000  0.5918670000000 1.0
C      1  0.5325440000000  0.4862830000000  0.5669090000000 1.0
C      1  0.5462160000000  0.4414350000000  0.4119680000000 1.0
C      1  0.4390810000000  0.4783970000000  0.5826140000000 1.0
C      1  0.5589130000000  0.4212880000000  0.4425660000000 1.0
C      1  0.4888230000000  0.5522590000000  0.4058830000000 1.0
C      1  0.5874890000000  0.4551060000000  0.4729690000000 1.0
C      1  0.5483680000000  0.5813630000000  0.4540400000000 1.0
C      1  0.5021390000000  0.4812380000000  0.5168340000000 1.0
C      1  0.5811850000000  0.4619160000000  0.4296680000000 1.0
C      1  0.4314680000000  0.5825010000000  0.5051700000000 1.0
C      1  0.4982830000000  0.5600860000000  0.5029930000000 1.0
C      1  0.5428160000000  0.5432550000000  0.5964900000000 1.0
C      1  0.5420470000000  0.4394280000000  0.5839120000000 1.0
C      1  0.5402660000000  0.5303710000000  0.5155560000000 1.0
C      1  0.5977150000000  0.5003450000000  0.5659990000000 1.0
C      1  0.5731980000000  0.4146830000000  0.5075160000000 1.0
C      1  0.4712410000000  0.6029690000000  0.5203560000000 1.0
C      1  0.4537130000000  0.4605950000000  0.5128810000000 1.0
C      1  0.6187870000000  0.5364480000000  0.4884980000000 1.0
C      1  0.4470930000000  0.5395950000000  0.6032690000000 1.0
C      1  0.5284400000000  0.4379760000000  0.5070290000000 1.0
C      1  0.5327850000000  0.5519250000000  0.4119290000000 1.0
C      1  0.4453090000000  0.4974520000000  0.4899410000000 1.0
C      1  0.4611340000000  0.5532280000000  0.5181430000000 1.0
C      1  0.5901380000000  0.4223730000000  0.5291470000000 1.0
C      1  0.4557660000000  0.4603510000000  0.4554110000000 1.0
C      1  0.4948240000000  0.5244250000000  0.4176580000000 1.0
C      1  0.4767940000000  0.5827730000000  0.4985300000000 1.0
C      1  0.5791890000000  0.5660770000000  0.5518590000000 1.0
C      1  0.4389150000000  0.4223740000000  0.4793120000000 1.0
C      1  0.5137080000000  0.5456980000000  0.4594830000000 1.0
C      1  0.5316640000000  0.3973130000000  0.4851890000000 1.0
C      1  0.4371940000000  0.5262230000000  0.5040760000000 1.0
C      1  0.5822390000000  0.4377980000000  0.5520380000000 1.0
C      1  0.5031790000000  0.4435390000000  0.4763370000000 1.0
C      1  0.6160330000000  0.4716320000000  0.5385070000000 1.0
C      1  0.5605120000000  0.5551930000000  0.4116680000000 1.0
C      1  0.5604590000000  0.5017690000000  0.6152720000000 1.0
C      1  0.5205640000000  0.4356880000000  0.4254780000000 1.0
C      1  0.5473650000000  0.5042270000000  0.3861940000000 1.0
C      1  0.4769610000000  0.5088430000000  0.4377940000000 1.0
C      1  0.4475890000000  0.5322110000000  0.4485320000000 1.0
C      1  0.4870050000000  0.5630070000000  0.5971150000000 1.0
C      1  0.4664020000000  0.4596740000000  0.5428840000000 1.0
C      1  0.4803460000000  0.5377960000000  0.3826530000000 1.0
C      1  0.4908570000000  0.5659660000000  0.4596930000000 1.0
C      1  0.5265860000000  0.5402630000000  0.5396970000000 1.0
C      1  0.4566270000000  0.4711380000000  0.6056540000000 1.0
C      1  0.5301450000000  0.5044510000000  0.4781370000000 1.0
C      1  0.4984830000000  0.4608560000000  0.5404840000000 1.0
C      1  0.4577060000000  0.5656010000000  0.5921010000000 1.0
C      1  0.4477440000000  0.5023280000000  0.3949690000000 1.0
C      1  0.5230670000000  0.5766420000000  0.4961670000000 1.0
C      1  0.4942730000000  0.4870960000000  0.4518150000000 1.0
C      1  0.5463300000000  0.5907410000000  0.5301060000000 1.0
C      1  0.5074850000000  0.4218680000000  0.4039200000000 1.0
C      1  0.4562070000000  0.4398810000000  0.5664610000000 1.0
C      1  0.4057140000000  0.5550040000000  0.4630780000000 1.0
C      1  0.5370160000000  0.5611440000000  0.4739800000000 1.0
C      1  0.4709740000000  0.4473810000000  0.5933890000000 1.0
C      1  0.5554860000000  0.4974340000000  0.4131620000000 1.0
C      1  0.4642430000000  0.5600550000000  0.5485600000000 1.0
END
