TITL C-950526-5686-325 -3.20767771728334e-06 125000 -1111.98201055029 0 0 177 (C1) n - 1
REM
REM in /home/bkarasulu/work/CARBON/AIRSS/Generating-Clusters/EDIP-Nigel-Params/with-SteepDescent/Only-C1/SD-CG/HFTN-CG
REM
REM
REM
REM
REM
REM ./C.cell (11c1c37f851c82e70ff6c80c92926a4b)
REM
REM compiler GCC version 9.2.1 20190827 (Red Hat 9.2.1-1)
REM options -cpp -mtune=generic -march=x86-64 -g -O0 -fpre-include=/usr/include/finclude/math-vector-fortran.h
REM seed -5443135 -189666900 -1703559770 959275065 -831083167 1052528257 -634369290 1572729472 -1949216385 935017352 -1418986376 -1359257068 -262150612 -1995617589 -2089764971 513372792 2083747206 -390458485 -455919460 -774786793 -905890126 -252857090 1855224180 -997130713 782262226 2092995149 -64355339 -1191315132 1137953371 877461700 -59810501 620538699 -750435807
REM
CELL 1.54180   50.00000   50.00000   50.00000   90.00000   90.00000   90.00000
LATT -1
SFAC C  
C      1  0.4488370000000  0.5351220000000  0.5443500000000 1.0
C      1  0.4980350000000  0.5235280000000  0.5377710000000 1.0
C      1  0.4813170000000  0.5967590000000  0.5167060000000 1.0
C      1  0.4933990000000  0.4764090000000  0.5710890000000 1.0
C      1  0.5934430000000  0.5668870000000  0.5214440000000 1.0
C      1  0.4682160000000  0.3860950000000  0.5117360000000 1.0
C      1  0.5872260000000  0.4803970000000  0.5320840000000 1.0
C      1  0.5048050000000  0.5858260000000  0.4620590000000 1.0
C      1  0.4238610000000  0.4842240000000  0.4084240000000 1.0
C      1  0.6071390000000  0.4748910000000  0.4566630000000 1.0
C      1  0.5013590000000  0.4473550000000  0.5711970000000 1.0
C      1  0.5313010000000  0.4807970000000  0.4352950000000 1.0
C      1  0.4643850000000  0.4053510000000  0.4250400000000 1.0
C      1  0.5158090000000  0.3783860000000  0.5172430000000 1.0
C      1  0.5879340000000  0.5136470000000  0.4362840000000 1.0
C      1  0.4586000000000  0.4471210000000  0.5116400000000 1.0
C      1  0.4928230000000  0.3898980000000  0.5280250000000 1.0
C      1  0.4832110000000  0.5655830000000  0.5142110000000 1.0
C      1  0.5068050000000  0.5327840000000  0.4581040000000 1.0
C      1  0.6115710000000  0.5174840000000  0.5096370000000 1.0
C      1  0.5275040000000  0.6004580000000  0.5375590000000 1.0
C      1  0.4589940000000  0.5276120000000  0.5733860000000 1.0
C      1  0.4301050000000  0.5134630000000  0.4067630000000 1.0
C      1  0.4700670000000  0.5773270000000  0.5595350000000 1.0
C      1  0.4852140000000  0.4743400000000  0.4552860000000 1.0
C      1  0.4051630000000  0.5109140000000  0.4725640000000 1.0
C      1  0.4225530000000  0.5624090000000  0.5658220000000 1.0
C      1  0.4623180000000  0.5994680000000  0.5398870000000 1.0
C      1  0.6084770000000  0.4905120000000  0.5167860000000 1.0
C      1  0.5789280000000  0.4960240000000  0.5559090000000 1.0
C      1  0.4802900000000  0.4259490000000  0.5621770000000 1.0
C      1  0.5116580000000  0.4431510000000  0.4709300000000 1.0
C      1  0.5147130000000  0.5179310000000  0.5628320000000 1.0
C      1  0.4298650000000  0.4744280000000  0.4514370000000 1.0
C      1  0.3946730000000  0.4734850000000  0.5013660000000 1.0
C      1  0.5228970000000  0.4688540000000  0.4091430000000 1.0
C      1  0.4382710000000  0.6024070000000  0.4955990000000 1.0
C      1  0.5374840000000  0.4566280000000  0.4845510000000 1.0
C      1  0.5442260000000  0.5610040000000  0.5555650000000 1.0
C      1  0.4362860000000  0.5922980000000  0.5251530000000 1.0
C      1  0.5668350000000  0.4760550000000  0.5751870000000 1.0
C      1  0.4074610000000  0.5397320000000  0.5591100000000 1.0
C      1  0.5074980000000  0.4282800000000  0.4180850000000 1.0
C      1  0.5577840000000  0.5210160000000  0.4942490000000 1.0
C      1  0.5382630000000  0.5467950000000  0.6117260000000 1.0
C      1  0.4558300000000  0.5265610000000  0.4986820000000 1.0
C      1  0.5087740000000  0.5104510000000  0.4114420000000 1.0
C      1  0.5064480000000  0.5137980000000  0.6007150000000 1.0
C      1  0.4554380000000  0.5479480000000  0.5939380000000 1.0
C      1  0.3977440000000  0.4798950000000  0.4203440000000 1.0
C      1  0.4973820000000  0.4508130000000  0.5141600000000 1.0
C      1  0.5418670000000  0.5309790000000  0.5654500000000 1.0
C      1  0.5182890000000  0.6211310000000  0.4960350000000 1.0
C      1  0.6070610000000  0.5238150000000  0.4815010000000 1.0
C      1  0.5198610000000  0.4883490000000  0.5616020000000 1.0
C      1  0.6024050000000  0.5389900000000  0.5292480000000 1.0
C      1  0.4942560000000  0.4557510000000  0.4110220000000 1.0
C      1  0.4741720000000  0.4800650000000  0.5505720000000 1.0
C      1  0.4486260000000  0.4696640000000  0.4946020000000 1.0
C      1  0.4706500000000  0.5466260000000  0.4302370000000 1.0
C      1  0.5308730000000  0.5095780000000  0.4970410000000 1.0
C      1  0.4007160000000  0.4700410000000  0.4470600000000 1.0
C      1  0.5629480000000  0.5385510000000  0.4700470000000 1.0
C      1  0.6054780000000  0.5354600000000  0.5585800000000 1.0
C      1  0.4685260000000  0.4245700000000  0.4910530000000 1.0
C      1  0.5103670000000  0.5426230000000  0.6100140000000 1.0
C      1  0.4775910000000  0.5522070000000  0.5416150000000 1.0
C      1  0.4537020000000  0.4298130000000  0.5521410000000 1.0
C      1  0.5108820000000  0.5555350000000  0.5043690000000 1.0
C      1  0.5159200000000  0.5356100000000  0.4274080000000 1.0
C      1  0.5996900000000  0.5032400000000  0.4612430000000 1.0
C      1  0.5041270000000  0.3826420000000  0.4255200000000 1.0
C      1  0.4898420000000  0.4039960000000  0.4142040000000 1.0
C      1  0.4552130000000  0.4895470000000  0.6025220000000 1.0
C      1  0.4758380000000  0.5916380000000  0.4676180000000 1.0
C      1  0.5210560000000  0.3955310000000  0.4945680000000 1.0
C      1  0.5621260000000  0.5262250000000  0.4430780000000 1.0
C      1  0.4590610000000  0.4347580000000  0.4635520000000 1.0
C      1  0.5552570000000  0.4335010000000  0.4158360000000 1.0
C      1  0.5585970000000  0.5778000000000  0.4947320000000 1.0
C      1  0.4389060000000  0.5133580000000  0.5901700000000 1.0
C      1  0.5869470000000  0.4315850000000  0.4815440000000 1.0
C      1  0.5270420000000  0.4493420000000  0.5882450000000 1.0
C      1  0.5454320000000  0.5634220000000  0.4692370000000 1.0
C      1  0.6001620000000  0.4551440000000  0.4754300000000 1.0
C      1  0.4302650000000  0.5264360000000  0.4345270000000 1.0
C      1  0.5205430000000  0.4237810000000  0.4469650000000 1.0
C      1  0.4973930000000  0.5627970000000  0.5960750000000 1.0
C      1  0.5167420000000  0.5080270000000  0.4713390000000 1.0
C      1  0.3957360000000  0.5298410000000  0.4908390000000 1.0
C      1  0.3945020000000  0.4948850000000  0.5232610000000 1.0
C      1  0.5487660000000  0.5262970000000  0.5952020000000 1.0
C      1  0.4962550000000  0.5795620000000  0.5738040000000 1.0
C      1  0.4996550000000  0.4090810000000  0.5488920000000 1.0
C      1  0.4514920000000  0.5862500000000  0.4535860000000 1.0
C      1  0.5883100000000  0.5720180000000  0.4934680000000 1.0
C      1  0.4369020000000  0.4528170000000  0.4724050000000 1.0
C      1  0.6017470000000  0.5094420000000  0.5675520000000 1.0
C      1  0.5594880000000  0.4510810000000  0.4624160000000 1.0
C      1  0.5648880000000  0.5332280000000  0.5210220000000 1.0
C      1  0.4447600000000  0.4695540000000  0.4254150000000 1.0
C      1  0.5470840000000  0.5586830000000  0.5219530000000 1.0
C      1  0.5278870000000  0.4754920000000  0.5348760000000 1.0
C      1  0.3880560000000  0.5227510000000  0.5163610000000 1.0
C      1  0.5372470000000  0.4777810000000  0.3849190000000 1.0
C      1  0.4806750000000  0.5014810000000  0.4120750000000 1.0
C      1  0.4800070000000  0.4987020000000  0.5288630000000 1.0
C      1  0.4599590000000  0.5135780000000  0.4731150000000 1.0
C      1  0.4480610000000  0.4774300000000  0.5607960000000 1.0
C      1  0.5197640000000  0.6076980000000  0.4728700000000 1.0
C      1  0.5498630000000  0.4285890000000  0.4442940000000 1.0
C      1  0.5482980000000  0.4028760000000  0.4937420000000 1.0
C      1  0.4452240000000  0.4676960000000  0.5874060000000 1.0
C      1  0.4853500000000  0.4902530000000  0.5976270000000 1.0
C      1  0.5204670000000  0.5797920000000  0.5568500000000 1.0
C      1  0.4280480000000  0.4715270000000  0.5416060000000 1.0
C      1  0.4333480000000  0.4882270000000  0.5161680000000 1.0
C      1  0.5162740000000  0.3938880000000  0.4482000000000 1.0
C      1  0.4356050000000  0.4424200000000  0.5323270000000 1.0
C      1  0.5912690000000  0.5551600000000  0.5722340000000 1.0
C      1  0.4486260000000  0.5666520000000  0.4331060000000 1.0
C      1  0.5546760000000  0.5994610000000  0.5262240000000 1.0
C      1  0.5136340000000  0.5809340000000  0.4333530000000 1.0
C      1  0.4469450000000  0.5701060000000  0.5778840000000 1.0
C      1  0.4453250000000  0.3930390000000  0.4701540000000 1.0
C      1  0.3916960000000  0.4847000000000  0.4728550000000 1.0
C      1  0.4461780000000  0.4036970000000  0.5148790000000 1.0
C      1  0.5139690000000  0.4810490000000  0.4591160000000 1.0
C      1  0.5675690000000  0.4492300000000  0.5629880000000 1.0
C      1  0.5272460000000  0.4123110000000  0.5562470000000 1.0
C      1  0.4992540000000  0.4278870000000  0.4934030000000 1.0
C      1  0.5076380000000  0.6110200000000  0.5196390000000 1.0
C      1  0.4165800000000  0.4336300000000  0.4854040000000 1.0
C      1  0.5344540000000  0.5013190000000  0.6037140000000 1.0
C      1  0.4284700000000  0.5861810000000  0.4706860000000 1.0
C      1  0.4173270000000  0.5133600000000  0.5667350000000 1.0
C      1  0.5643990000000  0.4245930000000  0.4984910000000 1.0
C      1  0.4061080000000  0.4897210000000  0.5514020000000 1.0
C      1  0.4721280000000  0.4852590000000  0.4807560000000 1.0
C      1  0.4366820000000  0.5630190000000  0.5219100000000 1.0
C      1  0.5587360000000  0.5162150000000  0.5457970000000 1.0
C      1  0.4220690000000  0.5561240000000  0.4382590000000 1.0
C      1  0.5765630000000  0.4527170000000  0.5348090000000 1.0
C      1  0.5425620000000  0.5710070000000  0.4386400000000 1.0
C      1  0.5384180000000  0.4785480000000  0.5843280000000 1.0
C      1  0.5151650000000  0.3802310000000  0.4717640000000 1.0
C      1  0.4902720000000  0.4814430000000  0.5054120000000 1.0
C      1  0.5315960000000  0.4271540000000  0.4014070000000 1.0
C      1  0.4980500000000  0.5586420000000  0.4196370000000 1.0
C      1  0.4685530000000  0.3815970000000  0.4834980000000 1.0
C      1  0.5707740000000  0.5728160000000  0.5648950000000 1.0
C      1  0.5895850000000  0.4924210000000  0.4166440000000 1.0
C      1  0.5340710000000  0.4811810000000  0.5063210000000 1.0
C      1  0.4055780000000  0.4471450000000  0.5080280000000 1.0
C      1  0.5454130000000  0.5437730000000  0.4260190000000 1.0
C      1  0.4570760000000  0.5549870000000  0.5023560000000 1.0
C      1  0.5239210000000  0.5017760000000  0.3882730000000 1.0
C      1  0.4772960000000  0.5324880000000  0.4563870000000 1.0
C      1  0.5979660000000  0.5510180000000  0.4750960000000 1.0
C      1  0.5586250000000  0.4734640000000  0.4417870000000 1.0
C      1  0.4753290000000  0.4749160000000  0.4259600000000 1.0
C      1  0.5776490000000  0.5854130000000  0.5392690000000 1.0
C      1  0.4677490000000  0.6058120000000  0.4917730000000 1.0
C      1  0.4320210000000  0.5072280000000  0.4587900000000 1.0
C      1  0.4609730000000  0.5237700000000  0.4109510000000 1.0
C      1  0.5429550000000  0.4323580000000  0.5704600000000 1.0
C      1  0.5534710000000  0.4435900000000  0.5180840000000 1.0
C      1  0.5155810000000  0.5583590000000  0.4747120000000 1.0
C      1  0.4491570000000  0.4124480000000  0.4473840000000 1.0
C      1  0.6006620000000  0.4689930000000  0.4289010000000 1.0
C      1  0.4283050000000  0.4058870000000  0.4917850000000 1.0
C      1  0.5157370000000  0.5288410000000  0.5148330000000 1.0
C      1  0.4079220000000  0.5702270000000  0.4590580000000 1.0
C      1  0.3909550000000  0.5408530000000  0.5369860000000 1.0
C      1  0.5656420000000  0.4619990000000  0.4144650000000 1.0
C      1  0.4528010000000  0.5114330000000  0.5231080000000 1.0
C      1  0.5192640000000  0.4472000000000  0.5361420000000 1.0
END
