TITL C-951342-2639-697 3.20496186369392e-07 125000 -108.579342187753 0 0 20 (C1) n - 1
REM
REM in /home/bkarasulu/work/CARBON/AIRSS/Generating-Clusters/EDIP-Nigel-Params/with-SteepDescent/Only-C1/SD-CG/HFTN-CG
REM
REM
REM
REM
REM
REM ./C.cell (11c1c37f851c82e70ff6c80c92926a4b)
REM
REM compiler GCC version 9.2.1 20190827 (Red Hat 9.2.1-1)
REM options -cpp -mtune=generic -march=x86-64 -g -O0 -fpre-include=/usr/include/finclude/math-vector-fortran.h
REM seed 1829140132 1964565517 -849813219 1096326975 -390217085 -456389735 -1772982978 -1142186570 1234749246 -190604713 -1708891389 1333041089 -1325032726 1992927010 -888184956 760940534 -2008417963 1279905959 1808431904 -371467591 -1938612953 1329139561 519549675 272330274 -1887166949 196278259 -1801112305 -159289784 -463043769 1596770016 483568839 -338873833 -1397571060
REM
CELL 1.54180   50.00000   50.00000   50.00000   90.00000   90.00000   90.00000
LATT -1
SFAC C  
C      1  0.5060300000000  0.4784810000000  0.4896730000000 1.0
C      1  0.4631840000000  0.4563730000000  0.4916120000000 1.0
C      1  0.5584700000000  0.5563100000000  0.5230650000000 1.0
C      1  0.4653340000000  0.5031080000000  0.4993390000000 1.0
C      1  0.4180720000000  0.3924780000000  0.4864240000000 1.0
C      1  0.4328670000000  0.4132610000000  0.4881730000000 1.0
C      1  0.5200210000000  0.5520080000000  0.4930750000000 1.0
C      1  0.5097770000000  0.5268250000000  0.4983580000000 1.0
C      1  0.5721300000000  0.5112160000000  0.4958630000000 1.0
C      1  0.4538150000000  0.5438760000000  0.5230600000000 1.0
C      1  0.5215450000000  0.5023480000000  0.4900430000000 1.0
C      1  0.4477430000000  0.4349990000000  0.4896990000000 1.0
C      1  0.5308560000000  0.5518840000000  0.5184750000000 1.0
C      1  0.5175230000000  0.4556760000000  0.4829400000000 1.0
C      1  0.5489110000000  0.5008090000000  0.4882490000000 1.0
C      1  0.4777570000000  0.4795380000000  0.4925900000000 1.0
C      1  0.5748560000000  0.5380050000000  0.5360680000000 1.0
C      1  0.4469150000000  0.5225330000000  0.5057280000000 1.0
C      1  0.4503790000000  0.5492340000000  0.4968640000000 1.0
C      1  0.5838150000000  0.5310380000000  0.5107000000000 1.0
END
