TITL C-951342-2639-245 -3.5817995994379e-06 125000 -1153.8168831533 0 0 184 (C1) n - 1
REM
REM in /home/bkarasulu/work/CARBON/AIRSS/Generating-Clusters/EDIP-Nigel-Params/with-SteepDescent/Only-C1/SD-CG/HFTN-CG
REM
REM
REM
REM
REM
REM ./C.cell (11c1c37f851c82e70ff6c80c92926a4b)
REM
REM compiler GCC version 9.2.1 20190827 (Red Hat 9.2.1-1)
REM options -cpp -mtune=generic -march=x86-64 -g -O0 -fpre-include=/usr/include/finclude/math-vector-fortran.h
REM seed -264602850 1235344931 -798508279 -412803830 1074934364 -1567900023 -1549756943 -19277201 552200075 -947263228 2105266231 1737478280 1984932329 -958035110 -1604313739 -1821074538 780148219 -1317227352 1393708204 -739198266 -236986317 1075995856 -114481939 1751962923 1684451905 1878680894 -672126781 1891237211 -1481573120 -139526918 1978453162 -97328740 1264979271
REM
CELL 1.54180   50.00000   50.00000   50.00000   90.00000   90.00000   90.00000
LATT -1
SFAC C  
C      1  0.5338210000000  0.5695100000000  0.4104290000000 1.0
C      1  0.5320530000000  0.5560760000000  0.5871790000000 1.0
C      1  0.4382190000000  0.4001630000000  0.5029140000000 1.0
C      1  0.4926390000000  0.4134610000000  0.4450300000000 1.0
C      1  0.4872140000000  0.4870620000000  0.6176010000000 1.0
C      1  0.4505870000000  0.5443200000000  0.4926850000000 1.0
C      1  0.4695630000000  0.4025970000000  0.4623350000000 1.0
C      1  0.5300610000000  0.4749760000000  0.4333630000000 1.0
C      1  0.5264190000000  0.4740690000000  0.5008680000000 1.0
C      1  0.6126400000000  0.4882390000000  0.5293050000000 1.0
C      1  0.4836210000000  0.5048460000000  0.4894420000000 1.0
C      1  0.5614780000000  0.4517820000000  0.4856090000000 1.0
C      1  0.4702680000000  0.5036480000000  0.5689770000000 1.0
C      1  0.5501160000000  0.4619510000000  0.5780470000000 1.0
C      1  0.4821520000000  0.5392120000000  0.4524500000000 1.0
C      1  0.4776750000000  0.4481870000000  0.5961630000000 1.0
C      1  0.4989780000000  0.5101690000000  0.5770270000000 1.0
C      1  0.4946040000000  0.4595150000000  0.5424510000000 1.0
C      1  0.5168210000000  0.5748690000000  0.5065560000000 1.0
C      1  0.5480940000000  0.5235730000000  0.4256230000000 1.0
C      1  0.4092070000000  0.5576840000000  0.4855140000000 1.0
C      1  0.4070620000000  0.4389220000000  0.4713780000000 1.0
C      1  0.5274810000000  0.5796470000000  0.5726940000000 1.0
C      1  0.4493350000000  0.4241130000000  0.4608380000000 1.0
C      1  0.4911340000000  0.6124400000000  0.5141300000000 1.0
C      1  0.5027090000000  0.5955570000000  0.4914460000000 1.0
C      1  0.4566350000000  0.5992440000000  0.4694170000000 1.0
C      1  0.4403590000000  0.5119590000000  0.4583380000000 1.0
C      1  0.5682490000000  0.5268420000000  0.4033790000000 1.0
C      1  0.4524050000000  0.5430910000000  0.5226200000000 1.0
C      1  0.4869520000000  0.5127890000000  0.5243320000000 1.0
C      1  0.4302100000000  0.5073770000000  0.5965380000000 1.0
C      1  0.4625180000000  0.5387570000000  0.3989530000000 1.0
C      1  0.4168200000000  0.5488010000000  0.5445810000000 1.0
C      1  0.5846160000000  0.4801320000000  0.5328060000000 1.0
C      1  0.5560330000000  0.4994410000000  0.4710220000000 1.0
C      1  0.5220980000000  0.5950550000000  0.4478800000000 1.0
C      1  0.4913780000000  0.5162030000000  0.6064790000000 1.0
C      1  0.5150300000000  0.3908430000000  0.5402670000000 1.0
C      1  0.4285820000000  0.5738170000000  0.5337010000000 1.0
C      1  0.5304980000000  0.5069040000000  0.5828350000000 1.0
C      1  0.5200110000000  0.4354830000000  0.4111090000000 1.0
C      1  0.4102180000000  0.4885590000000  0.4289710000000 1.0
C      1  0.5200040000000  0.4038610000000  0.4468060000000 1.0
C      1  0.4905510000000  0.4561530000000  0.4744110000000 1.0
C      1  0.6052740000000  0.5498190000000  0.4541930000000 1.0
C      1  0.4666940000000  0.3952370000000  0.4923330000000 1.0
C      1  0.4657310000000  0.4998510000000  0.5413290000000 1.0
C      1  0.5081090000000  0.4684240000000  0.6079760000000 1.0
C      1  0.4825120000000  0.4613200000000  0.3897000000000 1.0
C      1  0.4130160000000  0.5021050000000  0.5488220000000 1.0
C      1  0.4724540000000  0.4331380000000  0.5707220000000 1.0
C      1  0.4959240000000  0.4319980000000  0.5541290000000 1.0
C      1  0.5548990000000  0.5207300000000  0.5341850000000 1.0
C      1  0.3938210000000  0.5182860000000  0.4606940000000 1.0
C      1  0.5269410000000  0.6055620000000  0.4749470000000 1.0
C      1  0.4641710000000  0.5625380000000  0.4134690000000 1.0
C      1  0.5487900000000  0.4304480000000  0.5717520000000 1.0
C      1  0.5138960000000  0.5464520000000  0.5133260000000 1.0
C      1  0.5360170000000  0.5436150000000  0.5336490000000 1.0
C      1  0.4889370000000  0.5596910000000  0.4301820000000 1.0
C      1  0.5101630000000  0.5090680000000  0.4771040000000 1.0
C      1  0.5430890000000  0.5861530000000  0.5129810000000 1.0
C      1  0.5278440000000  0.3982830000000  0.5648490000000 1.0
C      1  0.5676850000000  0.5031580000000  0.5076530000000 1.0
C      1  0.4343670000000  0.4295700000000  0.5268960000000 1.0
C      1  0.5803460000000  0.4656390000000  0.5796170000000 1.0
C      1  0.4641670000000  0.4720800000000  0.6066970000000 1.0
C      1  0.5601710000000  0.4333020000000  0.4415990000000 1.0
C      1  0.4574700000000  0.4390110000000  0.5082040000000 1.0
C      1  0.4109830000000  0.5151790000000  0.5760020000000 1.0
C      1  0.4262080000000  0.4954130000000  0.4071690000000 1.0
C      1  0.4441140000000  0.5997160000000  0.4957650000000 1.0
C      1  0.4284110000000  0.5748610000000  0.5029370000000 1.0
C      1  0.5433790000000  0.5793890000000  0.4350510000000 1.0
C      1  0.4413100000000  0.5896590000000  0.4479870000000 1.0
C      1  0.5452980000000  0.4552960000000  0.5130640000000 1.0
C      1  0.5146800000000  0.4795110000000  0.5492360000000 1.0
C      1  0.4767690000000  0.5749610000000  0.5599390000000 1.0
C      1  0.4086310000000  0.5430060000000  0.4593400000000 1.0
C      1  0.4535780000000  0.4917020000000  0.4041580000000 1.0
C      1  0.4721860000000  0.5126100000000  0.3995150000000 1.0
C      1  0.4948240000000  0.5848190000000  0.4454070000000 1.0
C      1  0.4828710000000  0.5423320000000  0.5309900000000 1.0
C      1  0.5896120000000  0.5437230000000  0.4099050000000 1.0
C      1  0.5925580000000  0.4893300000000  0.5877560000000 1.0
C      1  0.4943690000000  0.4386030000000  0.4273530000000 1.0
C      1  0.4113670000000  0.4679930000000  0.4747800000000 1.0
C      1  0.5840660000000  0.4879820000000  0.4172550000000 1.0
C      1  0.5387090000000  0.6072820000000  0.5346130000000 1.0
C      1  0.5558710000000  0.5656600000000  0.5321760000000 1.0
C      1  0.3884550000000  0.5098940000000  0.5339150000000 1.0
C      1  0.4715710000000  0.5104620000000  0.4554960000000 1.0
C      1  0.4992350000000  0.4662900000000  0.4443930000000 1.0
C      1  0.4275800000000  0.4833700000000  0.4522310000000 1.0
C      1  0.4303950000000  0.4231310000000  0.4840300000000 1.0
C      1  0.5281280000000  0.4847290000000  0.4725640000000 1.0
C      1  0.6059460000000  0.5205990000000  0.4967550000000 1.0
C      1  0.4628650000000  0.6035760000000  0.5191800000000 1.0
C      1  0.6076110000000  0.4470140000000  0.5060020000000 1.0
C      1  0.6135580000000  0.5178230000000  0.5248770000000 1.0
C      1  0.5201200000000  0.5246190000000  0.4128470000000 1.0
C      1  0.4452040000000  0.4243990000000  0.5576080000000 1.0
C      1  0.5908310000000  0.5617700000000  0.4747590000000 1.0
C      1  0.5054140000000  0.4305680000000  0.4905030000000 1.0
C      1  0.4458960000000  0.4480300000000  0.4201920000000 1.0
C      1  0.5657960000000  0.4352440000000  0.5454730000000 1.0
C      1  0.5764840000000  0.5014980000000  0.3940240000000 1.0
C      1  0.4719110000000  0.4417090000000  0.4072740000000 1.0
C      1  0.4389080000000  0.5122170000000  0.5319590000000 1.0
C      1  0.5977510000000  0.5038370000000  0.4367730000000 1.0
C      1  0.4106500000000  0.4781330000000  0.5032180000000 1.0
C      1  0.5821100000000  0.5539620000000  0.5232220000000 1.0
C      1  0.4706000000000  0.5383750000000  0.5964390000000 1.0
C      1  0.4935270000000  0.4104460000000  0.5336220000000 1.0
C      1  0.5136890000000  0.5290350000000  0.6204270000000 1.0
C      1  0.5000270000000  0.5051040000000  0.4036540000000 1.0
C      1  0.4829200000000  0.4764930000000  0.4942380000000 1.0
C      1  0.5287770000000  0.4193680000000  0.4706140000000 1.0
C      1  0.4289160000000  0.5433430000000  0.4395830000000 1.0
C      1  0.5839260000000  0.5417820000000  0.4955550000000 1.0
C      1  0.6172180000000  0.4736550000000  0.5036490000000 1.0
C      1  0.5536330000000  0.5955850000000  0.4854850000000 1.0
C      1  0.4621730000000  0.4500070000000  0.4654360000000 1.0
C      1  0.5188050000000  0.4242280000000  0.5722820000000 1.0
C      1  0.6044190000000  0.4934120000000  0.4859230000000 1.0
C      1  0.6077740000000  0.4910400000000  0.4588440000000 1.0
C      1  0.4764600000000  0.5475850000000  0.5688550000000 1.0
C      1  0.4567950000000  0.5832880000000  0.5398720000000 1.0
C      1  0.4598020000000  0.4690880000000  0.5095040000000 1.0
C      1  0.5119920000000  0.5520790000000  0.4122340000000 1.0
C      1  0.5496370000000  0.5916710000000  0.5582200000000 1.0
C      1  0.4366100000000  0.4948130000000  0.5064250000000 1.0
C      1  0.5746080000000  0.4230960000000  0.4779010000000 1.0
C      1  0.5520110000000  0.5446680000000  0.4494410000000 1.0
C      1  0.5670830000000  0.5768600000000  0.4660630000000 1.0
C      1  0.5541500000000  0.5044820000000  0.5600380000000 1.0
C      1  0.4755680000000  0.4867010000000  0.4351330000000 1.0
C      1  0.5521430000000  0.5298690000000  0.4771460000000 1.0
C      1  0.5327410000000  0.3820310000000  0.5206610000000 1.0
C      1  0.4816610000000  0.5834750000000  0.4719580000000 1.0
C      1  0.5944680000000  0.5334160000000  0.5687250000000 1.0
C      1  0.5086080000000  0.6094860000000  0.5395730000000 1.0
C      1  0.4381100000000  0.4665600000000  0.5653800000000 1.0
C      1  0.3930900000000  0.5385160000000  0.5298270000000 1.0
C      1  0.5442040000000  0.4731090000000  0.5478120000000 1.0
C      1  0.3806570000000  0.5179330000000  0.4872650000000 1.0
C      1  0.4410440000000  0.5166420000000  0.4866670000000 1.0
C      1  0.3858340000000  0.4961140000000  0.5077260000000 1.0
C      1  0.5328470000000  0.4795680000000  0.5972260000000 1.0
C      1  0.5427720000000  0.4462380000000  0.4615740000000 1.0
C      1  0.5958780000000  0.5350510000000  0.5408330000000 1.0
C      1  0.5236710000000  0.5327570000000  0.4868540000000 1.0
C      1  0.5388690000000  0.4183300000000  0.4271440000000 1.0
C      1  0.4330470000000  0.4257900000000  0.4352460000000 1.0
C      1  0.6009730000000  0.5325380000000  0.4328410000000 1.0
C      1  0.4403080000000  0.5679220000000  0.4301110000000 1.0
C      1  0.4180060000000  0.5430800000000  0.5731070000000 1.0
C      1  0.5514410000000  0.4044080000000  0.4834170000000 1.0
C      1  0.3892260000000  0.5430520000000  0.5010010000000 1.0
C      1  0.4816420000000  0.4177400000000  0.5063480000000 1.0
C      1  0.5853030000000  0.4568380000000  0.5511520000000 1.0
C      1  0.4142010000000  0.4559490000000  0.5254390000000 1.0
C      1  0.5803200000000  0.5098510000000  0.5740360000000 1.0
C      1  0.5270950000000  0.4314660000000  0.5135950000000 1.0
C      1  0.5541050000000  0.4959670000000  0.4385480000000 1.0
C      1  0.5328800000000  0.5314250000000  0.6003370000000 1.0
C      1  0.4294430000000  0.4401280000000  0.5760860000000 1.0
C      1  0.5718010000000  0.4152130000000  0.5250940000000 1.0
C      1  0.4500830000000  0.4877680000000  0.5854150000000 1.0
C      1  0.5455810000000  0.4068220000000  0.5120020000000 1.0
C      1  0.5052700000000  0.4776970000000  0.3948780000000 1.0
C      1  0.4067590000000  0.4316070000000  0.4438960000000 1.0
C      1  0.5331990000000  0.4997130000000  0.5136390000000 1.0
C      1  0.5287300000000  0.4634490000000  0.4059130000000 1.0
C      1  0.5034370000000  0.5860570000000  0.5570710000000 1.0
C      1  0.5911350000000  0.4239490000000  0.5033950000000 1.0
C      1  0.4523500000000  0.4669950000000  0.4431530000000 1.0
C      1  0.5133500000000  0.5052390000000  0.5354460000000 1.0
C      1  0.4753040000000  0.5539070000000  0.4769950000000 1.0
C      1  0.4664900000000  0.4699980000000  0.5387860000000 1.0
C      1  0.4419740000000  0.5342240000000  0.6011100000000 1.0
C      1  0.4148420000000  0.4728740000000  0.5497980000000 1.0
C      1  0.3881660000000  0.5037610000000  0.4371360000000 1.0
END
