TITL C-951343-2256-631 -4.82918926050202e-07 125000 -814.514634006173 0 0 132 (C1) n - 1
REM
REM in /home/bkarasulu/work/CARBON/AIRSS/Generating-Clusters/EDIP-Nigel-Params/with-SteepDescent/Only-C1/SD-CG/HFTN-CG
REM
REM
REM
REM
REM
REM ./C.cell (11c1c37f851c82e70ff6c80c92926a4b)
REM
REM compiler GCC version 9.2.1 20190827 (Red Hat 9.2.1-1)
REM options -cpp -mtune=generic -march=x86-64 -g -O0 -fpre-include=/usr/include/finclude/math-vector-fortran.h
REM seed 1708304906 -300608207 1789646664 190283108 918314243 -621186970 2071855953 -1790841730 835415462 533106173 -501736225 -1719094685 -377784182 -1841454831 -586546657 1507344750 -1544939609 1784864494 272227460 -1977862057 1862554808 2130936833 -126356921 -310810600 1643491133 -1201658009 -1852377897 51299696 385301720 -2046224608 1892481320 678609817 -796669148
REM
CELL 1.54180   50.00000   50.00000   50.00000   90.00000   90.00000   90.00000
LATT -1
SFAC C  
C      1  0.4080770000000  0.5406940000000  0.4978980000000 1.0
C      1  0.4378570000000  0.4992060000000  0.4208620000000 1.0
C      1  0.4874830000000  0.5552000000000  0.5169900000000 1.0
C      1  0.4734650000000  0.4439210000000  0.4830080000000 1.0
C      1  0.5821230000000  0.4657570000000  0.4394040000000 1.0
C      1  0.4910460000000  0.5391210000000  0.5425450000000 1.0
C      1  0.5699760000000  0.4652570000000  0.5486830000000 1.0
C      1  0.5933710000000  0.5110790000000  0.5624030000000 1.0
C      1  0.5219670000000  0.5354280000000  0.4135410000000 1.0
C      1  0.5189210000000  0.5241820000000  0.4611260000000 1.0
C      1  0.5102550000000  0.5630480000000  0.4191810000000 1.0
C      1  0.4548660000000  0.4203320000000  0.4892270000000 1.0
C      1  0.4969730000000  0.3996950000000  0.4989650000000 1.0
C      1  0.5730210000000  0.4921920000000  0.4434770000000 1.0
C      1  0.4546920000000  0.4535540000000  0.4116610000000 1.0
C      1  0.4182940000000  0.5184840000000  0.5465570000000 1.0
C      1  0.4564090000000  0.5069800000000  0.4442430000000 1.0
C      1  0.4414950000000  0.4470450000000  0.4390960000000 1.0
C      1  0.5317200000000  0.4796460000000  0.5218750000000 1.0
C      1  0.4965040000000  0.5108750000000  0.5319200000000 1.0
C      1  0.5126320000000  0.4659180000000  0.5037950000000 1.0
C      1  0.4833220000000  0.5186980000000  0.5935440000000 1.0
C      1  0.6017150000000  0.5510530000000  0.4986240000000 1.0
C      1  0.4621380000000  0.5402800000000  0.5526240000000 1.0
C      1  0.4579350000000  0.4309610000000  0.5590310000000 1.0
C      1  0.4901300000000  0.4903700000000  0.4102890000000 1.0
C      1  0.5440710000000  0.4064330000000  0.5232090000000 1.0
C      1  0.5509780000000  0.4300230000000  0.5089620000000 1.0
C      1  0.5329700000000  0.4761890000000  0.5869470000000 1.0
C      1  0.4714500000000  0.3960420000000  0.4844500000000 1.0
C      1  0.5609120000000  0.5219810000000  0.5350370000000 1.0
C      1  0.4977640000000  0.5201050000000  0.4045720000000 1.0
C      1  0.5877080000000  0.5368430000000  0.4532350000000 1.0
C      1  0.5378780000000  0.5244800000000  0.4363360000000 1.0
C      1  0.5801530000000  0.5377150000000  0.5540500000000 1.0
C      1  0.5364170000000  0.5776160000000  0.5294460000000 1.0
C      1  0.4666070000000  0.4174180000000  0.5359060000000 1.0
C      1  0.5202150000000  0.5248960000000  0.6049890000000 1.0
C      1  0.4822860000000  0.5536620000000  0.4129560000000 1.0
C      1  0.4758410000000  0.4999360000000  0.4833710000000 1.0
C      1  0.5416510000000  0.4389890000000  0.4483690000000 1.0
C      1  0.5566850000000  0.5729000000000  0.5085300000000 1.0
C      1  0.4162640000000  0.4884740000000  0.4400390000000 1.0
C      1  0.4947490000000  0.4132120000000  0.5248180000000 1.0
C      1  0.5048030000000  0.4592110000000  0.4000930000000 1.0
C      1  0.4106440000000  0.4919360000000  0.5340060000000 1.0
C      1  0.4078970000000  0.5110950000000  0.4591260000000 1.0
C      1  0.5790110000000  0.5554410000000  0.5139500000000 1.0
C      1  0.5654230000000  0.4949090000000  0.4729440000000 1.0
C      1  0.5718610000000  0.4899290000000  0.5635290000000 1.0
C      1  0.4414800000000  0.4553780000000  0.5213200000000 1.0
C      1  0.4670350000000  0.5251310000000  0.5008800000000 1.0
C      1  0.5201470000000  0.4026320000000  0.4792880000000 1.0
C      1  0.5044350000000  0.5506420000000  0.4704130000000 1.0
C      1  0.5896240000000  0.5028780000000  0.4883380000000 1.0
C      1  0.4455330000000  0.4843710000000  0.5635700000000 1.0
C      1  0.5369910000000  0.5659800000000  0.5580570000000 1.0
C      1  0.4161670000000  0.4598260000000  0.4478200000000 1.0
C      1  0.4347670000000  0.5110900000000  0.5721090000000 1.0
C      1  0.5007700000000  0.4384700000000  0.4627490000000 1.0
C      1  0.5482360000000  0.4970330000000  0.4291510000000 1.0
C      1  0.5232310000000  0.4663980000000  0.4770520000000 1.0
C      1  0.4259980000000  0.4687740000000  0.5453120000000 1.0
C      1  0.4735930000000  0.5599710000000  0.4614580000000 1.0
C      1  0.4531030000000  0.5176560000000  0.5288460000000 1.0
C      1  0.6135360000000  0.5026040000000  0.5437580000000 1.0
C      1  0.5272980000000  0.4400290000000  0.5497660000000 1.0
C      1  0.5061640000000  0.5443820000000  0.4984580000000 1.0
C      1  0.4744810000000  0.5941670000000  0.4899690000000 1.0
C      1  0.5599220000000  0.5492760000000  0.5729300000000 1.0
C      1  0.4944340000000  0.4379340000000  0.5830060000000 1.0
C      1  0.5032840000000  0.4979800000000  0.4665820000000 1.0
C      1  0.5533220000000  0.5445830000000  0.4730690000000 1.0
C      1  0.5386710000000  0.4261010000000  0.4809480000000 1.0
C      1  0.4418320000000  0.5330810000000  0.4334220000000 1.0
C      1  0.4185170000000  0.5377600000000  0.4515000000000 1.0
C      1  0.4535900000000  0.4883370000000  0.4682120000000 1.0
C      1  0.4520200000000  0.5685240000000  0.5514500000000 1.0
C      1  0.5672120000000  0.4507960000000  0.4581240000000 1.0
C      1  0.5094010000000  0.5172520000000  0.5053630000000 1.0
C      1  0.5028110000000  0.4076610000000  0.4554060000000 1.0
C      1  0.5537020000000  0.4944600000000  0.5853270000000 1.0
C      1  0.5560310000000  0.5266660000000  0.5015610000000 1.0
C      1  0.4611480000000  0.4599250000000  0.4584970000000 1.0
C      1  0.4138810000000  0.4918450000000  0.5052570000000 1.0
C      1  0.4619450000000  0.5703000000000  0.5056370000000 1.0
C      1  0.4249350000000  0.5522950000000  0.4764610000000 1.0
C      1  0.4711360000000  0.5885180000000  0.5530200000000 1.0
C      1  0.5476570000000  0.4545080000000  0.5322290000000 1.0
C      1  0.4197350000000  0.5448050000000  0.5248540000000 1.0
C      1  0.5350530000000  0.5036430000000  0.4963280000000 1.0
C      1  0.4650100000000  0.4899190000000  0.5407090000000 1.0
C      1  0.5352570000000  0.5183960000000  0.5535330000000 1.0
C      1  0.5302070000000  0.4737410000000  0.4345640000000 1.0
C      1  0.5020200000000  0.4527680000000  0.5585030000000 1.0
C      1  0.4596790000000  0.4825560000000  0.4075780000000 1.0
C      1  0.4869730000000  0.4889190000000  0.5871940000000 1.0
C      1  0.4668440000000  0.4427510000000  0.5826950000000 1.0
C      1  0.4382230000000  0.5686370000000  0.5263710000000 1.0
C      1  0.5855940000000  0.4977770000000  0.5171280000000 1.0
C      1  0.4450480000000  0.4245480000000  0.5169650000000 1.0
C      1  0.4574130000000  0.5290110000000  0.5796680000000 1.0
C      1  0.5016030000000  0.4824240000000  0.4393170000000 1.0
C      1  0.4869810000000  0.4564710000000  0.4423320000000 1.0
C      1  0.4831640000000  0.4443580000000  0.4144230000000 1.0
C      1  0.4302310000000  0.4704020000000  0.4933780000000 1.0
C      1  0.5945250000000  0.5308230000000  0.4804110000000 1.0
C      1  0.4620740000000  0.4720820000000  0.5854150000000 1.0
C      1  0.5542800000000  0.4676900000000  0.4791610000000 1.0
C      1  0.5480640000000  0.5725520000000  0.4800400000000 1.0
C      1  0.5117740000000  0.5914670000000  0.5213040000000 1.0
C      1  0.5099600000000  0.4791320000000  0.5701190000000 1.0
C      1  0.4548200000000  0.5501710000000  0.4838970000000 1.0
C      1  0.4716150000000  0.5890580000000  0.4627050000000 1.0
C      1  0.5177110000000  0.5809490000000  0.4408290000000 1.0
C      1  0.4785690000000  0.3929970000000  0.4571120000000 1.0
C      1  0.4740450000000  0.4609380000000  0.5324580000000 1.0
C      1  0.5197610000000  0.5777340000000  0.4702790000000 1.0
C      1  0.5297280000000  0.4528030000000  0.4142380000000 1.0
C      1  0.4026530000000  0.5127630000000  0.4885140000000 1.0
C      1  0.4635580000000  0.5531970000000  0.4344130000000 1.0
C      1  0.6064870000000  0.4807880000000  0.5282390000000 1.0
C      1  0.4843890000000  0.4623410000000  0.5050570000000 1.0
C      1  0.5182160000000  0.4956830000000  0.5453630000000 1.0
C      1  0.5616340000000  0.5430430000000  0.4426670000000 1.0
C      1  0.4130930000000  0.4553490000000  0.4756430000000 1.0
C      1  0.5212460000000  0.4143830000000  0.5380750000000 1.0
C      1  0.5461220000000  0.5231520000000  0.5905060000000 1.0
C      1  0.4929410000000  0.5978210000000  0.5407580000000 1.0
C      1  0.5040420000000  0.5948750000000  0.4927450000000 1.0
C      1  0.5160760000000  0.5431940000000  0.5607960000000 1.0
C      1  0.5049130000000  0.5402620000000  0.5879600000000 1.0
END
