TITL C-950529-3362-286 -2.46663955587856e-06 125000 -685.291547065411 0 0 111 (C1) n - 1
REM
REM in /home/bkarasulu/work/CARBON/AIRSS/Generating-Clusters/EDIP-Nigel-Params/with-SteepDescent/Only-C1/SD-CG/HFTN-CG
REM
REM
REM
REM
REM
REM ./C.cell (11c1c37f851c82e70ff6c80c92926a4b)
REM
REM compiler GCC version 9.2.1 20190827 (Red Hat 9.2.1-1)
REM options -cpp -mtune=generic -march=x86-64 -g -O0 -fpre-include=/usr/include/finclude/math-vector-fortran.h
REM seed -153619340 132606196 1441017285 1012958023 450446125 1132691080 2123943003 1547647285 4329759 -1724750702 -1534904081 -2043814862 -50478716 -198318045 -1359020509 -1282745052 1742036027 789721454 -629522206 -538734075 -154779132 344747034 902608944 1633845692 804850917 -228095249 135479274 1861483022 550904258 -1647822979 -1052365991 -1319706540 -481296835
REM
CELL 1.54180   50.00000   50.00000   50.00000   90.00000   90.00000   90.00000
LATT -1
SFAC C  
C      1  0.5245030000000  0.6026600000000  0.4857510000000 1.0
C      1  0.5937530000000  0.5238310000000  0.4878990000000 1.0
C      1  0.5419430000000  0.5085990000000  0.5861100000000 1.0
C      1  0.5139150000000  0.5076670000000  0.5965880000000 1.0
C      1  0.5389100000000  0.5455520000000  0.4432760000000 1.0
C      1  0.5148970000000  0.4378490000000  0.5577100000000 1.0
C      1  0.5271180000000  0.4660010000000  0.5169350000000 1.0
C      1  0.5286390000000  0.4633430000000  0.4225040000000 1.0
C      1  0.5368550000000  0.5104260000000  0.4103530000000 1.0
C      1  0.5215200000000  0.4801600000000  0.5529170000000 1.0
C      1  0.5652860000000  0.4344190000000  0.4998570000000 1.0
C      1  0.5007000000000  0.5027960000000  0.5476860000000 1.0
C      1  0.5208610000000  0.5486920000000  0.4861050000000 1.0
C      1  0.4429690000000  0.4260020000000  0.5046570000000 1.0
C      1  0.5400080000000  0.4390730000000  0.4304000000000 1.0
C      1  0.5386180000000  0.4318890000000  0.4572240000000 1.0
C      1  0.5049620000000  0.4029200000000  0.4738130000000 1.0
C      1  0.5582200000000  0.5159320000000  0.5407270000000 1.0
C      1  0.4858040000000  0.4712350000000  0.4935050000000 1.0
C      1  0.4886630000000  0.5452740000000  0.4851130000000 1.0
C      1  0.4520180000000  0.5305820000000  0.5689820000000 1.0
C      1  0.4104790000000  0.4984300000000  0.5260720000000 1.0
C      1  0.4861540000000  0.5112430000000  0.4084460000000 1.0
C      1  0.5395860000000  0.4436080000000  0.5357850000000 1.0
C      1  0.5452900000000  0.4851210000000  0.5696160000000 1.0
C      1  0.4754550000000  0.5832310000000  0.5374240000000 1.0
C      1  0.5265950000000  0.5521710000000  0.5612900000000 1.0
C      1  0.5121020000000  0.5072590000000  0.5197050000000 1.0
C      1  0.5728490000000  0.4666950000000  0.4594240000000 1.0
C      1  0.4141010000000  0.4398640000000  0.4659110000000 1.0
C      1  0.4703980000000  0.4906070000000  0.6004690000000 1.0
C      1  0.4617910000000  0.4712950000000  0.5091030000000 1.0
C      1  0.4976780000000  0.5215710000000  0.5761300000000 1.0
C      1  0.4839240000000  0.5783540000000  0.4944350000000 1.0
C      1  0.5504760000000  0.5827940000000  0.4668660000000 1.0
C      1  0.4731930000000  0.4659700000000  0.4670370000000 1.0
C      1  0.5680760000000  0.4550280000000  0.5430970000000 1.0
C      1  0.4189170000000  0.4351680000000  0.4926420000000 1.0
C      1  0.4539380000000  0.4995490000000  0.5134380000000 1.0
C      1  0.5704190000000  0.5427480000000  0.4905650000000 1.0
C      1  0.5302230000000  0.5632360000000  0.5132950000000 1.0
C      1  0.4393460000000  0.5478660000000  0.5234600000000 1.0
C      1  0.4975230000000  0.4812100000000  0.5972170000000 1.0
C      1  0.4455230000000  0.4437590000000  0.4318510000000 1.0
C      1  0.4682320000000  0.4264340000000  0.5464390000000 1.0
C      1  0.4854190000000  0.5564430000000  0.5454090000000 1.0
C      1  0.4256110000000  0.5191790000000  0.4821330000000 1.0
C      1  0.5098060000000  0.5015970000000  0.4672970000000 1.0
C      1  0.4272560000000  0.4515920000000  0.5411400000000 1.0
C      1  0.4591010000000  0.4102110000000  0.4608900000000 1.0
C      1  0.5145790000000  0.5490550000000  0.5345920000000 1.0
C      1  0.5010570000000  0.4658470000000  0.4325130000000 1.0
C      1  0.4158170000000  0.5259280000000  0.5375920000000 1.0
C      1  0.5632830000000  0.5578810000000  0.5167940000000 1.0
C      1  0.5218580000000  0.5924400000000  0.5128070000000 1.0
C      1  0.4996730000000  0.4644420000000  0.5700050000000 1.0
C      1  0.4243130000000  0.4790700000000  0.5460810000000 1.0
C      1  0.5391460000000  0.4992230000000  0.4737340000000 1.0
C      1  0.4956970000000  0.5995680000000  0.5241400000000 1.0
C      1  0.4548530000000  0.5864780000000  0.4950180000000 1.0
C      1  0.5597400000000  0.4919550000000  0.4511310000000 1.0
C      1  0.4625530000000  0.4116550000000  0.4887130000000 1.0
C      1  0.4668550000000  0.4278740000000  0.4405300000000 1.0
C      1  0.4962160000000  0.5329790000000  0.4236310000000 1.0
C      1  0.5389390000000  0.5166870000000  0.5171470000000 1.0
C      1  0.5068910000000  0.4501440000000  0.4996770000000 1.0
C      1  0.4230460000000  0.4830760000000  0.4493060000000 1.0
C      1  0.5737370000000  0.4821410000000  0.5047220000000 1.0
C      1  0.4783020000000  0.5368110000000  0.4483660000000 1.0
C      1  0.4624640000000  0.5019720000000  0.4198160000000 1.0
C      1  0.4417010000000  0.4653390000000  0.4846060000000 1.0
C      1  0.4507710000000  0.4956100000000  0.5442450000000 1.0
C      1  0.5060150000000  0.4160110000000  0.5180380000000 1.0
C      1  0.5691300000000  0.4820700000000  0.5544320000000 1.0
C      1  0.4465780000000  0.5662870000000  0.4753470000000 1.0
C      1  0.4893690000000  0.4036530000000  0.4968430000000 1.0
C      1  0.5677010000000  0.5425270000000  0.4460580000000 1.0
C      1  0.4393870000000  0.5427860000000  0.4925710000000 1.0
C      1  0.4758410000000  0.5190250000000  0.4976670000000 1.0
C      1  0.5599600000000  0.4440960000000  0.4720450000000 1.0
C      1  0.5460970000000  0.4877040000000  0.4238860000000 1.0
C      1  0.5801260000000  0.5155490000000  0.4534280000000 1.0
C      1  0.4444620000000  0.4312070000000  0.5328930000000 1.0
C      1  0.4485100000000  0.5790110000000  0.5231700000000 1.0
C      1  0.5807280000000  0.4551830000000  0.5161110000000 1.0
C      1  0.5014910000000  0.5515050000000  0.5765900000000 1.0
C      1  0.5459400000000  0.4786060000000  0.4957460000000 1.0
C      1  0.5908020000000  0.4955960000000  0.4853480000000 1.0
C      1  0.5435770000000  0.4212700000000  0.5159940000000 1.0
C      1  0.4264640000000  0.4960980000000  0.5002570000000 1.0
C      1  0.5110470000000  0.4315170000000  0.4700120000000 1.0
C      1  0.5266090000000  0.5656660000000  0.4610560000000 1.0
C      1  0.4239600000000  0.4555390000000  0.4451650000000 1.0
C      1  0.5438740000000  0.5260660000000  0.4890370000000 1.0
C      1  0.5726840000000  0.5421090000000  0.5397770000000 1.0
C      1  0.4624330000000  0.5377670000000  0.5423340000000 1.0
C      1  0.5248330000000  0.5318210000000  0.4233100000000 1.0
C      1  0.4980750000000  0.5967780000000  0.4754770000000 1.0
C      1  0.4888930000000  0.4454870000000  0.4510520000000 1.0
C      1  0.4951670000000  0.5811600000000  0.4516790000000 1.0
C      1  0.5721360000000  0.5626400000000  0.4674790000000 1.0
C      1  0.4969740000000  0.4994500000000  0.4942820000000 1.0
C      1  0.4692100000000  0.5650020000000  0.4516240000000 1.0
C      1  0.4929500000000  0.4929440000000  0.4417800000000 1.0
C      1  0.4265510000000  0.5195570000000  0.5637300000000 1.0
C      1  0.4560620000000  0.5175220000000  0.4422980000000 1.0
C      1  0.4710920000000  0.5152550000000  0.5858910000000 1.0
C      1  0.4329980000000  0.5081640000000  0.4564720000000 1.0
C      1  0.4773200000000  0.4809890000000  0.5493240000000 1.0
C      1  0.4953300000000  0.4205010000000  0.5447240000000 1.0
C      1  0.5485100000000  0.5325740000000  0.5672080000000 1.0
END
