TITL C-950524-1808-677 -5.97486487574768e-06 125000 -1028.21841348278 0 0 167 (C1) n - 1
REM
REM in /home/bkarasulu/work/CARBON/AIRSS/Generating-Clusters/EDIP-Nigel-Params/with-SteepDescent/Only-C1/SD-CG/HFTN-CG
REM
REM
REM
REM
REM
REM ./C.cell (11c1c37f851c82e70ff6c80c92926a4b)
REM
REM compiler GCC version 9.2.1 20190827 (Red Hat 9.2.1-1)
REM options -cpp -mtune=generic -march=x86-64 -g -O0 -fpre-include=/usr/include/finclude/math-vector-fortran.h
REM seed -1384381339 691995529 -889408160 1930963256 331060961 2052097961 644269773 1406583844 -1821977106 1411109444 -1715461588 -394800505 1811179854 -587689501 1280165772 1775825716 490938137 -34797518 143283105 -1472431439 811315667 1942611551 -1423725355 1836823679 -1044172738 -1779109754 -662490410 61245976 -792801331 427298051 935684200 -431469480 703835384
REM
CELL 1.54180   50.00000   50.00000   50.00000   90.00000   90.00000   90.00000
LATT -1
SFAC C  
C      1  0.5888820000000  0.4902330000000  0.5731540000000 1.0
C      1  0.4886500000000  0.4370990000000  0.5450090000000 1.0
C      1  0.5200740000000  0.5463500000000  0.4093140000000 1.0
C      1  0.5214600000000  0.5031290000000  0.3820990000000 1.0
C      1  0.4512610000000  0.4294110000000  0.4459400000000 1.0
C      1  0.5153260000000  0.4831590000000  0.5577350000000 1.0
C      1  0.5809880000000  0.5622500000000  0.5757750000000 1.0
C      1  0.5386330000000  0.4878380000000  0.5373670000000 1.0
C      1  0.4918870000000  0.4814840000000  0.5206250000000 1.0
C      1  0.5462940000000  0.5778120000000  0.4640060000000 1.0
C      1  0.4777820000000  0.5082570000000  0.5240510000000 1.0
C      1  0.6212820000000  0.5122080000000  0.5084730000000 1.0
C      1  0.4781750000000  0.4480500000000  0.5960950000000 1.0
C      1  0.5020490000000  0.5932990000000  0.4478240000000 1.0
C      1  0.5692270000000  0.4903430000000  0.4127220000000 1.0
C      1  0.4855260000000  0.5218550000000  0.5512350000000 1.0
C      1  0.5490000000000  0.5158070000000  0.5472800000000 1.0
C      1  0.4418830000000  0.4954780000000  0.4257600000000 1.0
C      1  0.5864380000000  0.5351330000000  0.5333550000000 1.0
C      1  0.4082890000000  0.5096980000000  0.5578120000000 1.0
C      1  0.4022650000000  0.5034810000000  0.4528350000000 1.0
C      1  0.4531040000000  0.5614730000000  0.5431880000000 1.0
C      1  0.4772040000000  0.4967500000000  0.6026090000000 1.0
C      1  0.4227020000000  0.4293420000000  0.4718730000000 1.0
C      1  0.4823400000000  0.4665760000000  0.5445940000000 1.0
C      1  0.5628260000000  0.5206500000000  0.4142140000000 1.0
C      1  0.4864290000000  0.5942040000000  0.5699920000000 1.0
C      1  0.4394770000000  0.4701030000000  0.5850040000000 1.0
C      1  0.4827160000000  0.6034930000000  0.5428600000000 1.0
C      1  0.4148750000000  0.4218420000000  0.5362300000000 1.0
C      1  0.4286870000000  0.5151820000000  0.4426230000000 1.0
C      1  0.4828260000000  0.5920380000000  0.4270650000000 1.0
C      1  0.5038550000000  0.4376010000000  0.5921520000000 1.0
C      1  0.4986630000000  0.4298020000000  0.5169610000000 1.0
C      1  0.3923470000000  0.4677740000000  0.4871230000000 1.0
C      1  0.4234010000000  0.5417420000000  0.4280540000000 1.0
C      1  0.5597340000000  0.5798800000000  0.5104940000000 1.0
C      1  0.5571000000000  0.4107220000000  0.5538570000000 1.0
C      1  0.5431820000000  0.4949030000000  0.4512490000000 1.0
C      1  0.5409930000000  0.3989890000000  0.4825750000000 1.0
C      1  0.5176840000000  0.5386610000000  0.5260360000000 1.0
C      1  0.5155950000000  0.4107560000000  0.4483150000000 1.0
C      1  0.4844420000000  0.5668940000000  0.5038060000000 1.0
C      1  0.6043650000000  0.4732370000000  0.4879040000000 1.0
C      1  0.6107000000000  0.5013600000000  0.4847990000000 1.0
C      1  0.4676890000000  0.5048260000000  0.4149960000000 1.0
C      1  0.5134170000000  0.3939410000000  0.4719980000000 1.0
C      1  0.4432250000000  0.5415620000000  0.5247240000000 1.0
C      1  0.4582190000000  0.5471320000000  0.3923760000000 1.0
C      1  0.5414760000000  0.4828530000000  0.4238180000000 1.0
C      1  0.5477110000000  0.5409020000000  0.5267500000000 1.0
C      1  0.5658680000000  0.4905760000000  0.5001140000000 1.0
C      1  0.4865260000000  0.5663690000000  0.5771090000000 1.0
C      1  0.4490260000000  0.5936830000000  0.5022580000000 1.0
C      1  0.5328060000000  0.4747060000000  0.5827790000000 1.0
C      1  0.5719270000000  0.5144100000000  0.5693310000000 1.0
C      1  0.4459710000000  0.4456890000000  0.4205990000000 1.0
C      1  0.4866920000000  0.4677700000000  0.4952680000000 1.0
C      1  0.4751100000000  0.5473410000000  0.4595300000000 1.0
C      1  0.4633510000000  0.4714400000000  0.5986290000000 1.0
C      1  0.4545990000000  0.5746340000000  0.4577150000000 1.0
C      1  0.5518890000000  0.5833900000000  0.5378880000000 1.0
C      1  0.5208310000000  0.5392240000000  0.6078800000000 1.0
C      1  0.5555460000000  0.5232890000000  0.4451060000000 1.0
C      1  0.5052040000000  0.5258500000000  0.5027260000000 1.0
C      1  0.5286350000000  0.4065760000000  0.5554380000000 1.0
C      1  0.4568690000000  0.5813670000000  0.4291870000000 1.0
C      1  0.5005110000000  0.5617310000000  0.5315570000000 1.0
C      1  0.4665250000000  0.5208690000000  0.3901250000000 1.0
C      1  0.4368910000000  0.5262690000000  0.5942810000000 1.0
C      1  0.5631600000000  0.4544030000000  0.4748450000000 1.0
C      1  0.5109650000000  0.4300970000000  0.5639740000000 1.0
C      1  0.4378110000000  0.4760700000000  0.4815940000000 1.0
C      1  0.5348820000000  0.4546530000000  0.4224280000000 1.0
C      1  0.3990600000000  0.4854780000000  0.5107480000000 1.0
C      1  0.4337230000000  0.4685590000000  0.4341440000000 1.0
C      1  0.4260920000000  0.4968000000000  0.5034790000000 1.0
C      1  0.4335990000000  0.4602210000000  0.5595200000000 1.0
C      1  0.5000000000000  0.5506940000000  0.6208660000000 1.0
C      1  0.5133830000000  0.5258160000000  0.4305540000000 1.0
C      1  0.5198300000000  0.5156310000000  0.5927970000000 1.0
C      1  0.5214470000000  0.3934920000000  0.5286330000000 1.0
C      1  0.5695120000000  0.5787450000000  0.5584390000000 1.0
C      1  0.5271110000000  0.4359890000000  0.5105100000000 1.0
C      1  0.4646510000000  0.4005110000000  0.5295950000000 1.0
C      1  0.4882710000000  0.3961970000000  0.4861720000000 1.0
C      1  0.4815490000000  0.4808770000000  0.4036620000000 1.0
C      1  0.4070520000000  0.5527680000000  0.4526570000000 1.0
C      1  0.5862110000000  0.4518040000000  0.4936260000000 1.0
C      1  0.4252290000000  0.5724660000000  0.4660770000000 1.0
C      1  0.5660350000000  0.4155640000000  0.5271690000000 1.0
C      1  0.4198040000000  0.5250090000000  0.4904460000000 1.0
C      1  0.5982630000000  0.4633550000000  0.5665160000000 1.0
C      1  0.5063040000000  0.4932950000000  0.6067960000000 1.0
C      1  0.4417740000000  0.4124070000000  0.4851000000000 1.0
C      1  0.5884250000000  0.5202480000000  0.4742730000000 1.0
C      1  0.4142090000000  0.5377880000000  0.5183520000000 1.0
C      1  0.5447230000000  0.4127000000000  0.4471450000000 1.0
C      1  0.5822400000000  0.4400200000000  0.5208960000000 1.0
C      1  0.4302440000000  0.5715210000000  0.4948760000000 1.0
C      1  0.5795880000000  0.4475410000000  0.4398910000000 1.0
C      1  0.5668890000000  0.5580760000000  0.4577230000000 1.0
C      1  0.4623230000000  0.5867490000000  0.5284800000000 1.0
C      1  0.4020110000000  0.4396990000000  0.4911030000000 1.0
C      1  0.6008020000000  0.5093930000000  0.5273410000000 1.0
C      1  0.6009050000000  0.4521920000000  0.5400520000000 1.0
C      1  0.5132870000000  0.5140240000000  0.5625450000000 1.0
C      1  0.5073610000000  0.4495040000000  0.4217520000000 1.0
C      1  0.4649300000000  0.5959570000000  0.4770340000000 1.0
C      1  0.5229980000000  0.5064790000000  0.4908190000000 1.0
C      1  0.4475440000000  0.5561780000000  0.4165920000000 1.0
C      1  0.5534460000000  0.4373050000000  0.4356860000000 1.0
C      1  0.5681840000000  0.4830360000000  0.4624530000000 1.0
C      1  0.4980230000000  0.5485650000000  0.4814890000000 1.0
C      1  0.5139210000000  0.5982420000000  0.4974380000000 1.0
C      1  0.5205730000000  0.4580520000000  0.6035410000000 1.0
C      1  0.4368100000000  0.5093760000000  0.5540770000000 1.0
C      1  0.5886720000000  0.5521530000000  0.4767400000000 1.0
C      1  0.4739900000000  0.4447060000000  0.4596030000000 1.0
C      1  0.5198500000000  0.4997960000000  0.4129870000000 1.0
C      1  0.4347810000000  0.4309050000000  0.5548070000000 1.0
C      1  0.5139370000000  0.4929750000000  0.4668100000000 1.0
C      1  0.5083330000000  0.6044720000000  0.5266900000000 1.0
C      1  0.4400690000000  0.4537900000000  0.5110560000000 1.0
C      1  0.4130630000000  0.4439860000000  0.5183870000000 1.0
C      1  0.4922880000000  0.3996610000000  0.5161640000000 1.0
C      1  0.3966220000000  0.5278430000000  0.4708360000000 1.0
C      1  0.5260890000000  0.5788090000000  0.4441050000000 1.0
C      1  0.5843490000000  0.4768440000000  0.4361330000000 1.0
C      1  0.5814740000000  0.5603810000000  0.5054940000000 1.0
C      1  0.4629620000000  0.4208420000000  0.5497970000000 1.0
C      1  0.5695260000000  0.5194430000000  0.4977070000000 1.0
C      1  0.5347260000000  0.4580560000000  0.4921400000000 1.0
C      1  0.5024660000000  0.4385230000000  0.4477430000000 1.0
C      1  0.5393150000000  0.5282830000000  0.3945210000000 1.0
C      1  0.5293790000000  0.5378300000000  0.4605880000000 1.0
C      1  0.4830110000000  0.5007280000000  0.4609670000000 1.0
C      1  0.5600690000000  0.4640210000000  0.5731290000000 1.0
C      1  0.4511650000000  0.4686240000000  0.5365500000000 1.0
C      1  0.4541350000000  0.4271980000000  0.5070790000000 1.0
C      1  0.4676620000000  0.5166650000000  0.4826440000000 1.0
C      1  0.4645290000000  0.5242070000000  0.5989020000000 1.0
C      1  0.5612680000000  0.4713810000000  0.5441090000000 1.0
C      1  0.4625470000000  0.4750010000000  0.4591920000000 1.0
C      1  0.5881050000000  0.5384530000000  0.5635210000000 1.0
C      1  0.4669090000000  0.4564930000000  0.4048740000000 1.0
C      1  0.4106780000000  0.4758520000000  0.4645280000000 1.0
C      1  0.4641470000000  0.4021320000000  0.4704610000000 1.0
C      1  0.4414910000000  0.5219830000000  0.4701840000000 1.0
C      1  0.4795980000000  0.4387660000000  0.4956220000000 1.0
C      1  0.5311000000000  0.5698630000000  0.4185730000000 1.0
C      1  0.4787120000000  0.5513240000000  0.6021080000000 1.0
C      1  0.5476670000000  0.5424430000000  0.4907100000000 1.0
C      1  0.5375790000000  0.4857610000000  0.5065450000000 1.0
C      1  0.4940090000000  0.5990850000000  0.4753760000000 1.0
C      1  0.5408330000000  0.4100060000000  0.5108100000000 1.0
C      1  0.4802340000000  0.5519010000000  0.5522760000000 1.0
C      1  0.5102480000000  0.4646280000000  0.4755880000000 1.0
C      1  0.4565550000000  0.5503470000000  0.4993210000000 1.0
C      1  0.4927070000000  0.4952750000000  0.3795450000000 1.0
C      1  0.4471960000000  0.4975950000000  0.5291200000000 1.0
C      1  0.3976710000000  0.5168890000000  0.5316930000000 1.0
C      1  0.5398320000000  0.5857910000000  0.4907600000000 1.0
C      1  0.4833780000000  0.5212700000000  0.4378030000000 1.0
C      1  0.5246230000000  0.5885900000000  0.5440060000000 1.0
C      1  0.4139460000000  0.5286040000000  0.5789700000000 1.0
C      1  0.5842180000000  0.4835350000000  0.5245970000000 1.0
END
