TITL C-951337-3020-126 -3.5985863870292e-06 125000 -848.801715331957 0 0 138 (C1) n - 1
REM
REM in /home/bkarasulu/work/CARBON/AIRSS/Generating-Clusters/EDIP-Nigel-Params/with-SteepDescent/Only-C1/SD-CG/HFTN-CG
REM
REM
REM
REM
REM
REM ./C.cell (11c1c37f851c82e70ff6c80c92926a4b)
REM
REM compiler GCC version 9.2.1 20190827 (Red Hat 9.2.1-1)
REM options -cpp -mtune=generic -march=x86-64 -g -O0 -fpre-include=/usr/include/finclude/math-vector-fortran.h
REM seed 224609394 -931675275 -817422733 1515517902 -1730627224 766731477 2048933621 488334829 68503165 1909860342 2006589938 -1872557466 1638480526 -932651167 1882739655 567902942 1220719025 1208357998 48404831 -895357760 -1295308125 916914045 -1595046483 -303010012 -2013460513 1178978183 476638769 -2145151864 471856966 232119923 749404556 1328627441 51605803
REM
CELL 1.54180   50.00000   50.00000   50.00000   90.00000   90.00000   90.00000
LATT -1
SFAC C  
C      1  0.4128600000000  0.4788620000000  0.5035720000000 1.0
C      1  0.5263530000000  0.5982290000000  0.5181600000000 1.0
C      1  0.5392630000000  0.5329490000000  0.4268250000000 1.0
C      1  0.4114700000000  0.5091860000000  0.4637030000000 1.0
C      1  0.5371050000000  0.4720480000000  0.4243780000000 1.0
C      1  0.4584480000000  0.4844310000000  0.5259840000000 1.0
C      1  0.5143690000000  0.5135890000000  0.4672560000000 1.0
C      1  0.5485430000000  0.5263030000000  0.5582290000000 1.0
C      1  0.5356280000000  0.5744730000000  0.5321570000000 1.0
C      1  0.4171000000000  0.5566470000000  0.4824250000000 1.0
C      1  0.4349770000000  0.4301420000000  0.5074300000000 1.0
C      1  0.5021640000000  0.5038150000000  0.4030780000000 1.0
C      1  0.6160860000000  0.5190370000000  0.5108870000000 1.0
C      1  0.5402590000000  0.4767510000000  0.4962480000000 1.0
C      1  0.5461290000000  0.5081370000000  0.4977410000000 1.0
C      1  0.5071290000000  0.5870290000000  0.4496100000000 1.0
C      1  0.6160870000000  0.5470700000000  0.5135090000000 1.0
C      1  0.4140460000000  0.4888000000000  0.4426780000000 1.0
C      1  0.5307220000000  0.4660170000000  0.4673200000000 1.0
C      1  0.5064470000000  0.4359940000000  0.4287870000000 1.0
C      1  0.4675550000000  0.4899920000000  0.4646410000000 1.0
C      1  0.5252910000000  0.5653590000000  0.4846730000000 1.0
C      1  0.5175490000000  0.5668270000000  0.5544440000000 1.0
C      1  0.4984920000000  0.5377640000000  0.4632760000000 1.0
C      1  0.4279820000000  0.4548270000000  0.4912090000000 1.0
C      1  0.4466440000000  0.4992100000000  0.5779250000000 1.0
C      1  0.4927720000000  0.4843060000000  0.5969660000000 1.0
C      1  0.4461120000000  0.4558630000000  0.4235910000000 1.0
C      1  0.5471940000000  0.4887350000000  0.5967620000000 1.0
C      1  0.5549680000000  0.4211240000000  0.5464980000000 1.0
C      1  0.5671330000000  0.4231540000000  0.5002950000000 1.0
C      1  0.5878200000000  0.4825070000000  0.5327180000000 1.0
C      1  0.5113670000000  0.4781810000000  0.4115350000000 1.0
C      1  0.5392580000000  0.5533610000000  0.5101500000000 1.0
C      1  0.5676610000000  0.5076450000000  0.5998740000000 1.0
C      1  0.5441450000000  0.5202160000000  0.4675760000000 1.0
C      1  0.5707490000000  0.5470890000000  0.5043340000000 1.0
C      1  0.4033580000000  0.4759600000000  0.5327650000000 1.0
C      1  0.5059150000000  0.5676810000000  0.4167970000000 1.0
C      1  0.4883380000000  0.5842880000000  0.5517590000000 1.0
C      1  0.5263510000000  0.5254090000000  0.5148140000000 1.0
C      1  0.5273780000000  0.5435680000000  0.5704660000000 1.0
C      1  0.4618520000000  0.4579360000000  0.5103750000000 1.0
C      1  0.5562810000000  0.4888050000000  0.4396230000000 1.0
C      1  0.5691440000000  0.5215270000000  0.5766600000000 1.0
C      1  0.4374370000000  0.5771360000000  0.4837490000000 1.0
C      1  0.5860850000000  0.5285950000000  0.4342750000000 1.0
C      1  0.4153080000000  0.5567280000000  0.5369470000000 1.0
C      1  0.5183400000000  0.5258000000000  0.4095830000000 1.0
C      1  0.4845030000000  0.4972770000000  0.5126440000000 1.0
C      1  0.5354500000000  0.4991270000000  0.5491240000000 1.0
C      1  0.5332820000000  0.4454500000000  0.4347400000000 1.0
C      1  0.4749000000000  0.5036630000000  0.4376770000000 1.0
C      1  0.4782000000000  0.5342830000000  0.4424870000000 1.0
C      1  0.5256430000000  0.4544890000000  0.5717070000000 1.0
C      1  0.4157640000000  0.5306790000000  0.5523540000000 1.0
C      1  0.4224940000000  0.4610470000000  0.5499140000000 1.0
C      1  0.5098850000000  0.4348280000000  0.5036440000000 1.0
C      1  0.5878350000000  0.4689360000000  0.5069720000000 1.0
C      1  0.4783870000000  0.4062410000000  0.5135510000000 1.0
C      1  0.5534210000000  0.4052160000000  0.5210940000000 1.0
C      1  0.5380840000000  0.5562690000000  0.4567680000000 1.0
C      1  0.5746250000000  0.5424500000000  0.4745380000000 1.0
C      1  0.3970110000000  0.5002230000000  0.4876750000000 1.0
C      1  0.4960370000000  0.5657050000000  0.5167970000000 1.0
C      1  0.4352740000000  0.4360740000000  0.5376150000000 1.0
C      1  0.4482150000000  0.4759320000000  0.5585320000000 1.0
C      1  0.5553600000000  0.4250610000000  0.4741040000000 1.0
C      1  0.4855990000000  0.4573430000000  0.5893810000000 1.0
C      1  0.5729630000000  0.5169930000000  0.5101160000000 1.0
C      1  0.5080500000000  0.4869460000000  0.4539990000000 1.0
C      1  0.5188150000000  0.4802290000000  0.5189320000000 1.0
C      1  0.5876200000000  0.4855070000000  0.4830190000000 1.0
C      1  0.4642050000000  0.4535880000000  0.5704360000000 1.0
C      1  0.4439760000000  0.4389660000000  0.4482410000000 1.0
C      1  0.4346330000000  0.5002770000000  0.5130120000000 1.0
C      1  0.4919820000000  0.4198580000000  0.4493600000000 1.0
C      1  0.5637470000000  0.4526720000000  0.5076830000000 1.0
C      1  0.5544560000000  0.4490060000000  0.5355620000000 1.0
C      1  0.5132350000000  0.4079700000000  0.4625440000000 1.0
C      1  0.5257530000000  0.4311960000000  0.4759730000000 1.0
C      1  0.5242890000000  0.5947580000000  0.4898600000000 1.0
C      1  0.4592050000000  0.5769590000000  0.4646430000000 1.0
C      1  0.4569540000000  0.5460570000000  0.5259110000000 1.0
C      1  0.4573270000000  0.5470500000000  0.4969180000000 1.0
C      1  0.4937790000000  0.4552010000000  0.4121510000000 1.0
C      1  0.5290650000000  0.4250230000000  0.5630180000000 1.0
C      1  0.4853300000000  0.5920190000000  0.4684010000000 1.0
C      1  0.5844370000000  0.5559270000000  0.4377260000000 1.0
C      1  0.4879070000000  0.5537960000000  0.4879010000000 1.0
C      1  0.4708510000000  0.5040820000000  0.5949260000000 1.0
C      1  0.4375220000000  0.4838900000000  0.4258510000000 1.0
C      1  0.4431640000000  0.5694980000000  0.5369860000000 1.0
C      1  0.5668650000000  0.5663880000000  0.4576890000000 1.0
C      1  0.4611270000000  0.5723950000000  0.5616080000000 1.0
C      1  0.5053580000000  0.4120540000000  0.5544010000000 1.0
C      1  0.5272740000000  0.3966210000000  0.5156320000000 1.0
C      1  0.4844340000000  0.5446240000000  0.5361420000000 1.0
C      1  0.4815640000000  0.5316220000000  0.5900700000000 1.0
C      1  0.4597330000000  0.4306740000000  0.5529570000000 1.0
C      1  0.4670990000000  0.4515710000000  0.4059830000000 1.0
C      1  0.4811380000000  0.4156210000000  0.5408980000000 1.0
C      1  0.5025520000000  0.4691960000000  0.5565820000000 1.0
C      1  0.4035550000000  0.5086640000000  0.5355090000000 1.0
C      1  0.4568890000000  0.5556160000000  0.4448300000000 1.0
C      1  0.5708570000000  0.4682260000000  0.5530030000000 1.0
C      1  0.4743960000000  0.5085160000000  0.4858840000000 1.0
C      1  0.4957510000000  0.6054840000000  0.4946100000000 1.0
C      1  0.5027350000000  0.3966020000000  0.5036340000000 1.0
C      1  0.5064060000000  0.5028910000000  0.5556560000000 1.0
C      1  0.4634360000000  0.5433350000000  0.5699410000000 1.0
C      1  0.4885980000000  0.4566950000000  0.4966290000000 1.0
C      1  0.4062330000000  0.5474920000000  0.5084700000000 1.0
C      1  0.5622110000000  0.5151970000000  0.4280360000000 1.0
C      1  0.4994280000000  0.5185940000000  0.5296330000000 1.0
C      1  0.4223040000000  0.5355700000000  0.4633190000000 1.0
C      1  0.5932100000000  0.5615730000000  0.5158210000000 1.0
C      1  0.4649020000000  0.4232530000000  0.4632020000000 1.0
C      1  0.5462490000000  0.4774700000000  0.5688720000000 1.0
C      1  0.4745640000000  0.5056130000000  0.3964870000000 1.0
C      1  0.5686570000000  0.4461170000000  0.4606060000000 1.0
C      1  0.4591030000000  0.4171520000000  0.4937020000000 1.0
C      1  0.5052520000000  0.5946660000000  0.4229180000000 1.0
C      1  0.5197660000000  0.4959260000000  0.6050240000000 1.0
C      1  0.4492680000000  0.5039610000000  0.4088790000000 1.0
C      1  0.5220100000000  0.4518110000000  0.5282870000000 1.0
C      1  0.4823620000000  0.5930930000000  0.5197090000000 1.0
C      1  0.3938170000000  0.5207530000000  0.5097570000000 1.0
C      1  0.5736210000000  0.4739480000000  0.4589400000000 1.0
C      1  0.4461520000000  0.5188930000000  0.4890640000000 1.0
C      1  0.5085990000000  0.5220910000000  0.5805200000000 1.0
C      1  0.4833810000000  0.5504210000000  0.4178020000000 1.0
C      1  0.6021870000000  0.5073890000000  0.5337500000000 1.0
C      1  0.4405210000000  0.5250730000000  0.5665240000000 1.0
C      1  0.4209440000000  0.4470510000000  0.4638260000000 1.0
C      1  0.6022710000000  0.5104310000000  0.4861800000000 1.0
C      1  0.4869800000000  0.4684870000000  0.4695490000000 1.0
C      1  0.4033370000000  0.4643130000000  0.4507200000000 1.0
END
