TITL C-950536-5891-753 -6.35085103779157e-06 125000 -773.520997203379 0 0 125 (C1) n - 1
REM
REM in /home/bkarasulu/work/CARBON/AIRSS/Generating-Clusters/EDIP-Nigel-Params/with-SteepDescent/Only-C1/SD-CG/HFTN-CG
REM
REM
REM
REM
REM
REM ./C.cell (11c1c37f851c82e70ff6c80c92926a4b)
REM
REM compiler GCC version 9.2.1 20190827 (Red Hat 9.2.1-1)
REM options -cpp -mtune=generic -march=x86-64 -g -O0 -fpre-include=/usr/include/finclude/math-vector-fortran.h
REM seed 1023347530 38431207 944081906 -783743354 -1178634604 64603592 -1671124899 -1717702632 -1979497363 38969989 1438752994 1983143542 1066924636 -30850470 323656544 -1208596781 1729531424 1587505771 307199324 -415727042 627854929 599012402 -1082717147 1965050553 263315373 -500571959 1716748370 719176179 -1811425718 1079699621 -1215218426 1743240587 -670546816
REM
CELL 1.54180   50.00000   50.00000   50.00000   90.00000   90.00000   90.00000
LATT -1
SFAC C  
C      1  0.5269090000000  0.4707000000000  0.5850370000000 1.0
C      1  0.4905520000000  0.5468790000000  0.4317870000000 1.0
C      1  0.4523050000000  0.5645710000000  0.5638670000000 1.0
C      1  0.4544370000000  0.5549660000000  0.4554890000000 1.0
C      1  0.5941210000000  0.4894870000000  0.4578230000000 1.0
C      1  0.4720570000000  0.5173700000000  0.4808960000000 1.0
C      1  0.5130840000000  0.5854960000000  0.5352340000000 1.0
C      1  0.4723160000000  0.5462950000000  0.5726560000000 1.0
C      1  0.5881630000000  0.4553660000000  0.5223600000000 1.0
C      1  0.5006080000000  0.4364860000000  0.4303840000000 1.0
C      1  0.5792180000000  0.4964590000000  0.5009800000000 1.0
C      1  0.5227240000000  0.5059210000000  0.4530380000000 1.0
C      1  0.5080050000000  0.4784220000000  0.4604630000000 1.0
C      1  0.4943820000000  0.5155650000000  0.5000150000000 1.0
C      1  0.5482950000000  0.4806030000000  0.4232970000000 1.0
C      1  0.5519380000000  0.5060150000000  0.4955120000000 1.0
C      1  0.5116810000000  0.5249920000000  0.5422750000000 1.0
C      1  0.4538750000000  0.4691540000000  0.5854400000000 1.0
C      1  0.5365460000000  0.5973090000000  0.4900210000000 1.0
C      1  0.4291510000000  0.5245970000000  0.5442400000000 1.0
C      1  0.5436970000000  0.5811310000000  0.4682230000000 1.0
C      1  0.5379900000000  0.5072410000000  0.4272210000000 1.0
C      1  0.4144340000000  0.5472760000000  0.5380250000000 1.0
C      1  0.5272010000000  0.5342350000000  0.4673370000000 1.0
C      1  0.5609200000000  0.5136910000000  0.5705950000000 1.0
C      1  0.5397350000000  0.5184210000000  0.5879580000000 1.0
C      1  0.5676030000000  0.4380730000000  0.5309100000000 1.0
C      1  0.4662290000000  0.5454090000000  0.4796620000000 1.0
C      1  0.5198080000000  0.4514550000000  0.4489920000000 1.0
C      1  0.4422760000000  0.5007830000000  0.5518490000000 1.0
C      1  0.4237290000000  0.5353810000000  0.4875520000000 1.0
C      1  0.5015840000000  0.4289220000000  0.5677160000000 1.0
C      1  0.4573370000000  0.4972410000000  0.4647370000000 1.0
C      1  0.4907320000000  0.4884310000000  0.5619510000000 1.0
C      1  0.5166220000000  0.5513530000000  0.4449370000000 1.0
C      1  0.4910450000000  0.4684250000000  0.5002050000000 1.0
C      1  0.4752770000000  0.4237780000000  0.4412940000000 1.0
C      1  0.4650300000000  0.4471310000000  0.4715480000000 1.0
C      1  0.4765830000000  0.4740620000000  0.4553780000000 1.0
C      1  0.5953940000000  0.5177060000000  0.4646780000000 1.0
C      1  0.4268440000000  0.5454040000000  0.4594820000000 1.0
C      1  0.4359670000000  0.4423540000000  0.4608190000000 1.0
C      1  0.5195840000000  0.5792640000000  0.4515900000000 1.0
C      1  0.4765300000000  0.4231220000000  0.5505070000000 1.0
C      1  0.4043590000000  0.4985060000000  0.5140670000000 1.0
C      1  0.4458310000000  0.4591850000000  0.4180510000000 1.0
C      1  0.4545320000000  0.4410100000000  0.5437660000000 1.0
C      1  0.5091160000000  0.4897660000000  0.5025120000000 1.0
C      1  0.4333980000000  0.5806640000000  0.5168110000000 1.0
C      1  0.4809380000000  0.4617510000000  0.5716930000000 1.0
C      1  0.5085570000000  0.4065560000000  0.4702910000000 1.0
C      1  0.5142910000000  0.4677790000000  0.3961290000000 1.0
C      1  0.5284520000000  0.5418790000000  0.5190700000000 1.0
C      1  0.5996560000000  0.5180460000000  0.4948880000000 1.0
C      1  0.4407150000000  0.4663940000000  0.5074910000000 1.0
C      1  0.5220340000000  0.4328810000000  0.4737550000000 1.0
C      1  0.5911490000000  0.5366780000000  0.5378730000000 1.0
C      1  0.5348180000000  0.4045710000000  0.5056610000000 1.0
C      1  0.4664660000000  0.5208890000000  0.5881370000000 1.0
C      1  0.5838200000000  0.4757480000000  0.4808090000000 1.0
C      1  0.5741890000000  0.5362800000000  0.4535800000000 1.0
C      1  0.5232690000000  0.4290260000000  0.5478280000000 1.0
C      1  0.5444870000000  0.5149370000000  0.5222130000000 1.0
C      1  0.4798610000000  0.4104370000000  0.4683670000000 1.0
C      1  0.4460290000000  0.4339060000000  0.4340570000000 1.0
C      1  0.4257630000000  0.6050610000000  0.5093980000000 1.0
C      1  0.5136960000000  0.4215410000000  0.5208510000000 1.0
C      1  0.5127850000000  0.5264210000000  0.5862890000000 1.0
C      1  0.5028350000000  0.4938500000000  0.3939780000000 1.0
C      1  0.5496750000000  0.4558540000000  0.5012590000000 1.0
C      1  0.5548790000000  0.5705370000000  0.5241700000000 1.0
C      1  0.4160860000000  0.5558530000000  0.5083020000000 1.0
C      1  0.5504900000000  0.5597500000000  0.5523470000000 1.0
C      1  0.4929040000000  0.5831540000000  0.4649690000000 1.0
C      1  0.5346720000000  0.4831910000000  0.4888080000000 1.0
C      1  0.4287100000000  0.4796060000000  0.4314260000000 1.0
C      1  0.5934150000000  0.4533390000000  0.4945890000000 1.0
C      1  0.5112520000000  0.5397820000000  0.4930560000000 1.0
C      1  0.5207490000000  0.5652930000000  0.5552920000000 1.0
C      1  0.4871430000000  0.5927830000000  0.5285550000000 1.0
C      1  0.5804760000000  0.4827920000000  0.5297780000000 1.0
C      1  0.5414170000000  0.4831910000000  0.5318030000000 1.0
C      1  0.4709930000000  0.5772040000000  0.4459310000000 1.0
C      1  0.5489730000000  0.4263000000000  0.4876660000000 1.0
C      1  0.4430280000000  0.5072330000000  0.4380050000000 1.0
C      1  0.5232170000000  0.4954810000000  0.5553970000000 1.0
C      1  0.5602800000000  0.5252860000000  0.4316360000000 1.0
C      1  0.4701440000000  0.5472110000000  0.5285320000000 1.0
C      1  0.4664290000000  0.4214810000000  0.5025550000000 1.0
C      1  0.5559180000000  0.5522090000000  0.4730240000000 1.0
C      1  0.5448020000000  0.4568940000000  0.4358050000000 1.0
C      1  0.4207950000000  0.5257080000000  0.4410660000000 1.0
C      1  0.4973910000000  0.5367110000000  0.4054630000000 1.0
C      1  0.4379530000000  0.4541940000000  0.5644420000000 1.0
C      1  0.4846330000000  0.5217640000000  0.5279720000000 1.0
C      1  0.4851840000000  0.4123570000000  0.5241230000000 1.0
C      1  0.5919350000000  0.5418430000000  0.5101750000000 1.0
C      1  0.4461520000000  0.4993990000000  0.5813590000000 1.0
C      1  0.4767270000000  0.5710030000000  0.5143010000000 1.0
C      1  0.5187530000000  0.5165470000000  0.4031380000000 1.0
C      1  0.5194280000000  0.3879210000000  0.4885690000000 1.0
C      1  0.5351080000000  0.5903870000000  0.5168380000000 1.0
C      1  0.4305160000000  0.5720080000000  0.5468110000000 1.0
C      1  0.4446220000000  0.4369970000000  0.5158960000000 1.0
C      1  0.4705980000000  0.4968150000000  0.5391510000000 1.0
C      1  0.5120470000000  0.4457710000000  0.5013300000000 1.0
C      1  0.4891210000000  0.5623340000000  0.4882010000000 1.0
C      1  0.5504660000000  0.4639360000000  0.5703040000000 1.0
C      1  0.4913900000000  0.5062300000000  0.5874360000000 1.0
C      1  0.4144320000000  0.5071530000000  0.4894640000000 1.0
C      1  0.4179750000000  0.4713750000000  0.5524270000000 1.0
C      1  0.4659280000000  0.5191000000000  0.4192260000000 1.0
C      1  0.5020450000000  0.5514620000000  0.5746010000000 1.0
C      1  0.5666810000000  0.5532250000000  0.5017870000000 1.0
C      1  0.4764730000000  0.4949600000000  0.4068620000000 1.0
C      1  0.4331680000000  0.4850380000000  0.4798570000000 1.0
C      1  0.4181330000000  0.4764060000000  0.5243520000000 1.0
C      1  0.4729160000000  0.4702720000000  0.4221070000000 1.0
C      1  0.5679310000000  0.4862910000000  0.5607570000000 1.0
C      1  0.4933660000000  0.4531600000000  0.4087070000000 1.0
C      1  0.5676260000000  0.5357650000000  0.5533860000000 1.0
C      1  0.5043470000000  0.4527680000000  0.5889880000000 1.0
C      1  0.5475460000000  0.4436180000000  0.5501510000000 1.0
C      1  0.4681410000000  0.4745110000000  0.5181040000000 1.0
C      1  0.4212620000000  0.4678330000000  0.4582010000000 1.0
END
