TITL C-951337-3020-5 -2.49767614099492e-06 125000 -1217.32661030028 0 0 192 (C1) n - 1
REM
REM in /home/bkarasulu/work/CARBON/AIRSS/Generating-Clusters/EDIP-Nigel-Params/with-SteepDescent/Only-C1/SD-CG/HFTN-CG
REM
REM
REM
REM
REM
REM ./C.cell (11c1c37f851c82e70ff6c80c92926a4b)
REM
REM compiler GCC version 9.2.1 20190827 (Red Hat 9.2.1-1)
REM options -cpp -mtune=generic -march=x86-64 -g -O0 -fpre-include=/usr/include/finclude/math-vector-fortran.h
REM seed 1076471866 -1096731666 -408488591 1563578353 -1454785584 456154277 -1079680358 471772661 2080233169 -1090401104 -368158383 -760849233 -49390367 1379043260 -773410994 -611712892 80816441 -1178668181 660314601 507487242 -325605801 996925295 -1940002803 -1941465237 1729643086 -1944124959 2076689884 272653831 -1726884998 1080581181 -603530348 964084537 878137519
REM
CELL 1.54180   50.00000   50.00000   50.00000   90.00000   90.00000   90.00000
LATT -1
SFAC C  
C      1  0.5820400000000  0.4844600000000  0.5750220000000 1.0
C      1  0.5515590000000  0.5972460000000  0.4585190000000 1.0
C      1  0.5709480000000  0.4370690000000  0.5527720000000 1.0
C      1  0.6031010000000  0.5407930000000  0.5300430000000 1.0
C      1  0.4926070000000  0.5187790000000  0.4425380000000 1.0
C      1  0.5995910000000  0.5344800000000  0.5017090000000 1.0
C      1  0.4699260000000  0.5359200000000  0.4807390000000 1.0
C      1  0.5388700000000  0.4943440000000  0.4050590000000 1.0
C      1  0.5434690000000  0.4601360000000  0.6145540000000 1.0
C      1  0.5700770000000  0.4967540000000  0.4907550000000 1.0
C      1  0.5194240000000  0.6036720000000  0.5314230000000 1.0
C      1  0.4922750000000  0.4322900000000  0.4768680000000 1.0
C      1  0.3907700000000  0.4885710000000  0.4711660000000 1.0
C      1  0.4609930000000  0.4878230000000  0.4155720000000 1.0
C      1  0.5399200000000  0.5415120000000  0.5070840000000 1.0
C      1  0.5035190000000  0.4015830000000  0.4626810000000 1.0
C      1  0.6064670000000  0.5198410000000  0.5517220000000 1.0
C      1  0.4098280000000  0.4648190000000  0.5204890000000 1.0
C      1  0.4967740000000  0.4395880000000  0.5513420000000 1.0
C      1  0.4862200000000  0.4928130000000  0.4317120000000 1.0
C      1  0.5547690000000  0.4475870000000  0.4097540000000 1.0
C      1  0.4420700000000  0.5190920000000  0.4072230000000 1.0
C      1  0.5071060000000  0.4588730000000  0.4038820000000 1.0
C      1  0.5182530000000  0.4153320000000  0.4165230000000 1.0
C      1  0.5309870000000  0.3901590000000  0.4728060000000 1.0
C      1  0.5871350000000  0.4356540000000  0.4938230000000 1.0
C      1  0.4843470000000  0.3802910000000  0.4670180000000 1.0
C      1  0.4542930000000  0.5112510000000  0.5523070000000 1.0
C      1  0.5769010000000  0.5507540000000  0.5399830000000 1.0
C      1  0.4254300000000  0.5844500000000  0.5224800000000 1.0
C      1  0.6123780000000  0.5033760000000  0.4668270000000 1.0
C      1  0.4532690000000  0.5770460000000  0.4616240000000 1.0
C      1  0.5233030000000  0.5030190000000  0.6023990000000 1.0
C      1  0.5507440000000  0.4921170000000  0.5134760000000 1.0
C      1  0.5470900000000  0.4884700000000  0.6111680000000 1.0
C      1  0.3973730000000  0.5076290000000  0.4937420000000 1.0
C      1  0.5163150000000  0.5419450000000  0.3988190000000 1.0
C      1  0.3841450000000  0.4973470000000  0.4457220000000 1.0
C      1  0.4607790000000  0.4396680000000  0.4150500000000 1.0
C      1  0.5353120000000  0.4012610000000  0.5365750000000 1.0
C      1  0.4054490000000  0.4445790000000  0.4496400000000 1.0
C      1  0.4506800000000  0.3821320000000  0.4970920000000 1.0
C      1  0.5495890000000  0.3863150000000  0.5173090000000 1.0
C      1  0.5331870000000  0.5867350000000  0.5509360000000 1.0
C      1  0.5061990000000  0.4703310000000  0.4330000000000 1.0
C      1  0.5100440000000  0.5686580000000  0.4122170000000 1.0
C      1  0.4726130000000  0.6073690000000  0.5242950000000 1.0
C      1  0.6112280000000  0.4795590000000  0.5077360000000 1.0
C      1  0.5697900000000  0.5998960000000  0.5499000000000 1.0
C      1  0.5927380000000  0.4943040000000  0.5504470000000 1.0
C      1  0.5023270000000  0.6025020000000  0.4587370000000 1.0
C      1  0.5850670000000  0.4873510000000  0.4173890000000 1.0
C      1  0.4699550000000  0.5567010000000  0.6115170000000 1.0
C      1  0.5079040000000  0.3931730000000  0.5358550000000 1.0
C      1  0.5494500000000  0.5949920000000  0.4881120000000 1.0
C      1  0.5254410000000  0.4259320000000  0.5824730000000 1.0
C      1  0.4653710000000  0.4172010000000  0.5803100000000 1.0
C      1  0.5816570000000  0.5537770000000  0.4843210000000 1.0
C      1  0.4441150000000  0.5546550000000  0.6026370000000 1.0
C      1  0.4104490000000  0.5548240000000  0.4934170000000 1.0
C      1  0.4819370000000  0.4610110000000  0.5374480000000 1.0
C      1  0.4664510000000  0.4889510000000  0.5948420000000 1.0
C      1  0.5134920000000  0.5559000000000  0.5828680000000 1.0
C      1  0.4694450000000  0.4791360000000  0.3880180000000 1.0
C      1  0.4884080000000  0.4373290000000  0.5812420000000 1.0
C      1  0.4748490000000  0.3713400000000  0.5074720000000 1.0
C      1  0.5549990000000  0.5323490000000  0.5308280000000 1.0
C      1  0.5570000000000  0.4005330000000  0.4708940000000 1.0
C      1  0.5633800000000  0.4772830000000  0.3990850000000 1.0
C      1  0.4446660000000  0.4558800000000  0.4818160000000 1.0
C      1  0.4249230000000  0.5902390000000  0.4709010000000 1.0
C      1  0.5280570000000  0.4539090000000  0.5435970000000 1.0
C      1  0.4645170000000  0.5725840000000  0.5573110000000 1.0
C      1  0.4922990000000  0.4979820000000  0.3811570000000 1.0
C      1  0.4995240000000  0.4963010000000  0.5574490000000 1.0
C      1  0.4880800000000  0.4131560000000  0.5398780000000 1.0
C      1  0.5701060000000  0.4251880000000  0.4717060000000 1.0
C      1  0.5347900000000  0.4819670000000  0.4346740000000 1.0
C      1  0.4416000000000  0.4992370000000  0.6039470000000 1.0
C      1  0.4652400000000  0.5106450000000  0.5239580000000 1.0
C      1  0.4420840000000  0.4348780000000  0.5813900000000 1.0
C      1  0.5243190000000  0.5276830000000  0.6159340000000 1.0
C      1  0.5258580000000  0.4979560000000  0.5707820000000 1.0
C      1  0.4792100000000  0.4511670000000  0.3941630000000 1.0
C      1  0.5749690000000  0.5583670000000  0.4322950000000 1.0
C      1  0.4779540000000  0.5695040000000  0.5313980000000 1.0
C      1  0.5726560000000  0.5809190000000  0.5005010000000 1.0
C      1  0.4568170000000  0.3852740000000  0.4688320000000 1.0
C      1  0.4340760000000  0.5767950000000  0.5495990000000 1.0
C      1  0.4549700000000  0.5460200000000  0.4573170000000 1.0
C      1  0.3956840000000  0.4599740000000  0.4733460000000 1.0
C      1  0.4611280000000  0.4291800000000  0.4833670000000 1.0
C      1  0.4286970000000  0.5122670000000  0.4322510000000 1.0
C      1  0.4524090000000  0.5310400000000  0.5035000000000 1.0
C      1  0.5000680000000  0.5486770000000  0.5338220000000 1.0
C      1  0.5820950000000  0.5435850000000  0.5689090000000 1.0
C      1  0.3987580000000  0.5092540000000  0.5437870000000 1.0
C      1  0.3905210000000  0.5470750000000  0.5136030000000 1.0
C      1  0.5484690000000  0.4626240000000  0.5187470000000 1.0
C      1  0.5673300000000  0.5335080000000  0.4174510000000 1.0
C      1  0.5851520000000  0.4683430000000  0.4391910000000 1.0
C      1  0.5331260000000  0.5852080000000  0.4200510000000 1.0
C      1  0.5146430000000  0.5857100000000  0.5771890000000 1.0
C      1  0.4027020000000  0.5733040000000  0.4735460000000 1.0
C      1  0.5791550000000  0.5121190000000  0.4338190000000 1.0
C      1  0.4175490000000  0.5543200000000  0.5595970000000 1.0
C      1  0.4389220000000  0.4110700000000  0.5395240000000 1.0
C      1  0.5412560000000  0.5253530000000  0.4052120000000 1.0
C      1  0.4562990000000  0.4739280000000  0.5008950000000 1.0
C      1  0.5275880000000  0.4373830000000  0.4026200000000 1.0
C      1  0.5268910000000  0.6082110000000  0.4421590000000 1.0
C      1  0.5992810000000  0.5048310000000  0.4944000000000 1.0
C      1  0.5343560000000  0.5005210000000  0.4579370000000 1.0
C      1  0.5374800000000  0.4680590000000  0.5690030000000 1.0
C      1  0.4953600000000  0.5019980000000  0.5277990000000 1.0
C      1  0.4564090000000  0.4584060000000  0.5251140000000 1.0
C      1  0.4354210000000  0.4851990000000  0.5586710000000 1.0
C      1  0.4293090000000  0.5307490000000  0.4553090000000 1.0
C      1  0.4205270000000  0.5134770000000  0.5908950000000 1.0
C      1  0.6054140000000  0.4584670000000  0.4869290000000 1.0
C      1  0.6031390000000  0.5236770000000  0.4466100000000 1.0
C      1  0.5942250000000  0.5519630000000  0.4549610000000 1.0
C      1  0.5765520000000  0.4506140000000  0.5259000000000 1.0
C      1  0.5374100000000  0.5450390000000  0.5986230000000 1.0
C      1  0.4316040000000  0.4606570000000  0.5404810000000 1.0
C      1  0.4932340000000  0.6092930000000  0.5428950000000 1.0
C      1  0.5335060000000  0.5501930000000  0.4581960000000 1.0
C      1  0.4672930000000  0.5439040000000  0.5689700000000 1.0
C      1  0.5275360000000  0.4531870000000  0.5924290000000 1.0
C      1  0.4692410000000  0.4601770000000  0.5901120000000 1.0
C      1  0.5665170000000  0.4596000000000  0.5724020000000 1.0
C      1  0.4265920000000  0.5415400000000  0.5845960000000 1.0
C      1  0.5286010000000  0.3782950000000  0.4992600000000 1.0
C      1  0.5490240000000  0.4436870000000  0.4644870000000 1.0
C      1  0.4653310000000  0.5365530000000  0.4065010000000 1.0
C      1  0.5498980000000  0.5704390000000  0.4415540000000 1.0
C      1  0.4979770000000  0.4087600000000  0.4342640000000 1.0
C      1  0.4772090000000  0.5067120000000  0.5731350000000 1.0
C      1  0.4986060000000  0.4657970000000  0.5132900000000 1.0
C      1  0.4204830000000  0.4193200000000  0.4613130000000 1.0
C      1  0.4771860000000  0.6161400000000  0.4980530000000 1.0
C      1  0.5579360000000  0.5300470000000  0.5805780000000 1.0
C      1  0.5247180000000  0.6041300000000  0.5024250000000 1.0
C      1  0.4370610000000  0.5978710000000  0.4984650000000 1.0
C      1  0.5346790000000  0.4566450000000  0.4888890000000 1.0
C      1  0.5557550000000  0.4589830000000  0.4391050000000 1.0
C      1  0.5394440000000  0.5249020000000  0.5561270000000 1.0
C      1  0.5102910000000  0.5380600000000  0.5085420000000 1.0
C      1  0.4480340000000  0.4632540000000  0.4288300000000 1.0
C      1  0.4860550000000  0.5453520000000  0.5917010000000 1.0
C      1  0.4512460000000  0.4129560000000  0.4591770000000 1.0
C      1  0.5202820000000  0.5240190000000  0.4489340000000 1.0
C      1  0.4161420000000  0.4199240000000  0.4919540000000 1.0
C      1  0.5498700000000  0.6017100000000  0.5704330000000 1.0
C      1  0.5536440000000  0.5399510000000  0.4802390000000 1.0
C      1  0.4868960000000  0.5944820000000  0.5674220000000 1.0
C      1  0.5713020000000  0.5785550000000  0.5303640000000 1.0
C      1  0.4222130000000  0.5279250000000  0.4855060000000 1.0
C      1  0.6041050000000  0.4743990000000  0.4613440000000 1.0
C      1  0.5080060000000  0.5646880000000  0.4644930000000 1.0
C      1  0.4918010000000  0.5658310000000  0.4364020000000 1.0
C      1  0.5167370000000  0.4826080000000  0.3880300000000 1.0
C      1  0.4546780000000  0.5609920000000  0.5139650000000 1.0
C      1  0.4022770000000  0.4930020000000  0.5192840000000 1.0
C      1  0.4641040000000  0.4032760000000  0.5537570000000 1.0
C      1  0.4876750000000  0.4615750000000  0.4632170000000 1.0
C      1  0.5227650000000  0.5011560000000  0.5061340000000 1.0
C      1  0.4072380000000  0.4920760000000  0.4301580000000 1.0
C      1  0.5974330000000  0.4723710000000  0.5318040000000 1.0
C      1  0.4103070000000  0.4965210000000  0.5683590000000 1.0
C      1  0.4176910000000  0.4636820000000  0.4290750000000 1.0
C      1  0.4907640000000  0.5267050000000  0.3922830000000 1.0
C      1  0.4392980000000  0.4079930000000  0.5081160000000 1.0
C      1  0.4030700000000  0.5379380000000  0.5393070000000 1.0
C      1  0.4833930000000  0.4799970000000  0.4900770000000 1.0
C      1  0.4753750000000  0.5907010000000  0.4445730000000 1.0
C      1  0.5437360000000  0.4212590000000  0.5573770000000 1.0
C      1  0.4942470000000  0.5500190000000  0.4865280000000 1.0
C      1  0.5601510000000  0.5118100000000  0.4675990000000 1.0
C      1  0.3758160000000  0.5263180000000  0.5001760000000 1.0
C      1  0.5102980000000  0.4409770000000  0.4989100000000 1.0
C      1  0.4145280000000  0.4504910000000  0.4938090000000 1.0
C      1  0.4581560000000  0.4646740000000  0.4567660000000 1.0
C      1  0.5018590000000  0.3797720000000  0.5115810000000 1.0
C      1  0.4283860000000  0.4346010000000  0.5555060000000 1.0
C      1  0.5183020000000  0.5456490000000  0.5561780000000 1.0
C      1  0.5664800000000  0.5025660000000  0.5922590000000 1.0
C      1  0.4699850000000  0.4190210000000  0.4340870000000 1.0
C      1  0.5028510000000  0.6137730000000  0.4860810000000 1.0
C      1  0.4749640000000  0.5412390000000  0.4347010000000 1.0
C      1  0.4632020000000  0.5810930000000  0.4907190000000 1.0
C      1  0.5212850000000  0.4847990000000  0.4803640000000 1.0
END
