TITL C-950531-5884-581 -3.11098727664434e-06 125000 -888.322294195115 0 0 144 (C1) n - 1
REM
REM in /home/bkarasulu/work/CARBON/AIRSS/Generating-Clusters/EDIP-Nigel-Params/with-SteepDescent/Only-C1/SD-CG/HFTN-CG
REM
REM
REM
REM
REM
REM ./C.cell (11c1c37f851c82e70ff6c80c92926a4b)
REM
REM compiler GCC version 9.2.1 20190827 (Red Hat 9.2.1-1)
REM options -cpp -mtune=generic -march=x86-64 -g -O0 -fpre-include=/usr/include/finclude/math-vector-fortran.h
REM seed -1437831008 -1776021299 -896463737 821541855 -2046747568 840530566 -888314933 -1974686026 1082836491 -117031998 -1564975304 -1147201039 1466340852 1527429204 1715771420 1608362329 -704526297 1944191995 -2020859567 -1000958857 1090301382 -1842341689 635673751 1157080532 1784155285 -516549854 -230809136 933477066 -1821323816 629441561 -1332454789 -1951755753 -1021918999
REM
CELL 1.54180   50.00000   50.00000   50.00000   90.00000   90.00000   90.00000
LATT -1
SFAC C  
C      1  0.5466200000000  0.4087160000000  0.5033440000000 1.0
C      1  0.5092570000000  0.4352140000000  0.4233200000000 1.0
C      1  0.4226380000000  0.5581150000000  0.4614810000000 1.0
C      1  0.5090110000000  0.5550910000000  0.4173170000000 1.0
C      1  0.4354560000000  0.4457200000000  0.5201320000000 1.0
C      1  0.4079860000000  0.5044030000000  0.4546980000000 1.0
C      1  0.4095970000000  0.5309150000000  0.5117270000000 1.0
C      1  0.4382290000000  0.5404110000000  0.4443820000000 1.0
C      1  0.4724320000000  0.5006430000000  0.4551690000000 1.0
C      1  0.4866370000000  0.4793610000000  0.4158870000000 1.0
C      1  0.4815470000000  0.5829540000000  0.5446780000000 1.0
C      1  0.5264220000000  0.4801620000000  0.4440630000000 1.0
C      1  0.5253720000000  0.5916930000000  0.4454470000000 1.0
C      1  0.3986760000000  0.4781330000000  0.5167680000000 1.0
C      1  0.5975860000000  0.5247120000000  0.4968210000000 1.0
C      1  0.5450990000000  0.5198120000000  0.4156020000000 1.0
C      1  0.5577290000000  0.4964950000000  0.4774100000000 1.0
C      1  0.5911040000000  0.5124850000000  0.4394100000000 1.0
C      1  0.4262060000000  0.5259560000000  0.5635220000000 1.0
C      1  0.4951890000000  0.4894680000000  0.6032430000000 1.0
C      1  0.4924210000000  0.4293830000000  0.5887000000000 1.0
C      1  0.5481770000000  0.5521370000000  0.5097100000000 1.0
C      1  0.5054980000000  0.4594820000000  0.5084490000000 1.0
C      1  0.5659390000000  0.4281840000000  0.4639250000000 1.0
C      1  0.5963190000000  0.5349140000000  0.5225030000000 1.0
C      1  0.4881440000000  0.5332960000000  0.4209740000000 1.0
C      1  0.5620030000000  0.4594610000000  0.5686160000000 1.0
C      1  0.4981810000000  0.4060080000000  0.5019950000000 1.0
C      1  0.5295960000000  0.5808420000000  0.5480100000000 1.0
C      1  0.5399220000000  0.4141890000000  0.4592640000000 1.0
C      1  0.4741150000000  0.4481440000000  0.4541200000000 1.0
C      1  0.4353990000000  0.4286360000000  0.4358340000000 1.0
C      1  0.4351180000000  0.5675500000000  0.5349690000000 1.0
C      1  0.5872840000000  0.5473040000000  0.4562240000000 1.0
C      1  0.4605930000000  0.5209100000000  0.5995720000000 1.0
C      1  0.5599820000000  0.5796440000000  0.5064910000000 1.0
C      1  0.4901870000000  0.5182030000000  0.6045210000000 1.0
C      1  0.4589440000000  0.4157740000000  0.4252380000000 1.0
C      1  0.5070920000000  0.4594190000000  0.4104160000000 1.0
C      1  0.5524490000000  0.5025010000000  0.5679180000000 1.0
C      1  0.5250640000000  0.5032460000000  0.4015910000000 1.0
C      1  0.4533670000000  0.4520930000000  0.4801870000000 1.0
C      1  0.4939910000000  0.5222440000000  0.4489330000000 1.0
C      1  0.4617210000000  0.5507460000000  0.4303330000000 1.0
C      1  0.4643120000000  0.5874900000000  0.4923650000000 1.0
C      1  0.5338550000000  0.4592790000000  0.5799400000000 1.0
C      1  0.5489380000000  0.4732900000000  0.4615090000000 1.0
C      1  0.4672940000000  0.5404340000000  0.5538690000000 1.0
C      1  0.5215510000000  0.5096160000000  0.4516380000000 1.0
C      1  0.5431110000000  0.4427930000000  0.5320400000000 1.0
C      1  0.5297650000000  0.4994290000000  0.5416960000000 1.0
C      1  0.4990720000000  0.4553710000000  0.5540960000000 1.0
C      1  0.4937480000000  0.5662450000000  0.5231270000000 1.0
C      1  0.5247680000000  0.5337260000000  0.5973920000000 1.0
C      1  0.4964390000000  0.5329600000000  0.4941150000000 1.0
C      1  0.5864840000000  0.4323730000000  0.5210680000000 1.0
C      1  0.5335360000000  0.5139050000000  0.4786550000000 1.0
C      1  0.4618300000000  0.4172370000000  0.5467210000000 1.0
C      1  0.5234200000000  0.4164740000000  0.4853520000000 1.0
C      1  0.4764580000000  0.4182230000000  0.4478800000000 1.0
C      1  0.4421280000000  0.5701470000000  0.5060550000000 1.0
C      1  0.4906670000000  0.4229090000000  0.5505600000000 1.0
C      1  0.4312070000000  0.4966500000000  0.5696360000000 1.0
C      1  0.4773580000000  0.5690290000000  0.4489390000000 1.0
C      1  0.5227510000000  0.5563410000000  0.5300990000000 1.0
C      1  0.5674200000000  0.4803650000000  0.5010710000000 1.0
C      1  0.4348630000000  0.4216870000000  0.4643330000000 1.0
C      1  0.5059730000000  0.4610420000000  0.4594450000000 1.0
C      1  0.4582970000000  0.4748870000000  0.4230790000000 1.0
C      1  0.5232910000000  0.5570980000000  0.4634570000000 1.0
C      1  0.5214800000000  0.4485650000000  0.4859690000000 1.0
C      1  0.6107960000000  0.5004430000000  0.4867370000000 1.0
C      1  0.4601310000000  0.4095020000000  0.4710190000000 1.0
C      1  0.4708010000000  0.4754660000000  0.5944060000000 1.0
C      1  0.4518530000000  0.5065010000000  0.4771830000000 1.0
C      1  0.5495720000000  0.5713960000000  0.5668130000000 1.0
C      1  0.4579620000000  0.5246520000000  0.5213510000000 1.0
C      1  0.4483760000000  0.4828400000000  0.5483990000000 1.0
C      1  0.5215650000000  0.5338500000000  0.5504950000000 1.0
C      1  0.4486390000000  0.5011930000000  0.4244220000000 1.0
C      1  0.5036240000000  0.5838570000000  0.5643330000000 1.0
C      1  0.4241370000000  0.4634250000000  0.4754400000000 1.0
C      1  0.5729900000000  0.5222440000000  0.4602960000000 1.0
C      1  0.6090900000000  0.4929110000000  0.4549760000000 1.0
C      1  0.4692860000000  0.4468100000000  0.5855430000000 1.0
C      1  0.5004520000000  0.5604360000000  0.5822840000000 1.0
C      1  0.4512920000000  0.4204140000000  0.5190970000000 1.0
C      1  0.5200710000000  0.4625630000000  0.5338620000000 1.0
C      1  0.4255880000000  0.5486870000000  0.4906740000000 1.0
C      1  0.5613040000000  0.4731660000000  0.4201250000000 1.0
C      1  0.5241270000000  0.6057840000000  0.4706540000000 1.0
C      1  0.5222410000000  0.4827170000000  0.5939280000000 1.0
C      1  0.5367100000000  0.5478160000000  0.4239500000000 1.0
C      1  0.4974600000000  0.5002800000000  0.5348490000000 1.0
C      1  0.4234100000000  0.4942030000000  0.4769620000000 1.0
C      1  0.5269320000000  0.4194890000000  0.4355630000000 1.0
C      1  0.4708860000000  0.4154810000000  0.4971420000000 1.0
C      1  0.4482470000000  0.4944890000000  0.5945500000000 1.0
C      1  0.4949570000000  0.5461730000000  0.4676500000000 1.0
C      1  0.5508370000000  0.4540040000000  0.5015430000000 1.0
C      1  0.4950670000000  0.5372080000000  0.5653210000000 1.0
C      1  0.4892930000000  0.4825990000000  0.5010120000000 1.0
C      1  0.4351000000000  0.4557060000000  0.5477350000000 1.0
C      1  0.5071830000000  0.4079760000000  0.5299940000000 1.0
C      1  0.4918350000000  0.4839630000000  0.4714590000000 1.0
C      1  0.5381090000000  0.5964110000000  0.5174820000000 1.0
C      1  0.5692800000000  0.5022340000000  0.4207270000000 1.0
C      1  0.5742750000000  0.4845190000000  0.5706250000000 1.0
C      1  0.5956160000000  0.4744690000000  0.4928250000000 1.0
C      1  0.4492890000000  0.4363380000000  0.5654010000000 1.0
C      1  0.4597490000000  0.4774600000000  0.5009770000000 1.0
C      1  0.4479440000000  0.5393110000000  0.5782830000000 1.0
C      1  0.4276830000000  0.5150160000000  0.4377490000000 1.0
C      1  0.5489130000000  0.5723350000000  0.4383120000000 1.0
C      1  0.5161180000000  0.6004120000000  0.4970020000000 1.0
C      1  0.4394890000000  0.4578380000000  0.4394330000000 1.0
C      1  0.4444570000000  0.4965200000000  0.5211910000000 1.0
C      1  0.4206660000000  0.5413640000000  0.5379330000000 1.0
C      1  0.5190040000000  0.4350690000000  0.5808020000000 1.0
C      1  0.5703370000000  0.4560760000000  0.4502930000000 1.0
C      1  0.5683860000000  0.4289570000000  0.4962680000000 1.0
C      1  0.5401230000000  0.5418710000000  0.4825020000000 1.0
C      1  0.4160240000000  0.5010460000000  0.5074180000000 1.0
C      1  0.4797810000000  0.4811240000000  0.5515220000000 1.0
C      1  0.5734630000000  0.5726080000000  0.4558240000000 1.0
C      1  0.4129490000000  0.4551680000000  0.5030560000000 1.0
C      1  0.3959980000000  0.4758740000000  0.5446810000000 1.0
C      1  0.4592980000000  0.5886310000000  0.4636850000000 1.0
C      1  0.4956940000000  0.5062550000000  0.4062200000000 1.0
C      1  0.4525370000000  0.5335750000000  0.4923790000000 1.0
C      1  0.4867170000000  0.5227800000000  0.5185480000000 1.0
C      1  0.5358690000000  0.4135670000000  0.5300590000000 1.0
C      1  0.4928440000000  0.5818970000000  0.4986030000000 1.0
C      1  0.5327680000000  0.4746100000000  0.4059680000000 1.0
C      1  0.5697310000000  0.5851960000000  0.4807320000000 1.0
C      1  0.5686750000000  0.5331840000000  0.5205700000000 1.0
C      1  0.5405070000000  0.5447220000000  0.5716120000000 1.0
C      1  0.5005270000000  0.5796750000000  0.4324680000000 1.0
C      1  0.5705860000000  0.4448270000000  0.5430180000000 1.0
C      1  0.4568690000000  0.5697750000000  0.5551780000000 1.0
C      1  0.4063300000000  0.4818840000000  0.5690800000000 1.0
C      1  0.4320270000000  0.5844270000000  0.4584450000000 1.0
C      1  0.5967030000000  0.4659820000000  0.4626230000000 1.0
C      1  0.5385360000000  0.5064150000000  0.5937140000000 1.0
END
