TITL C-951338-5626-741 -1.58617880917966e-07 125000 -454.837701121002 0 0 74 (C1) n - 1
REM
REM in /home/bkarasulu/work/CARBON/AIRSS/Generating-Clusters/EDIP-Nigel-Params/with-SteepDescent/Only-C1/SD-CG/HFTN-CG
REM
REM
REM
REM
REM
REM ./C.cell (11c1c37f851c82e70ff6c80c92926a4b)
REM
REM compiler GCC version 9.2.1 20190827 (Red Hat 9.2.1-1)
REM options -cpp -mtune=generic -march=x86-64 -g -O0 -fpre-include=/usr/include/finclude/math-vector-fortran.h
REM seed 1553767638 553736024 1766605871 562161834 -484253322 869337947 -1472876087 694344924 -362366717 1953039758 1301000558 -905516165 -275043053 -1504609492 140687070 1978098 2098596996 1950074650 1731471770 1351641930 778510635 -981725175 -1958575067 -1984351213 -167062490 -2143097100 -624276812 -1188244409 867808989 -1860421193 -33593743 1271473613 895752625
REM
CELL 1.54180   50.00000   50.00000   50.00000   90.00000   90.00000   90.00000
LATT -1
SFAC C  
C      1  0.5347790000000  0.5362330000000  0.4445200000000 1.0
C      1  0.5051050000000  0.5589950000000  0.5324240000000 1.0
C      1  0.4596160000000  0.5039160000000  0.4512190000000 1.0
C      1  0.4837850000000  0.4789520000000  0.5920200000000 1.0
C      1  0.5165380000000  0.4889710000000  0.4669700000000 1.0
C      1  0.5463640000000  0.4487290000000  0.4829330000000 1.0
C      1  0.4309580000000  0.4950880000000  0.5281820000000 1.0
C      1  0.5742070000000  0.5233400000000  0.4909490000000 1.0
C      1  0.4500810000000  0.4487660000000  0.5235110000000 1.0
C      1  0.4652350000000  0.5678520000000  0.4675650000000 1.0
C      1  0.5727320000000  0.4792360000000  0.5108530000000 1.0
C      1  0.5095560000000  0.4250080000000  0.5174830000000 1.0
C      1  0.4981340000000  0.5308460000000  0.5223550000000 1.0
C      1  0.5594140000000  0.5394270000000  0.5105160000000 1.0
C      1  0.5036550000000  0.5860350000000  0.4900630000000 1.0
C      1  0.4577290000000  0.4754860000000  0.5761250000000 1.0
C      1  0.4602070000000  0.4552760000000  0.4644960000000 1.0
C      1  0.4205020000000  0.5156950000000  0.5111850000000 1.0
C      1  0.5414170000000  0.4653860000000  0.5461560000000 1.0
C      1  0.5635210000000  0.4517580000000  0.5069650000000 1.0
C      1  0.4623180000000  0.5717900000000  0.5162890000000 1.0
C      1  0.4872580000000  0.4256340000000  0.4996180000000 1.0
C      1  0.4979070000000  0.5143910000000  0.4708530000000 1.0
C      1  0.4688430000000  0.5222400000000  0.5171460000000 1.0
C      1  0.4258890000000  0.5053320000000  0.4850830000000 1.0
C      1  0.5124810000000  0.5766920000000  0.4627180000000 1.0
C      1  0.5566220000000  0.4900090000000  0.5356770000000 1.0
C      1  0.5284410000000  0.4262070000000  0.4835750000000 1.0
C      1  0.5482630000000  0.4921790000000  0.4637830000000 1.0
C      1  0.5389140000000  0.5351660000000  0.5585250000000 1.0
C      1  0.4720130000000  0.5051560000000  0.4229960000000 1.0
C      1  0.4548210000000  0.5436430000000  0.4796960000000 1.0
C      1  0.4716830000000  0.4509580000000  0.5012210000000 1.0
C      1  0.4725230000000  0.5007100000000  0.4936460000000 1.0
C      1  0.5342670000000  0.5491250000000  0.4952730000000 1.0
C      1  0.5526130000000  0.4436070000000  0.5319730000000 1.0
C      1  0.4496290000000  0.4748230000000  0.4449990000000 1.0
C      1  0.4929460000000  0.4842180000000  0.5365790000000 1.0
C      1  0.5330710000000  0.4561790000000  0.4371490000000 1.0
C      1  0.4605180000000  0.4585670000000  0.5513960000000 1.0
C      1  0.5063060000000  0.5102650000000  0.5418210000000 1.0
C      1  0.5113610000000  0.4626930000000  0.5516820000000 1.0
C      1  0.5201900000000  0.5713440000000  0.5103140000000 1.0
C      1  0.4649210000000  0.4758710000000  0.4183460000000 1.0
C      1  0.4887570000000  0.4775400000000  0.5067350000000 1.0
C      1  0.4523490000000  0.5465030000000  0.5084640000000 1.0
C      1  0.4735330000000  0.5823540000000  0.4921670000000 1.0
C      1  0.5083850000000  0.4697520000000  0.4447990000000 1.0
C      1  0.4740920000000  0.4332390000000  0.5501140000000 1.0
C      1  0.5519490000000  0.4625720000000  0.4571000000000 1.0
C      1  0.5153940000000  0.4779590000000  0.4949360000000 1.0
C      1  0.5359170000000  0.5581060000000  0.4653280000000 1.0
C      1  0.4582220000000  0.5014120000000  0.5402690000000 1.0
C      1  0.4563430000000  0.5063480000000  0.5706220000000 1.0
C      1  0.5569710000000  0.5174510000000  0.4488990000000 1.0
C      1  0.4333910000000  0.4706950000000  0.5122830000000 1.0
C      1  0.4412210000000  0.5218490000000  0.4656660000000 1.0
C      1  0.5005380000000  0.4271150000000  0.4738300000000 1.0
C      1  0.4457800000000  0.4832990000000  0.4876600000000 1.0
C      1  0.5761690000000  0.5318680000000  0.4641080000000 1.0
C      1  0.4889890000000  0.4497280000000  0.4578900000000 1.0
C      1  0.5021930000000  0.4348220000000  0.5440290000000 1.0
C      1  0.5587760000000  0.4982330000000  0.4920540000000 1.0
C      1  0.5066440000000  0.5249450000000  0.4414800000000 1.0
C      1  0.5544660000000  0.5234290000000  0.5366370000000 1.0
C      1  0.5317570000000  0.5004570000000  0.5071010000000 1.0
C      1  0.4895010000000  0.5452490000000  0.4297690000000 1.0
C      1  0.4885700000000  0.5648870000000  0.4497860000000 1.0
C      1  0.5000020000000  0.4921590000000  0.4230140000000 1.0
C      1  0.5058260000000  0.4664840000000  0.5796160000000 1.0
C      1  0.5061360000000  0.5180530000000  0.5695970000000 1.0
C      1  0.5218230000000  0.5568190000000  0.5547750000000 1.0
C      1  0.5153400000000  0.5252100000000  0.4976340000000 1.0
C      1  0.4836340000000  0.5096700000000  0.5867860000000 1.0
END
