TITL C-951341-1326-269 -1.51746427651105e-06 125000 -676.214526541801 0 0 109 (C1) n - 1
REM
REM in /home/bkarasulu/work/CARBON/AIRSS/Generating-Clusters/EDIP-Nigel-Params/with-SteepDescent/Only-C1/SD-CG/HFTN-CG
REM
REM
REM
REM
REM
REM ./C.cell (11c1c37f851c82e70ff6c80c92926a4b)
REM
REM compiler GCC version 9.2.1 20190827 (Red Hat 9.2.1-1)
REM options -cpp -mtune=generic -march=x86-64 -g -O0 -fpre-include=/usr/include/finclude/math-vector-fortran.h
REM seed 483640947 1672039983 -984980832 1999969798 386423317 334997206 -227331850 1694412555 -1954460319 1674714197 -180314603 -1190344180 134921334 -1786903717 1110089839 1955205805 901058296 -1565212114 -1329952382 -1249762074 1887133118 -146723992 -1528255384 -1983009717 657558012 1749264441 -292506596 -1730828685 1563901446 -1732493823 992646186 -1477273387 1665078093
REM
CELL 1.54180   50.00000   50.00000   50.00000   90.00000   90.00000   90.00000
LATT -1
SFAC C  
C      1  0.4993000000000  0.5786240000000  0.5039220000000 1.0
C      1  0.5161350000000  0.5171720000000  0.4186590000000 1.0
C      1  0.5165860000000  0.4690120000000  0.4254250000000 1.0
C      1  0.4907020000000  0.5838860000000  0.4525670000000 1.0
C      1  0.5323790000000  0.4482750000000  0.5685600000000 1.0
C      1  0.4199130000000  0.4858600000000  0.4575300000000 1.0
C      1  0.5110460000000  0.5870830000000  0.5302040000000 1.0
C      1  0.5172770000000  0.4336030000000  0.4568690000000 1.0
C      1  0.5792070000000  0.5182390000000  0.4764980000000 1.0
C      1  0.5687440000000  0.4780000000000  0.5439270000000 1.0
C      1  0.4115340000000  0.5155730000000  0.4964400000000 1.0
C      1  0.4716380000000  0.4988850000000  0.5410700000000 1.0
C      1  0.4592510000000  0.4916070000000  0.4337610000000 1.0
C      1  0.5090130000000  0.5508890000000  0.5048110000000 1.0
C      1  0.5138840000000  0.4085010000000  0.4742890000000 1.0
C      1  0.5545660000000  0.4209790000000  0.4983400000000 1.0
C      1  0.4198540000000  0.4457910000000  0.5252030000000 1.0
C      1  0.5507340000000  0.5195360000000  0.5560740000000 1.0
C      1  0.5736180000000  0.4574980000000  0.5235730000000 1.0
C      1  0.5243180000000  0.4802690000000  0.4731520000000 1.0
C      1  0.5420850000000  0.4775860000000  0.4973130000000 1.0
C      1  0.4779410000000  0.4948950000000  0.4587820000000 1.0
C      1  0.4691800000000  0.4224880000000  0.5440150000000 1.0
C      1  0.5684500000000  0.5107580000000  0.4296230000000 1.0
C      1  0.5492870000000  0.4382360000000  0.5232880000000 1.0
C      1  0.4713590000000  0.5557320000000  0.5376050000000 1.0
C      1  0.5544660000000  0.5751370000000  0.4707460000000 1.0
C      1  0.5638530000000  0.5582100000000  0.4500580000000 1.0
C      1  0.5152270000000  0.5084240000000  0.5886920000000 1.0
C      1  0.5632310000000  0.5290660000000  0.4520640000000 1.0
C      1  0.4269390000000  0.5328160000000  0.5116830000000 1.0
C      1  0.4901300000000  0.4951090000000  0.5809890000000 1.0
C      1  0.4748350000000  0.5322450000000  0.4143770000000 1.0
C      1  0.4708450000000  0.5114760000000  0.5945720000000 1.0
C      1  0.5053940000000  0.4564310000000  0.4744320000000 1.0
C      1  0.4678760000000  0.4094030000000  0.4838440000000 1.0
C      1  0.4660210000000  0.5710310000000  0.4448740000000 1.0
C      1  0.4808460000000  0.5387010000000  0.5973440000000 1.0
C      1  0.5012400000000  0.5005380000000  0.4982230000000 1.0
C      1  0.4571560000000  0.4472850000000  0.5350800000000 1.0
C      1  0.4471480000000  0.4138830000000  0.4669780000000 1.0
C      1  0.4803040000000  0.4656450000000  0.4642310000000 1.0
C      1  0.4452210000000  0.5162660000000  0.5816820000000 1.0
C      1  0.4952690000000  0.5712780000000  0.5510290000000 1.0
C      1  0.5667740000000  0.5074140000000  0.5341120000000 1.0
C      1  0.4451920000000  0.5519860000000  0.5526940000000 1.0
C      1  0.5107850000000  0.5131140000000  0.4486280000000 1.0
C      1  0.5016910000000  0.4427580000000  0.4295190000000 1.0
C      1  0.5698550000000  0.4668710000000  0.4913770000000 1.0
C      1  0.5092850000000  0.5386110000000  0.5898320000000 1.0
C      1  0.4426460000000  0.5034070000000  0.5539870000000 1.0
C      1  0.5039840000000  0.4920980000000  0.4101660000000 1.0
C      1  0.5712210000000  0.5756040000000  0.4934600000000 1.0
C      1  0.5448840000000  0.5044600000000  0.5125110000000 1.0
C      1  0.5367150000000  0.5214080000000  0.4647440000000 1.0
C      1  0.4212280000000  0.4415650000000  0.4955960000000 1.0
C      1  0.4333870000000  0.5070320000000  0.4411820000000 1.0
C      1  0.5790060000000  0.5450240000000  0.5333030000000 1.0
C      1  0.4455210000000  0.5284990000000  0.4590820000000 1.0
C      1  0.4352870000000  0.5579570000000  0.4994170000000 1.0
C      1  0.4470480000000  0.5458250000000  0.5805560000000 1.0
C      1  0.4746680000000  0.5026720000000  0.4109250000000 1.0
C      1  0.5730370000000  0.5715880000000  0.5213140000000 1.0
C      1  0.4742080000000  0.4584680000000  0.5124070000000 1.0
C      1  0.5101170000000  0.5637490000000  0.4526550000000 1.0
C      1  0.5239500000000  0.5781730000000  0.4739330000000 1.0
C      1  0.5193690000000  0.4773660000000  0.5374710000000 1.0
C      1  0.4565950000000  0.4676390000000  0.5582710000000 1.0
C      1  0.4578350000000  0.5084770000000  0.4812070000000 1.0
C      1  0.5809720000000  0.4886190000000  0.4706420000000 1.0
C      1  0.4693040000000  0.5413360000000  0.4432090000000 1.0
C      1  0.4328500000000  0.5552710000000  0.4699960000000 1.0
C      1  0.5487530000000  0.5266350000000  0.4938870000000 1.0
C      1  0.4962310000000  0.5307680000000  0.4882500000000 1.0
C      1  0.4739790000000  0.4880320000000  0.5105610000000 1.0
C      1  0.5367200000000  0.5515140000000  0.5066050000000 1.0
C      1  0.5423650000000  0.5742850000000  0.5296460000000 1.0
C      1  0.5174920000000  0.4082220000000  0.5475740000000 1.0
C      1  0.5411570000000  0.4752510000000  0.5581110000000 1.0
C      1  0.5638570000000  0.4403570000000  0.4779340000000 1.0
C      1  0.5027530000000  0.4477720000000  0.5658920000000 1.0
C      1  0.5165810000000  0.5044600000000  0.5245130000000 1.0
C      1  0.4834640000000  0.5259840000000  0.5308220000000 1.0
C      1  0.4829390000000  0.4687870000000  0.5717990000000 1.0
C      1  0.5401090000000  0.4256170000000  0.5500230000000 1.0
C      1  0.4337590000000  0.4383220000000  0.4699150000000 1.0
C      1  0.5372240000000  0.4018260000000  0.4878820000000 1.0
C      1  0.5640800000000  0.5441210000000  0.5584740000000 1.0
C      1  0.4310500000000  0.5290850000000  0.5402900000000 1.0
C      1  0.5403450000000  0.5004510000000  0.5753640000000 1.0
C      1  0.5422460000000  0.5632550000000  0.5577200000000 1.0
C      1  0.4992910000000  0.4450710000000  0.5017220000000 1.0
C      1  0.5014550000000  0.5386860000000  0.4070720000000 1.0
C      1  0.5462930000000  0.4426970000000  0.4541460000000 1.0
C      1  0.5680180000000  0.4856980000000  0.4436250000000 1.0
C      1  0.5266000000000  0.4579190000000  0.5157520000000 1.0
C      1  0.4138790000000  0.4687250000000  0.5052330000000 1.0
C      1  0.4933190000000  0.4155070000000  0.4937750000000 1.0
C      1  0.4293910000000  0.4587690000000  0.4486830000000 1.0
C      1  0.4523280000000  0.4621970000000  0.4294990000000 1.0
C      1  0.4179160000000  0.4906220000000  0.4865020000000 1.0
C      1  0.4958550000000  0.5378250000000  0.4581060000000 1.0
C      1  0.4695590000000  0.5310910000000  0.5005640000000 1.0
C      1  0.4419530000000  0.5783500000000  0.4566340000000 1.0
C      1  0.4743670000000  0.4469080000000  0.4420330000000 1.0
C      1  0.4946150000000  0.4224770000000  0.5557000000000 1.0
C      1  0.5408160000000  0.4715920000000  0.4467180000000 1.0
C      1  0.5152360000000  0.5537120000000  0.5645750000000 1.0
C      1  0.4625920000000  0.5684970000000  0.5098050000000 1.0
END
