TITL C-950534-5965-122 -1.73735248717268e-06 125000 -725.382627430481 0 0 117 (C1) n - 1
REM
REM in /home/bkarasulu/work/CARBON/AIRSS/Generating-Clusters/EDIP-Nigel-Params/with-SteepDescent/Only-C1/SD-CG/HFTN-CG
REM
REM
REM
REM
REM
REM ./C.cell (11c1c37f851c82e70ff6c80c92926a4b)
REM
REM compiler GCC version 9.2.1 20190827 (Red Hat 9.2.1-1)
REM options -cpp -mtune=generic -march=x86-64 -g -O0 -fpre-include=/usr/include/finclude/math-vector-fortran.h
REM seed -538371436 1737057250 -1543723426 -291953406 629355842 1491315970 -1490891690 1374468093 -587651826 1128978221 595686987 -1437641093 -2094858747 -1217291137 585526377 -773608337 390218836 -266566127 -362119287 1495173739 1273114449 -1399952872 -264648925 -931676549 -1891130631 -1571236328 1160596460 1431392602 818835141 1600776114 -745050505 886330653 -1332463680
REM
CELL 1.54180   50.00000   50.00000   50.00000   90.00000   90.00000   90.00000
LATT -1
SFAC C  
C      1  0.5343730000000  0.4166380000000  0.4748000000000 1.0
C      1  0.5266510000000  0.5851100000000  0.5380610000000 1.0
C      1  0.5280080000000  0.4150940000000  0.5291790000000 1.0
C      1  0.4621910000000  0.4518150000000  0.4356220000000 1.0
C      1  0.5451610000000  0.4360570000000  0.5399640000000 1.0
C      1  0.4715850000000  0.5651810000000  0.5446130000000 1.0
C      1  0.5462560000000  0.5691840000000  0.5176430000000 1.0
C      1  0.5284960000000  0.4656600000000  0.5126350000000 1.0
C      1  0.5843450000000  0.5178480000000  0.5596530000000 1.0
C      1  0.5778940000000  0.4927580000000  0.4702440000000 1.0
C      1  0.4941000000000  0.4328570000000  0.4846690000000 1.0
C      1  0.5366910000000  0.4969940000000  0.5131160000000 1.0
C      1  0.4590660000000  0.4896450000000  0.5849280000000 1.0
C      1  0.5038830000000  0.5962000000000  0.5261660000000 1.0
C      1  0.5425460000000  0.5049290000000  0.4093190000000 1.0
C      1  0.5260270000000  0.4546760000000  0.5851690000000 1.0
C      1  0.4277710000000  0.5356540000000  0.5085030000000 1.0
C      1  0.4212440000000  0.5477040000000  0.4819600000000 1.0
C      1  0.4435020000000  0.4787440000000  0.5297180000000 1.0
C      1  0.4473630000000  0.4727360000000  0.4210800000000 1.0
C      1  0.5169410000000  0.5211130000000  0.4761390000000 1.0
C      1  0.5659490000000  0.4984320000000  0.5690190000000 1.0
C      1  0.5670710000000  0.4709400000000  0.5606320000000 1.0
C      1  0.5509570000000  0.4405000000000  0.4698910000000 1.0
C      1  0.4234760000000  0.4464160000000  0.5003400000000 1.0
C      1  0.4325790000000  0.5213950000000  0.4386600000000 1.0
C      1  0.4477440000000  0.4343760000000  0.4554280000000 1.0
C      1  0.4779400000000  0.5461100000000  0.5051990000000 1.0
C      1  0.5086300000000  0.5189310000000  0.5927440000000 1.0
C      1  0.5880870000000  0.5090000000000  0.5165880000000 1.0
C      1  0.4616810000000  0.5356620000000  0.4393360000000 1.0
C      1  0.4584130000000  0.4108260000000  0.5078990000000 1.0
C      1  0.4071630000000  0.5177550000000  0.5206490000000 1.0
C      1  0.4624910000000  0.5627720000000  0.4501650000000 1.0
C      1  0.5747280000000  0.5615160000000  0.5025710000000 1.0
C      1  0.5020220000000  0.5222980000000  0.5387480000000 1.0
C      1  0.4622200000000  0.5135100000000  0.4813590000000 1.0
C      1  0.5867880000000  0.5221850000000  0.4666750000000 1.0
C      1  0.5010720000000  0.4925090000000  0.4188030000000 1.0
C      1  0.4591170000000  0.4524470000000  0.5363040000000 1.0
C      1  0.5382520000000  0.4546630000000  0.4190990000000 1.0
C      1  0.4943040000000  0.5481600000000  0.5554840000000 1.0
C      1  0.4429900000000  0.4320210000000  0.5196180000000 1.0
C      1  0.5328840000000  0.5303810000000  0.5851710000000 1.0
C      1  0.4661450000000  0.5740780000000  0.4988170000000 1.0
C      1  0.4998320000000  0.4221230000000  0.5327010000000 1.0
C      1  0.5073490000000  0.4935360000000  0.6044690000000 1.0
C      1  0.4301850000000  0.4906680000000  0.4354700000000 1.0
C      1  0.4774340000000  0.5188880000000  0.4583510000000 1.0
C      1  0.5726660000000  0.5477200000000  0.4768100000000 1.0
C      1  0.5774700000000  0.5414330000000  0.5444700000000 1.0
C      1  0.5337680000000  0.4085200000000  0.5020760000000 1.0
C      1  0.5182720000000  0.4827880000000  0.4674910000000 1.0
C      1  0.4229600000000  0.4489080000000  0.4673020000000 1.0
C      1  0.5138900000000  0.5645030000000  0.4452620000000 1.0
C      1  0.4264850000000  0.5691190000000  0.5273330000000 1.0
C      1  0.4853870000000  0.4816090000000  0.5012440000000 1.0
C      1  0.4332060000000  0.4749250000000  0.5015320000000 1.0
C      1  0.4876850000000  0.4124430000000  0.5075810000000 1.0
C      1  0.5774920000000  0.5275160000000  0.4382260000000 1.0
C      1  0.4726530000000  0.5807550000000  0.4697850000000 1.0
C      1  0.4217080000000  0.4816470000000  0.5500490000000 1.0
C      1  0.5180270000000  0.5674810000000  0.5607140000000 1.0
C      1  0.5921240000000  0.5466660000000  0.5202590000000 1.0
C      1  0.4157660000000  0.5259230000000  0.4633470000000 1.0
C      1  0.5247060000000  0.5250770000000  0.5222710000000 1.0
C      1  0.4015500000000  0.4961150000000  0.5028560000000 1.0
C      1  0.4756090000000  0.5351180000000  0.4143420000000 1.0
C      1  0.5251900000000  0.5645610000000  0.4954180000000 1.0
C      1  0.5033990000000  0.4672050000000  0.5959810000000 1.0
C      1  0.5457350000000  0.4515410000000  0.5653530000000 1.0
C      1  0.5398960000000  0.5501570000000  0.5665460000000 1.0
C      1  0.4929180000000  0.4934300000000  0.4493300000000 1.0
C      1  0.5676150000000  0.4810610000000  0.4459320000000 1.0
C      1  0.5624090000000  0.5026300000000  0.5311060000000 1.0
C      1  0.5250110000000  0.5285940000000  0.4105660000000 1.0
C      1  0.4976840000000  0.4524770000000  0.5313270000000 1.0
C      1  0.4362280000000  0.5770010000000  0.5011900000000 1.0
C      1  0.4667750000000  0.4766500000000  0.4548900000000 1.0
C      1  0.5076360000000  0.4650060000000  0.4903020000000 1.0
C      1  0.4083680000000  0.4996990000000  0.4751540000000 1.0
C      1  0.4564650000000  0.5242350000000  0.5071320000000 1.0
C      1  0.4871500000000  0.4967860000000  0.5309230000000 1.0
C      1  0.5325050000000  0.4784170000000  0.4010810000000 1.0
C      1  0.4614030000000  0.5163530000000  0.5737200000000 1.0
C      1  0.4777970000000  0.5862270000000  0.5243400000000 1.0
C      1  0.4151500000000  0.5108740000000  0.5486750000000 1.0
C      1  0.4444680000000  0.5549190000000  0.5446440000000 1.0
C      1  0.4979330000000  0.5938260000000  0.4652170000000 1.0
C      1  0.5602370000000  0.5507840000000  0.4414960000000 1.0
C      1  0.4941450000000  0.4750930000000  0.5503920000000 1.0
C      1  0.4358230000000  0.4718660000000  0.5752090000000 1.0
C      1  0.5051380000000  0.4255830000000  0.4363780000000 1.0
C      1  0.4614640000000  0.4694320000000  0.4858870000000 1.0
C      1  0.4555430000000  0.4494440000000  0.5665340000000 1.0
C      1  0.5483980000000  0.4592550000000  0.4465470000000 1.0
C      1  0.5623690000000  0.5041110000000  0.4300500000000 1.0
C      1  0.5479490000000  0.5439940000000  0.5378060000000 1.0
C      1  0.4193810000000  0.4781010000000  0.4593560000000 1.0
C      1  0.5680360000000  0.4407750000000  0.5225820000000 1.0
C      1  0.5075120000000  0.4175770000000  0.4627360000000 1.0
C      1  0.5819600000000  0.4633340000000  0.5357190000000 1.0
C      1  0.5367870000000  0.5023390000000  0.4832850000000 1.0
C      1  0.4803510000000  0.4685130000000  0.5761380000000 1.0
C      1  0.4967890000000  0.5194730000000  0.4050850000000 1.0
C      1  0.4395140000000  0.5277970000000  0.5568040000000 1.0
C      1  0.4590100000000  0.5048480000000  0.5315630000000 1.0
C      1  0.5843160000000  0.4716400000000  0.4894320000000 1.0
C      1  0.5327260000000  0.5476940000000  0.4323600000000 1.0
C      1  0.4858620000000  0.5315040000000  0.5791300000000 1.0
C      1  0.5120220000000  0.4419200000000  0.4150410000000 1.0
C      1  0.4960620000000  0.4653370000000  0.4059090000000 1.0
C      1  0.5612080000000  0.4530600000000  0.4956190000000 1.0
C      1  0.5960590000000  0.4808680000000  0.5145710000000 1.0
C      1  0.5101350000000  0.5392040000000  0.4983820000000 1.0
C      1  0.5230500000000  0.5791790000000  0.4691310000000 1.0
C      1  0.4633970000000  0.4386700000000  0.4817090000000 1.0
END
