TITL C-950525-1983-16 1.45023768558286e-06 125000 -1062.27607043142 0 0 169 (C1) n - 1
REM
REM in /home/bkarasulu/work/CARBON/AIRSS/Generating-Clusters/EDIP-Nigel-Params/with-SteepDescent/Only-C1/SD-CG/HFTN-CG
REM
REM
REM
REM
REM
REM ./C.cell (11c1c37f851c82e70ff6c80c92926a4b)
REM
REM compiler GCC version 9.2.1 20190827 (Red Hat 9.2.1-1)
REM options -cpp -mtune=generic -march=x86-64 -g -O0 -fpre-include=/usr/include/finclude/math-vector-fortran.h
REM seed -1612375238 -1857148224 2001563766 -372738002 -1824377042 -978000301 -445249890 1495794242 -1478444612 -110770927 -86348138 562592547 -1933835853 1329524475 1440226668 -455072364 -142819676 1345950828 -1215199483 -977272545 1592374741 -1076569474 -1386376529 -1947120870 1397313139 -794736166 786035750 693439087 1774282915 21157911 -940314992 803354586 1627848033
REM
CELL 1.54180   50.00000   50.00000   50.00000   90.00000   90.00000   90.00000
LATT -1
SFAC C  
C      1  0.4702980000000  0.4299390000000  0.4037000000000 1.0
C      1  0.5736790000000  0.5285200000000  0.4912610000000 1.0
C      1  0.5444320000000  0.4028230000000  0.4870270000000 1.0
C      1  0.5226250000000  0.4133320000000  0.5467570000000 1.0
C      1  0.5486790000000  0.4447850000000  0.4558690000000 1.0
C      1  0.5275760000000  0.4882360000000  0.5034130000000 1.0
C      1  0.4953160000000  0.4854130000000  0.4396480000000 1.0
C      1  0.4444750000000  0.4758290000000  0.4964960000000 1.0
C      1  0.3916540000000  0.4664210000000  0.5062370000000 1.0
C      1  0.3961770000000  0.4900560000000  0.4895540000000 1.0
C      1  0.4320520000000  0.4414350000000  0.5695720000000 1.0
C      1  0.5205850000000  0.5243760000000  0.4361290000000 1.0
C      1  0.6040640000000  0.5645550000000  0.5253190000000 1.0
C      1  0.4953560000000  0.4185770000000  0.5595370000000 1.0
C      1  0.5441320000000  0.5218990000000  0.5839210000000 1.0
C      1  0.4794200000000  0.5930000000000  0.5212390000000 1.0
C      1  0.5402570000000  0.5780200000000  0.4407880000000 1.0
C      1  0.5311590000000  0.4905430000000  0.4744740000000 1.0
C      1  0.5552940000000  0.5572380000000  0.4275840000000 1.0
C      1  0.5148250000000  0.4758440000000  0.5708810000000 1.0
C      1  0.5014540000000  0.5236950000000  0.4974560000000 1.0
C      1  0.4421300000000  0.5394000000000  0.5862140000000 1.0
C      1  0.5387680000000  0.5369130000000  0.4146600000000 1.0
C      1  0.5684480000000  0.5961770000000  0.5069170000000 1.0
C      1  0.4788250000000  0.4760300000000  0.3925980000000 1.0
C      1  0.3920580000000  0.5175350000000  0.5005890000000 1.0
C      1  0.4021910000000  0.5000280000000  0.5470710000000 1.0
C      1  0.4887090000000  0.4647910000000  0.5787990000000 1.0
C      1  0.5435630000000  0.4355340000000  0.5520560000000 1.0
C      1  0.5124880000000  0.4443560000000  0.5107960000000 1.0
C      1  0.5161800000000  0.4148000000000  0.4236530000000 1.0
C      1  0.4762690000000  0.5757410000000  0.5657980000000 1.0
C      1  0.4929000000000  0.5341380000000  0.4432020000000 1.0
C      1  0.5591580000000  0.5552060000000  0.5301020000000 1.0
C      1  0.4425380000000  0.4495060000000  0.4500120000000 1.0
C      1  0.4135660000000  0.5489430000000  0.5370680000000 1.0
C      1  0.4419730000000  0.4208150000000  0.4412190000000 1.0
C      1  0.4265590000000  0.4930870000000  0.4465550000000 1.0
C      1  0.4641910000000  0.5314250000000  0.5493490000000 1.0
C      1  0.4369500000000  0.4723740000000  0.4265310000000 1.0
C      1  0.4920040000000  0.5037730000000  0.3975170000000 1.0
C      1  0.5588460000000  0.5854350000000  0.4619300000000 1.0
C      1  0.5209910000000  0.5150300000000  0.5414670000000 1.0
C      1  0.5405210000000  0.4595050000000  0.4151870000000 1.0
C      1  0.5374380000000  0.5495540000000  0.5825050000000 1.0
C      1  0.4852260000000  0.5530720000000  0.5472780000000 1.0
C      1  0.5475860000000  0.4761540000000  0.5210540000000 1.0
C      1  0.4893860000000  0.4503220000000  0.4040120000000 1.0
C      1  0.4204460000000  0.5215280000000  0.4364720000000 1.0
C      1  0.4662290000000  0.4138590000000  0.4261270000000 1.0
C      1  0.5357640000000  0.5196890000000  0.4638620000000 1.0
C      1  0.5778230000000  0.4361660000000  0.4939350000000 1.0
C      1  0.4420980000000  0.5355560000000  0.4181140000000 1.0
C      1  0.5840120000000  0.4449200000000  0.4404550000000 1.0
C      1  0.4751880000000  0.5353740000000  0.4850480000000 1.0
C      1  0.5755630000000  0.5385740000000  0.5512820000000 1.0
C      1  0.5294160000000  0.5064970000000  0.6041440000000 1.0
C      1  0.5127600000000  0.4990490000000  0.4189980000000 1.0
C      1  0.4517650000000  0.4859490000000  0.4041670000000 1.0
C      1  0.5224940000000  0.5904740000000  0.5454660000000 1.0
C      1  0.5732830000000  0.4812220000000  0.5673400000000 1.0
C      1  0.4337950000000  0.5404880000000  0.4560570000000 1.0
C      1  0.4735120000000  0.5083400000000  0.5667800000000 1.0
C      1  0.5205010000000  0.5505430000000  0.3965610000000 1.0
C      1  0.6050080000000  0.4370100000000  0.4832880000000 1.0
C      1  0.4470390000000  0.5084190000000  0.5850040000000 1.0
C      1  0.4427960000000  0.4748400000000  0.5522400000000 1.0
C      1  0.4097350000000  0.4445450000000  0.4968170000000 1.0
C      1  0.4913470000000  0.5432300000000  0.5991450000000 1.0
C      1  0.4504530000000  0.4951230000000  0.4657070000000 1.0
C      1  0.4136140000000  0.5552120000000  0.4723600000000 1.0
C      1  0.5769030000000  0.4894120000000  0.4244570000000 1.0
C      1  0.5041530000000  0.6085030000000  0.4710850000000 1.0
C      1  0.4309940000000  0.5480300000000  0.5606940000000 1.0
C      1  0.4718390000000  0.4811930000000  0.5528230000000 1.0
C      1  0.5756480000000  0.5474170000000  0.4462660000000 1.0
C      1  0.5305400000000  0.4776350000000  0.5963130000000 1.0
C      1  0.5596030000000  0.4240050000000  0.4743010000000 1.0
C      1  0.5127080000000  0.5839470000000  0.4312050000000 1.0
C      1  0.4060040000000  0.4797550000000  0.4636740000000 1.0
C      1  0.5552120000000  0.4731450000000  0.4691360000000 1.0
C      1  0.4842380000000  0.4548220000000  0.5141450000000 1.0
C      1  0.5515500000000  0.5412070000000  0.5043310000000 1.0
C      1  0.4407960000000  0.4595120000000  0.5924210000000 1.0
C      1  0.5783320000000  0.5767750000000  0.5242080000000 1.0
C      1  0.5077100000000  0.5040200000000  0.5663940000000 1.0
C      1  0.4621790000000  0.5959120000000  0.5462650000000 1.0
C      1  0.4752190000000  0.5679980000000  0.4070740000000 1.0
C      1  0.5673150000000  0.4653550000000  0.4973370000000 1.0
C      1  0.5068940000000  0.5028450000000  0.5172240000000 1.0
C      1  0.5578330000000  0.4663840000000  0.5889130000000 1.0
C      1  0.5155470000000  0.5444660000000  0.5508550000000 1.0
C      1  0.5764080000000  0.4931940000000  0.4547630000000 1.0
C      1  0.4857690000000  0.4063110000000  0.5174860000000 1.0
C      1  0.5317570000000  0.5639590000000  0.5369640000000 1.0
C      1  0.5063440000000  0.4790860000000  0.4654090000000 1.0
C      1  0.4637880000000  0.5125080000000  0.4137190000000 1.0
C      1  0.4685730000000  0.5766810000000  0.4542630000000 1.0
C      1  0.4543490000000  0.5231910000000  0.5223650000000 1.0
C      1  0.5830000000000  0.5705000000000  0.4615250000000 1.0
C      1  0.5295710000000  0.4564970000000  0.5342760000000 1.0
C      1  0.4731370000000  0.4205050000000  0.5399800000000 1.0
C      1  0.4009560000000  0.5230470000000  0.5281980000000 1.0
C      1  0.5083020000000  0.6019150000000  0.5208510000000 1.0
C      1  0.6045690000000  0.5140800000000  0.5277330000000 1.0
C      1  0.5182010000000  0.4382840000000  0.4533820000000 1.0
C      1  0.6027000000000  0.5401780000000  0.5407460000000 1.0
C      1  0.5192930000000  0.5931980000000  0.4906190000000 1.0
C      1  0.5361730000000  0.4865310000000  0.4066790000000 1.0
C      1  0.5004430000000  0.4521740000000  0.4743790000000 1.0
C      1  0.4557230000000  0.5635380000000  0.4270090000000 1.0
C      1  0.4691190000000  0.4548800000000  0.4659010000000 1.0
C      1  0.4961130000000  0.4353120000000  0.5838730000000 1.0
C      1  0.5148420000000  0.4138210000000  0.5173160000000 1.0
C      1  0.5577920000000  0.5056830000000  0.4088780000000 1.0
C      1  0.6005670000000  0.4827740000000  0.4696570000000 1.0
C      1  0.4369610000000  0.4053070000000  0.4639670000000 1.0
C      1  0.4477670000000  0.4139060000000  0.4879980000000 1.0
C      1  0.4654330000000  0.6010450000000  0.4973150000000 1.0
C      1  0.5258680000000  0.5381910000000  0.4871760000000 1.0
C      1  0.5132180000000  0.5620950000000  0.5909530000000 1.0
C      1  0.5698390000000  0.4610110000000  0.4209830000000 1.0
C      1  0.5513690000000  0.4021190000000  0.5148190000000 1.0
C      1  0.4061780000000  0.4453200000000  0.5503620000000 1.0
C      1  0.4016850000000  0.4714790000000  0.5337180000000 1.0
C      1  0.4507830000000  0.5871110000000  0.4780440000000 1.0
C      1  0.5721690000000  0.4366480000000  0.5421840000000 1.0
C      1  0.4920120000000  0.5967010000000  0.4483160000000 1.0
C      1  0.4752810000000  0.4072850000000  0.4908880000000 1.0
C      1  0.5742760000000  0.4199280000000  0.5186310000000 1.0
C      1  0.5667550000000  0.5226060000000  0.4627800000000 1.0
C      1  0.5915120000000  0.4820110000000  0.4996570000000 1.0
C      1  0.3939650000000  0.5390570000000  0.4833120000000 1.0
C      1  0.6030260000000  0.4543030000000  0.4609020000000 1.0
C      1  0.5043070000000  0.5850530000000  0.5722430000000 1.0
C      1  0.5030780000000  0.5698020000000  0.4078060000000 1.0
C      1  0.4874260000000  0.5542700000000  0.4648650000000 1.0
C      1  0.4981360000000  0.5122250000000  0.6034160000000 1.0
C      1  0.5193480000000  0.3948650000000  0.4782590000000 1.0
C      1  0.4919590000000  0.4106370000000  0.4414470000000 1.0
C      1  0.4497450000000  0.5229940000000  0.4741580000000 1.0
C      1  0.4616030000000  0.4492800000000  0.4937450000000 1.0
C      1  0.4179320000000  0.4534260000000  0.4692670000000 1.0
C      1  0.6050580000000  0.4756960000000  0.5269080000000 1.0
C      1  0.4359950000000  0.5905690000000  0.5371150000000 1.0
C      1  0.5467430000000  0.4390480000000  0.5818100000000 1.0
C      1  0.5509170000000  0.5049830000000  0.5373110000000 1.0
C      1  0.4442780000000  0.4225320000000  0.5468510000000 1.0
C      1  0.4628610000000  0.4976180000000  0.5080750000000 1.0
C      1  0.5801950000000  0.5082790000000  0.5115540000000 1.0
C      1  0.4753300000000  0.5083320000000  0.4418670000000 1.0
C      1  0.5132950000000  0.5642130000000  0.4787650000000 1.0
C      1  0.4934170000000  0.3990710000000  0.4693480000000 1.0
C      1  0.4273440000000  0.4974610000000  0.5639940000000 1.0
C      1  0.4206130000000  0.5733270000000  0.5205860000000 1.0
C      1  0.4287020000000  0.5715790000000  0.4909960000000 1.0
C      1  0.5173530000000  0.4408440000000  0.4097750000000 1.0
C      1  0.4827690000000  0.4833170000000  0.5240780000000 1.0
C      1  0.4314790000000  0.4711520000000  0.5247830000000 1.0
C      1  0.4202280000000  0.4287090000000  0.5286290000000 1.0
C      1  0.5493840000000  0.5975560000000  0.4864870000000 1.0
C      1  0.4625060000000  0.5487510000000  0.5076330000000 1.0
C      1  0.4815450000000  0.4831890000000  0.6032490000000 1.0
C      1  0.4522270000000  0.4837650000000  0.6028430000000 1.0
C      1  0.5650730000000  0.5115950000000  0.5640720000000 1.0
C      1  0.4661980000000  0.5565870000000  0.5905870000000 1.0
C      1  0.5837150000000  0.4646440000000  0.5443830000000 1.0
C      1  0.4826510000000  0.5639570000000  0.5208360000000 1.0
C      1  0.5221740000000  0.4335790000000  0.5947980000000 1.0
END
