TITL C-951335-1172-212 -1.07596086737701e-06 125000 -1044.80872107873 0 0 167 (C1) n - 1
REM
REM in /home/bkarasulu/work/CARBON/AIRSS/Generating-Clusters/EDIP-Nigel-Params/with-SteepDescent/Only-C1/SD-CG/HFTN-CG
REM
REM
REM
REM
REM
REM ./C.cell (11c1c37f851c82e70ff6c80c92926a4b)
REM
REM compiler GCC version 9.2.1 20190827 (Red Hat 9.2.1-1)
REM options -cpp -mtune=generic -march=x86-64 -g -O0 -fpre-include=/usr/include/finclude/math-vector-fortran.h
REM seed -1743212462 1782511428 -2036703101 -1296517541 -846298003 -767982163 -1904987520 -862552483 -1969779939 34511569 -366857207 -656266981 439155378 514115167 812801493 1191290020 971819102 1426401059 -2003553936 1691866753 2028602333 -405202098 -556917838 166103110 1858870263 -816127143 -869312314 879620195 -1925609115 793167988 -1645897137 1245341456 -634157625
REM
CELL 1.54180   50.00000   50.00000   50.00000   90.00000   90.00000   90.00000
LATT -1
SFAC C  
C      1  0.4917360000000  0.4059260000000  0.5701930000000 1.0
C      1  0.4575490000000  0.5306700000000  0.5189400000000 1.0
C      1  0.5624150000000  0.5121920000000  0.5856820000000 1.0
C      1  0.4059520000000  0.4389470000000  0.4894300000000 1.0
C      1  0.4774150000000  0.4847220000000  0.4608670000000 1.0
C      1  0.4633470000000  0.5056910000000  0.5722380000000 1.0
C      1  0.5170540000000  0.5662300000000  0.4718590000000 1.0
C      1  0.4613040000000  0.5047410000000  0.4779940000000 1.0
C      1  0.5402490000000  0.5531150000000  0.4853930000000 1.0
C      1  0.4600180000000  0.5464220000000  0.4363400000000 1.0
C      1  0.5528230000000  0.4836260000000  0.4361480000000 1.0
C      1  0.5707370000000  0.5075090000000  0.5424440000000 1.0
C      1  0.6082320000000  0.5482380000000  0.4852970000000 1.0
C      1  0.5623070000000  0.4060570000000  0.5056190000000 1.0
C      1  0.4030950000000  0.5019200000000  0.5655830000000 1.0
C      1  0.4799460000000  0.5802350000000  0.5613970000000 1.0
C      1  0.4930900000000  0.4686250000000  0.4835710000000 1.0
C      1  0.4971440000000  0.6112330000000  0.4680080000000 1.0
C      1  0.5260070000000  0.5110620000000  0.4677760000000 1.0
C      1  0.5822230000000  0.5207910000000  0.5660300000000 1.0
C      1  0.5487920000000  0.5310010000000  0.4654750000000 1.0
C      1  0.4037240000000  0.5416010000000  0.4979040000000 1.0
C      1  0.5005530000000  0.4848050000000  0.4390550000000 1.0
C      1  0.5308750000000  0.5394100000000  0.5102730000000 1.0
C      1  0.4511400000000  0.5330260000000  0.4853510000000 1.0
C      1  0.4968480000000  0.4598910000000  0.4193870000000 1.0
C      1  0.5189390000000  0.4464540000000  0.5746640000000 1.0
C      1  0.6025520000000  0.5599300000000  0.5106540000000 1.0
C      1  0.5227010000000  0.4590020000000  0.5325100000000 1.0
C      1  0.4740110000000  0.4473370000000  0.4968260000000 1.0
C      1  0.3969680000000  0.5100020000000  0.5374340000000 1.0
C      1  0.4883300000000  0.3931400000000  0.5119800000000 1.0
C      1  0.4712060000000  0.5667810000000  0.4194340000000 1.0
C      1  0.4567540000000  0.6007420000000  0.4991890000000 1.0
C      1  0.5052370000000  0.3850310000000  0.5586200000000 1.0
C      1  0.5691090000000  0.5108110000000  0.4316750000000 1.0
C      1  0.5403760000000  0.5205410000000  0.3939910000000 1.0
C      1  0.4882340000000  0.4378750000000  0.4347640000000 1.0
C      1  0.5281770000000  0.5278190000000  0.5530680000000 1.0
C      1  0.4632220000000  0.3889800000000  0.4981520000000 1.0
C      1  0.4079340000000  0.5363630000000  0.5270840000000 1.0
C      1  0.5260490000000  0.4789040000000  0.5543080000000 1.0
C      1  0.4384350000000  0.5735600000000  0.5306680000000 1.0
C      1  0.5310820000000  0.5711950000000  0.5818250000000 1.0
C      1  0.4555230000000  0.4287280000000  0.4722570000000 1.0
C      1  0.5656500000000  0.4545350000000  0.5749160000000 1.0
C      1  0.5068600000000  0.5057360000000  0.5955100000000 1.0
C      1  0.4214260000000  0.5603420000000  0.4580310000000 1.0
C      1  0.4606060000000  0.5347430000000  0.5804940000000 1.0
C      1  0.4644590000000  0.5871940000000  0.4512470000000 1.0
C      1  0.5779500000000  0.4291950000000  0.4655290000000 1.0
C      1  0.5401300000000  0.4763380000000  0.4098110000000 1.0
C      1  0.4563980000000  0.5006990000000  0.5240250000000 1.0
C      1  0.4728780000000  0.5059830000000  0.4062880000000 1.0
C      1  0.5092080000000  0.4588570000000  0.5993280000000 1.0
C      1  0.5074190000000  0.5565810000000  0.5939070000000 1.0
C      1  0.5549720000000  0.5306650000000  0.4154420000000 1.0
C      1  0.4177220000000  0.4927420000000  0.4941550000000 1.0
C      1  0.5076760000000  0.5378210000000  0.4333910000000 1.0
C      1  0.4542510000000  0.4707790000000  0.4454500000000 1.0
C      1  0.4673830000000  0.5536800000000  0.4646170000000 1.0
C      1  0.5406420000000  0.5731020000000  0.4351110000000 1.0
C      1  0.5224090000000  0.5761990000000  0.5304380000000 1.0
C      1  0.4736510000000  0.4876490000000  0.3851870000000 1.0
C      1  0.5362370000000  0.4652170000000  0.5076830000000 1.0
C      1  0.4488340000000  0.5009250000000  0.4221800000000 1.0
C      1  0.4751900000000  0.4625460000000  0.3974820000000 1.0
C      1  0.3994900000000  0.5102450000000  0.4315060000000 1.0
C      1  0.6053650000000  0.5013730000000  0.5098650000000 1.0
C      1  0.5004020000000  0.5081770000000  0.4196150000000 1.0
C      1  0.4392490000000  0.4257660000000  0.5534210000000 1.0
C      1  0.4975020000000  0.6023670000000  0.4394520000000 1.0
C      1  0.4908690000000  0.5019070000000  0.5607420000000 1.0
C      1  0.4989260000000  0.5611040000000  0.4158890000000 1.0
C      1  0.5871620000000  0.4505230000000  0.5542780000000 1.0
C      1  0.5334180000000  0.4308320000000  0.4339700000000 1.0
C      1  0.5032410000000  0.5492160000000  0.5100050000000 1.0
C      1  0.5460080000000  0.4322570000000  0.5763820000000 1.0
C      1  0.4349340000000  0.5454240000000  0.5378340000000 1.0
C      1  0.5399190000000  0.4068310000000  0.4898600000000 1.0
C      1  0.5406110000000  0.5044240000000  0.5406750000000 1.0
C      1  0.5353790000000  0.5091240000000  0.5108960000000 1.0
C      1  0.5231720000000  0.4568750000000  0.4810820000000 1.0
C      1  0.5742420000000  0.4818240000000  0.4849820000000 1.0
C      1  0.4236930000000  0.4668600000000  0.4487240000000 1.0
C      1  0.4373410000000  0.5792810000000  0.5026290000000 1.0
C      1  0.5332510000000  0.6124640000000  0.5229880000000 1.0
C      1  0.4441560000000  0.4965930000000  0.5513160000000 1.0
C      1  0.5877230000000  0.4872490000000  0.5297150000000 1.0
C      1  0.5385200000000  0.6000500000000  0.4973170000000 1.0
C      1  0.5082650000000  0.6028450000000  0.5358420000000 1.0
C      1  0.6033080000000  0.4872360000000  0.4837050000000 1.0
C      1  0.4685990000000  0.4018050000000  0.4722260000000 1.0
C      1  0.4618630000000  0.4409750000000  0.4447040000000 1.0
C      1  0.5627840000000  0.5871500000000  0.4444260000000 1.0
C      1  0.6071300000000  0.5040320000000  0.4616690000000 1.0
C      1  0.5407510000000  0.5699360000000  0.5537190000000 1.0
C      1  0.4174460000000  0.4418670000000  0.5158780000000 1.0
C      1  0.4662320000000  0.6111250000000  0.5241440000000 1.0
C      1  0.4096120000000  0.4639830000000  0.5331350000000 1.0
C      1  0.4810340000000  0.4623000000000  0.6006170000000 1.0
C      1  0.4421760000000  0.4318760000000  0.4232490000000 1.0
C      1  0.4302990000000  0.4197330000000  0.5280690000000 1.0
C      1  0.4935370000000  0.3779210000000  0.5347690000000 1.0
C      1  0.5892390000000  0.5495790000000  0.4635690000000 1.0
C      1  0.5628350000000  0.5100300000000  0.4918960000000 1.0
C      1  0.4603560000000  0.5889300000000  0.5416150000000 1.0
C      1  0.4999770000000  0.6005530000000  0.5631070000000 1.0
C      1  0.5702740000000  0.4616610000000  0.4459660000000 1.0
C      1  0.5071450000000  0.4194930000000  0.4435890000000 1.0
C      1  0.4857460000000  0.5517580000000  0.5728490000000 1.0
C      1  0.4144660000000  0.5244900000000  0.5777060000000 1.0
C      1  0.4177060000000  0.4383880000000  0.4410170000000 1.0
C      1  0.5536310000000  0.4399260000000  0.4538990000000 1.0
C      1  0.4190490000000  0.5640450000000  0.4858010000000 1.0
C      1  0.5414170000000  0.5340060000000  0.5794740000000 1.0
C      1  0.4856420000000  0.5360850000000  0.5270990000000 1.0
C      1  0.4970940000000  0.4219400000000  0.5080170000000 1.0
C      1  0.4717170000000  0.4505490000000  0.5768010000000 1.0
C      1  0.5833550000000  0.5489050000000  0.5629080000000 1.0
C      1  0.5273090000000  0.4842130000000  0.4555360000000 1.0
C      1  0.5828260000000  0.4217370000000  0.4927840000000 1.0
C      1  0.4758010000000  0.4588740000000  0.5261560000000 1.0
C      1  0.5789760000000  0.4414210000000  0.5257390000000 1.0
C      1  0.4833450000000  0.4880900000000  0.5285040000000 1.0
C      1  0.5153130000000  0.5843540000000  0.4242170000000 1.0
C      1  0.5666290000000  0.4670500000000  0.5104110000000 1.0
C      1  0.5020320000000  0.5194230000000  0.4843870000000 1.0
C      1  0.4967120000000  0.4012830000000  0.4636950000000 1.0
C      1  0.5231790000000  0.4995760000000  0.4002110000000 1.0
C      1  0.5387510000000  0.5432200000000  0.4365640000000 1.0
C      1  0.4934350000000  0.4336850000000  0.5636260000000 1.0
C      1  0.5590790000000  0.5761290000000  0.4933730000000 1.0
C      1  0.4345410000000  0.5423950000000  0.5688330000000 1.0
C      1  0.5687070000000  0.5658320000000  0.5460150000000 1.0
C      1  0.5125840000000  0.5919210000000  0.4848880000000 1.0
C      1  0.4507840000000  0.4481700000000  0.4012760000000 1.0
C      1  0.5325170000000  0.3893240000000  0.5579590000000 1.0
C      1  0.5868530000000  0.5250180000000  0.5060400000000 1.0
C      1  0.4150240000000  0.5204570000000  0.4799520000000 1.0
C      1  0.4980530000000  0.5304480000000  0.5529010000000 1.0
C      1  0.4671970000000  0.6083480000000  0.4729150000000 1.0
C      1  0.5179600000000  0.4244890000000  0.4857450000000 1.0
C      1  0.5757390000000  0.5662380000000  0.5173890000000 1.0
C      1  0.4316880000000  0.5458430000000  0.4361010000000 1.0
C      1  0.5582860000000  0.4205020000000  0.5302050000000 1.0
C      1  0.3868450000000  0.4578780000000  0.4795370000000 1.0
C      1  0.4261890000000  0.5183050000000  0.4296850000000 1.0
C      1  0.4048690000000  0.4784780000000  0.4691520000000 1.0
C      1  0.6033220000000  0.4730080000000  0.5500570000000 1.0
C      1  0.5245320000000  0.4513510000000  0.4124990000000 1.0
C      1  0.5016840000000  0.4920540000000  0.5034820000000 1.0
C      1  0.5506880000000  0.4104560000000  0.5565500000000 1.0
C      1  0.4005910000000  0.4876210000000  0.5186930000000 1.0
C      1  0.4237090000000  0.4273200000000  0.4688820000000 1.0
C      1  0.4429830000000  0.4488310000000  0.5687280000000 1.0
C      1  0.5243720000000  0.4832860000000  0.5984010000000 1.0
C      1  0.5513130000000  0.4832730000000  0.5836800000000 1.0
C      1  0.4414720000000  0.3997630000000  0.5123330000000 1.0
C      1  0.4245300000000  0.4734050000000  0.5584190000000 1.0
C      1  0.4466590000000  0.4890610000000  0.4982600000000 1.0
C      1  0.3946620000000  0.5063580000000  0.4585950000000 1.0
C      1  0.4983480000000  0.4415880000000  0.5336570000000 1.0
C      1  0.5749550000000  0.5760150000000  0.4670380000000 1.0
C      1  0.4970590000000  0.5448060000000  0.4636540000000 1.0
C      1  0.5200980000000  0.5305070000000  0.6008340000000 1.0
C      1  0.5891750000000  0.5223000000000  0.4502500000000 1.0
END
