TITL C-950535-5962-500 -4.81452434981506e-06 125000 -1028.23836126458 0 0 167 (C1) n - 1
REM
REM in /home/bkarasulu/work/CARBON/AIRSS/Generating-Clusters/EDIP-Nigel-Params/with-SteepDescent/Only-C1/SD-CG/HFTN-CG
REM
REM
REM
REM
REM
REM ./C.cell (11c1c37f851c82e70ff6c80c92926a4b)
REM
REM compiler GCC version 9.2.1 20190827 (Red Hat 9.2.1-1)
REM options -cpp -mtune=generic -march=x86-64 -g -O0 -fpre-include=/usr/include/finclude/math-vector-fortran.h
REM seed -1088070986 -502355962 1709865981 2126637166 415030440 -267890108 1791439537 -377251203 1494197727 -2098919091 -1681609658 35908988 -1921721251 1474549302 734478784 1213819159 874989702 -1417514199 542014892 857460881 1758464826 -229493058 1941390610 1689951803 -774021262 -1686729885 -142732941 -1943745986 1944720150 -1999392990 1955984778 961719352 -1516045389
REM
CELL 1.54180   50.00000   50.00000   50.00000   90.00000   90.00000   90.00000
LATT -1
SFAC C  
C      1  0.5727110000000  0.5586060000000  0.4370700000000 1.0
C      1  0.5489550000000  0.5251870000000  0.4010940000000 1.0
C      1  0.5653510000000  0.4827190000000  0.5949120000000 1.0
C      1  0.5554890000000  0.5877020000000  0.5091700000000 1.0
C      1  0.5117620000000  0.5587870000000  0.3899100000000 1.0
C      1  0.5259660000000  0.5388530000000  0.5301860000000 1.0
C      1  0.5670660000000  0.5283790000000  0.4344060000000 1.0
C      1  0.5479130000000  0.5207530000000  0.5454980000000 1.0
C      1  0.4883080000000  0.4829470000000  0.6022260000000 1.0
C      1  0.5320670000000  0.5483700000000  0.4110420000000 1.0
C      1  0.5048400000000  0.4034860000000  0.4391090000000 1.0
C      1  0.4419810000000  0.4804770000000  0.4988360000000 1.0
C      1  0.4272340000000  0.4652770000000  0.4314150000000 1.0
C      1  0.4203850000000  0.5200690000000  0.5056650000000 1.0
C      1  0.5796650000000  0.5505770000000  0.5422710000000 1.0
C      1  0.4979500000000  0.6016020000000  0.5130900000000 1.0
C      1  0.5001120000000  0.4152510000000  0.5422490000000 1.0
C      1  0.4611220000000  0.4953330000000  0.5970290000000 1.0
C      1  0.4156810000000  0.4225790000000  0.4918800000000 1.0
C      1  0.4876790000000  0.4204440000000  0.4265230000000 1.0
C      1  0.5233110000000  0.5973450000000  0.4772390000000 1.0
C      1  0.4547920000000  0.4098060000000  0.4728110000000 1.0
C      1  0.5915230000000  0.5142380000000  0.4457750000000 1.0
C      1  0.5307390000000  0.4797380000000  0.4711520000000 1.0
C      1  0.5049010000000  0.5717460000000  0.5120160000000 1.0
C      1  0.4856070000000  0.5415650000000  0.5963120000000 1.0
C      1  0.4138770000000  0.4481900000000  0.4790570000000 1.0
C      1  0.4385850000000  0.5765620000000  0.4881480000000 1.0
C      1  0.5234360000000  0.5314960000000  0.4998000000000 1.0
C      1  0.5238230000000  0.3975250000000  0.5313480000000 1.0
C      1  0.5261360000000  0.4511790000000  0.6039780000000 1.0
C      1  0.4751490000000  0.4699120000000  0.4187790000000 1.0
C      1  0.5468050000000  0.5191970000000  0.4566010000000 1.0
C      1  0.5564980000000  0.4763920000000  0.4519210000000 1.0
C      1  0.4132060000000  0.4632020000000  0.5276400000000 1.0
C      1  0.5981130000000  0.4857590000000  0.4399830000000 1.0
C      1  0.5127740000000  0.4991610000000  0.6091330000000 1.0
C      1  0.4227670000000  0.5292490000000  0.5618550000000 1.0
C      1  0.5069630000000  0.5623130000000  0.4828010000000 1.0
C      1  0.5660130000000  0.5024340000000  0.4857570000000 1.0
C      1  0.5196940000000  0.5146840000000  0.4461120000000 1.0
C      1  0.5362120000000  0.4630820000000  0.5683520000000 1.0
C      1  0.4845820000000  0.5412440000000  0.4204790000000 1.0
C      1  0.5112890000000  0.5303110000000  0.6050890000000 1.0
C      1  0.5194010000000  0.4907890000000  0.5717320000000 1.0
C      1  0.4853770000000  0.4447230000000  0.4161020000000 1.0
C      1  0.6138930000000  0.4914120000000  0.5229410000000 1.0
C      1  0.5746250000000  0.4490950000000  0.4922410000000 1.0
C      1  0.4822080000000  0.5257550000000  0.4850990000000 1.0
C      1  0.4846600000000  0.6011490000000  0.5417160000000 1.0
C      1  0.4757880000000  0.5639830000000  0.5198110000000 1.0
C      1  0.4788980000000  0.5705310000000  0.4713120000000 1.0
C      1  0.5731450000000  0.4573430000000  0.4351180000000 1.0
C      1  0.4555410000000  0.5940320000000  0.5333370000000 1.0
C      1  0.3822430000000  0.4871710000000  0.5011220000000 1.0
C      1  0.3964980000000  0.5048930000000  0.5209360000000 1.0
C      1  0.4616250000000  0.4526120000000  0.4641530000000 1.0
C      1  0.4770140000000  0.5178060000000  0.4573880000000 1.0
C      1  0.4965630000000  0.5850610000000  0.5649740000000 1.0
C      1  0.5221020000000  0.5869390000000  0.5760200000000 1.0
C      1  0.5062810000000  0.4415330000000  0.5273920000000 1.0
C      1  0.4514750000000  0.5010420000000  0.4535600000000 1.0
C      1  0.5380700000000  0.4411990000000  0.5265290000000 1.0
C      1  0.5502070000000  0.4152370000000  0.4594400000000 1.0
C      1  0.4425160000000  0.4529730000000  0.4882540000000 1.0
C      1  0.4418200000000  0.5390300000000  0.5813260000000 1.0
C      1  0.5115110000000  0.5911170000000  0.4495170000000 1.0
C      1  0.4768900000000  0.5990510000000  0.4908130000000 1.0
C      1  0.4963400000000  0.4544160000000  0.6021100000000 1.0
C      1  0.4457910000000  0.4483110000000  0.5627270000000 1.0
C      1  0.5396230000000  0.5757820000000  0.5291470000000 1.0
C      1  0.4690530000000  0.4112300000000  0.5424120000000 1.0
C      1  0.4321250000000  0.4427350000000  0.5370540000000 1.0
C      1  0.5579430000000  0.4559410000000  0.4108240000000 1.0
C      1  0.4058480000000  0.4871500000000  0.5429910000000 1.0
C      1  0.5903840000000  0.5195590000000  0.4762500000000 1.0
C      1  0.4405720000000  0.4109680000000  0.4985110000000 1.0
C      1  0.5474910000000  0.4381010000000  0.4970230000000 1.0
C      1  0.5528090000000  0.4648870000000  0.5431660000000 1.0
C      1  0.5788250000000  0.4628630000000  0.5799600000000 1.0
C      1  0.5693520000000  0.5083100000000  0.5830490000000 1.0
C      1  0.4621560000000  0.5242510000000  0.5956720000000 1.0
C      1  0.4496050000000  0.5210930000000  0.5205020000000 1.0
C      1  0.5359170000000  0.4674360000000  0.4004990000000 1.0
C      1  0.4224240000000  0.5002100000000  0.5629710000000 1.0
C      1  0.6144630000000  0.5002150000000  0.4906220000000 1.0
C      1  0.4346610000000  0.5139350000000  0.4307020000000 1.0
C      1  0.4631070000000  0.5421590000000  0.5008880000000 1.0
C      1  0.4944940000000  0.4224380000000  0.4835410000000 1.0
C      1  0.4348730000000  0.4850290000000  0.5854120000000 1.0
C      1  0.5072710000000  0.4193850000000  0.5707720000000 1.0
C      1  0.4656300000000  0.4681750000000  0.5581140000000 1.0
C      1  0.5860590000000  0.5234020000000  0.5516910000000 1.0
C      1  0.5401490000000  0.5653140000000  0.5763720000000 1.0
C      1  0.4770990000000  0.5173600000000  0.4008950000000 1.0
C      1  0.4864050000000  0.4974480000000  0.4953000000000 1.0
C      1  0.4490060000000  0.5116630000000  0.4056300000000 1.0
C      1  0.4983860000000  0.3843210000000  0.4899190000000 1.0
C      1  0.4109910000000  0.4903050000000  0.4353970000000 1.0
C      1  0.4768080000000  0.4854140000000  0.5400840000000 1.0
C      1  0.5348010000000  0.4297600000000  0.5721370000000 1.0
C      1  0.4870050000000  0.5680950000000  0.4059730000000 1.0
C      1  0.3812630000000  0.4969560000000  0.4744530000000 1.0
C      1  0.5754020000000  0.4750140000000  0.4765080000000 1.0
C      1  0.4294650000000  0.4570910000000  0.5851450000000 1.0
C      1  0.4422390000000  0.4222150000000  0.4494570000000 1.0
C      1  0.4579360000000  0.5912380000000  0.4419420000000 1.0
C      1  0.5759050000000  0.5463840000000  0.4867890000000 1.0
C      1  0.4384520000000  0.5424750000000  0.4389500000000 1.0
C      1  0.6047190000000  0.4782510000000  0.4684670000000 1.0
C      1  0.4053540000000  0.5536260000000  0.5171450000000 1.0
C      1  0.5324900000000  0.5692730000000  0.4503290000000 1.0
C      1  0.5050600000000  0.5317770000000  0.3790450000000 1.0
C      1  0.5833580000000  0.5532860000000  0.5143230000000 1.0
C      1  0.5810340000000  0.4598190000000  0.5520630000000 1.0
C      1  0.5169400000000  0.5010580000000  0.4973280000000 1.0
C      1  0.4728350000000  0.5406340000000  0.5390720000000 1.0
C      1  0.5050390000000  0.4906560000000  0.4557230000000 1.0
C      1  0.4549410000000  0.4724490000000  0.4414130000000 1.0
C      1  0.5902200000000  0.4315720000000  0.4761740000000 1.0
C      1  0.4852710000000  0.4427860000000  0.5048310000000 1.0
C      1  0.5423440000000  0.5146110000000  0.5738710000000 1.0
C      1  0.5473890000000  0.4017240000000  0.4858540000000 1.0
C      1  0.6027000000000  0.4694650000000  0.5368930000000 1.0
C      1  0.5484830000000  0.5693220000000  0.4251100000000 1.0
C      1  0.5274170000000  0.4517050000000  0.4793230000000 1.0
C      1  0.4677030000000  0.5450850000000  0.4461410000000 1.0
C      1  0.4148490000000  0.5599200000000  0.4910620000000 1.0
C      1  0.3970080000000  0.4612840000000  0.5031710000000 1.0
C      1  0.4536770000000  0.4271980000000  0.5207440000000 1.0
C      1  0.5334380000000  0.5388450000000  0.5881900000000 1.0
C      1  0.4534990000000  0.5629500000000  0.5714900000000 1.0
C      1  0.4511510000000  0.5969270000000  0.5039510000000 1.0
C      1  0.5690320000000  0.4991360000000  0.5132910000000 1.0
C      1  0.5385150000000  0.4784780000000  0.6090320000000 1.0
C      1  0.4859460000000  0.4655080000000  0.4798500000000 1.0
C      1  0.4197470000000  0.5591160000000  0.4524410000000 1.0
C      1  0.4769300000000  0.3904280000000  0.4711860000000 1.0
C      1  0.4624820000000  0.4249940000000  0.5688270000000 1.0
C      1  0.4853370000000  0.5836470000000  0.4342970000000 1.0
C      1  0.5119370000000  0.5365230000000  0.4296920000000 1.0
C      1  0.5929460000000  0.5128120000000  0.5224950000000 1.0
C      1  0.5315750000000  0.4112570000000  0.4385480000000 1.0
C      1  0.4870900000000  0.4363140000000  0.5808470000000 1.0
C      1  0.5210630000000  0.4899640000000  0.5228060000000 1.0
C      1  0.4802110000000  0.5667520000000  0.5806710000000 1.0
C      1  0.4908160000000  0.4914500000000  0.4070640000000 1.0
C      1  0.5231940000000  0.3952910000000  0.5016100000000 1.0
C      1  0.5002350000000  0.5280960000000  0.5426540000000 1.0
C      1  0.5446230000000  0.5404060000000  0.4788430000000 1.0
C      1  0.4417020000000  0.5713070000000  0.5471660000000 1.0
C      1  0.4199600000000  0.4416100000000  0.4486840000000 1.0
C      1  0.5748710000000  0.4302990000000  0.4522680000000 1.0
C      1  0.5030760000000  0.4982710000000  0.5449960000000 1.0
C      1  0.5170770000000  0.4872140000000  0.3942090000000 1.0
C      1  0.5274840000000  0.5128440000000  0.3839450000000 1.0
C      1  0.4372260000000  0.5817460000000  0.4595500000000 1.0
C      1  0.5526160000000  0.5918970000000  0.4818970000000 1.0
C      1  0.5480100000000  0.4932610000000  0.5318530000000 1.0
C      1  0.5446710000000  0.4167350000000  0.5436940000000 1.0
C      1  0.5550470000000  0.5640410000000  0.5510980000000 1.0
C      1  0.5705750000000  0.5704530000000  0.4665100000000 1.0
C      1  0.4634280000000  0.4942400000000  0.5153000000000 1.0
C      1  0.4305430000000  0.5000280000000  0.4789130000000 1.0
C      1  0.5106090000000  0.4345560000000  0.4615540000000 1.0
C      1  0.4064190000000  0.4895220000000  0.4643060000000 1.0
C      1  0.4225730000000  0.5503430000000  0.5400790000000 1.0
END
