TITL C-951334-9093-245 -1.60186532993107e-06 125000 -726.009499012985 0 0 117 (C1) n - 1
REM
REM in /home/bkarasulu/work/CARBON/AIRSS/Generating-Clusters/EDIP-Nigel-Params/with-SteepDescent/Only-C1/SD-CG/HFTN-CG
REM
REM
REM
REM
REM
REM ./C.cell (11c1c37f851c82e70ff6c80c92926a4b)
REM
REM compiler GCC version 9.2.1 20190827 (Red Hat 9.2.1-1)
REM options -cpp -mtune=generic -march=x86-64 -g -O0 -fpre-include=/usr/include/finclude/math-vector-fortran.h
REM seed -1581672601 -854001900 -623438160 800832405 -830851900 1236434446 -1290185659 399086598 815443377 1161857807 1647277364 11315166 658407181 -1893548514 1355451231 -1922365403 -168484880 -88095056 -340348624 131736760 351178605 -628641968 -10749963 1931713450 -1102564942 -843712438 -1927842707 767963095 1422048369 -1867311360 1898352302 895978267 -1520595885
REM
CELL 1.54180   50.00000   50.00000   50.00000   90.00000   90.00000   90.00000
LATT -1
SFAC C  
C      1  0.4725290000000  0.5568890000000  0.5258350000000 1.0
C      1  0.4972040000000  0.5115090000000  0.4118600000000 1.0
C      1  0.4185840000000  0.5032160000000  0.5237170000000 1.0
C      1  0.4746700000000  0.5252500000000  0.5246820000000 1.0
C      1  0.5285380000000  0.4186740000000  0.4564400000000 1.0
C      1  0.4720480000000  0.5881380000000  0.4948880000000 1.0
C      1  0.5987670000000  0.5040010000000  0.5087200000000 1.0
C      1  0.5119780000000  0.4780340000000  0.4952530000000 1.0
C      1  0.4988650000000  0.5862300000000  0.4431490000000 1.0
C      1  0.4079260000000  0.5161900000000  0.5007010000000 1.0
C      1  0.4764350000000  0.5704170000000  0.4485450000000 1.0
C      1  0.5563280000000  0.5443220000000  0.5507180000000 1.0
C      1  0.4981330000000  0.4192960000000  0.5279570000000 1.0
C      1  0.5111310000000  0.5436700000000  0.5037200000000 1.0
C      1  0.5060820000000  0.5430360000000  0.5665730000000 1.0
C      1  0.4351140000000  0.4777100000000  0.4297010000000 1.0
C      1  0.4876090000000  0.5067790000000  0.5957070000000 1.0
C      1  0.5106750000000  0.4498510000000  0.4939260000000 1.0
C      1  0.5213010000000  0.5111710000000  0.5401080000000 1.0
C      1  0.5828000000000  0.5508200000000  0.5111280000000 1.0
C      1  0.5344570000000  0.4905700000000  0.4782330000000 1.0
C      1  0.4298860000000  0.5593470000000  0.5166030000000 1.0
C      1  0.5338910000000  0.4079570000000  0.4833250000000 1.0
C      1  0.4960140000000  0.5398050000000  0.4179280000000 1.0
C      1  0.5492550000000  0.5044580000000  0.5276880000000 1.0
C      1  0.5008800000000  0.5973900000000  0.4959710000000 1.0
C      1  0.4231640000000  0.5183540000000  0.5472480000000 1.0
C      1  0.4432990000000  0.5011540000000  0.4143510000000 1.0
C      1  0.5149110000000  0.5077700000000  0.6028000000000 1.0
C      1  0.4753430000000  0.3966160000000  0.4796360000000 1.0
C      1  0.5112450000000  0.4836910000000  0.5518650000000 1.0
C      1  0.4881370000000  0.4397330000000  0.5086950000000 1.0
C      1  0.5495190000000  0.4367450000000  0.4469310000000 1.0
C      1  0.5093960000000  0.4652290000000  0.5860550000000 1.0
C      1  0.5862390000000  0.4561490000000  0.5602750000000 1.0
C      1  0.5403440000000  0.5751470000000  0.4647250000000 1.0
C      1  0.4355270000000  0.4786490000000  0.5734680000000 1.0
C      1  0.4935990000000  0.5414800000000  0.4771340000000 1.0
C      1  0.5497360000000  0.4258220000000  0.5382450000000 1.0
C      1  0.5937970000000  0.5271000000000  0.5269170000000 1.0
C      1  0.4841630000000  0.4789590000000  0.5864590000000 1.0
C      1  0.5381000000000  0.5090170000000  0.5869010000000 1.0
C      1  0.4324590000000  0.5275760000000  0.4241970000000 1.0
C      1  0.4671480000000  0.4467340000000  0.5527930000000 1.0
C      1  0.4330930000000  0.4798930000000  0.4808550000000 1.0
C      1  0.4808500000000  0.5272700000000  0.5738590000000 1.0
C      1  0.4828190000000  0.4810290000000  0.5422620000000 1.0
C      1  0.4768950000000  0.5177180000000  0.4772460000000 1.0
C      1  0.5430760000000  0.5799290000000  0.5138200000000 1.0
C      1  0.5242260000000  0.5751400000000  0.4403090000000 1.0
C      1  0.5017530000000  0.5684870000000  0.5213360000000 1.0
C      1  0.5015840000000  0.5693380000000  0.5547440000000 1.0
C      1  0.4947020000000  0.4525450000000  0.4342840000000 1.0
C      1  0.5212360000000  0.4994100000000  0.4261180000000 1.0
C      1  0.5635320000000  0.5532470000000  0.4618730000000 1.0
C      1  0.4724000000000  0.4983490000000  0.4171220000000 1.0
C      1  0.4274030000000  0.4518120000000  0.4878700000000 1.0
C      1  0.5615190000000  0.4574120000000  0.5741630000000 1.0
C      1  0.4327030000000  0.4465360000000  0.5147660000000 1.0
C      1  0.4680250000000  0.3957560000000  0.5055270000000 1.0
C      1  0.5426620000000  0.4354610000000  0.5654860000000 1.0
C      1  0.4477200000000  0.5831680000000  0.5123080000000 1.0
C      1  0.5659720000000  0.5352620000000  0.4372200000000 1.0
C      1  0.5428830000000  0.5304700000000  0.4212350000000 1.0
C      1  0.4074570000000  0.4963150000000  0.4791400000000 1.0
C      1  0.5357810000000  0.4344100000000  0.4974120000000 1.0
C      1  0.4638940000000  0.4541180000000  0.4350330000000 1.0
C      1  0.4774100000000  0.4148960000000  0.4587520000000 1.0
C      1  0.5175750000000  0.4683440000000  0.4232540000000 1.0
C      1  0.4176230000000  0.5433110000000  0.4940230000000 1.0
C      1  0.5453550000000  0.4748050000000  0.5370850000000 1.0
C      1  0.4695320000000  0.5087010000000  0.5507540000000 1.0
C      1  0.5278560000000  0.4126790000000  0.5212140000000 1.0
C      1  0.4614810000000  0.5146760000000  0.5008380000000 1.0
C      1  0.5585160000000  0.4762790000000  0.4646720000000 1.0
C      1  0.5814200000000  0.4949060000000  0.4624530000000 1.0
C      1  0.4340550000000  0.5453290000000  0.5437400000000 1.0
C      1  0.4463220000000  0.4330990000000  0.5351320000000 1.0
C      1  0.4922840000000  0.4302790000000  0.5550860000000 1.0
C      1  0.4146740000000  0.5499740000000  0.4665330000000 1.0
C      1  0.4671980000000  0.5691210000000  0.4748070000000 1.0
C      1  0.5814530000000  0.5123510000000  0.4406970000000 1.0
C      1  0.5409710000000  0.4533910000000  0.4260540000000 1.0
C      1  0.5208840000000  0.5462330000000  0.4331770000000 1.0
C      1  0.4499260000000  0.4845360000000  0.4550580000000 1.0
C      1  0.5342090000000  0.5334400000000  0.5690680000000 1.0
C      1  0.5643990000000  0.4487820000000  0.4675480000000 1.0
C      1  0.5875130000000  0.4562870000000  0.5322090000000 1.0
C      1  0.5012420000000  0.4274190000000  0.4483240000000 1.0
C      1  0.5187600000000  0.5334260000000  0.4609950000000 1.0
C      1  0.5392500000000  0.5384780000000  0.4886720000000 1.0
C      1  0.4492230000000  0.4889010000000  0.5053820000000 1.0
C      1  0.4633860000000  0.5129560000000  0.4520300000000 1.0
C      1  0.4598750000000  0.4650220000000  0.5758060000000 1.0
C      1  0.4725950000000  0.5737240000000  0.5597230000000 1.0
C      1  0.4001200000000  0.5069820000000  0.4542890000000 1.0
C      1  0.4482290000000  0.5496820000000  0.4160820000000 1.0
C      1  0.5479740000000  0.4837830000000  0.5746530000000 1.0
C      1  0.4806500000000  0.4763040000000  0.5118720000000 1.0
C      1  0.5594140000000  0.4507320000000  0.5235480000000 1.0
C      1  0.5196030000000  0.5048370000000  0.4561680000000 1.0
C      1  0.4549320000000  0.5514140000000  0.5651710000000 1.0
C      1  0.5499980000000  0.5106560000000  0.4963070000000 1.0
C      1  0.4421870000000  0.5036660000000  0.5629190000000 1.0
C      1  0.5708710000000  0.5196310000000  0.5442540000000 1.0
C      1  0.4547820000000  0.4305530000000  0.4505740000000 1.0
C      1  0.5986090000000  0.4787080000000  0.5203930000000 1.0
C      1  0.4714340000000  0.5455390000000  0.4331110000000 1.0
C      1  0.4123760000000  0.5305040000000  0.4459230000000 1.0
C      1  0.5032490000000  0.5204440000000  0.5189690000000 1.0
C      1  0.4338390000000  0.4332780000000  0.4684690000000 1.0
C      1  0.5570990000000  0.5576920000000  0.5238480000000 1.0
C      1  0.4552300000000  0.4082550000000  0.5258100000000 1.0
C      1  0.5828700000000  0.5417050000000  0.4826730000000 1.0
C      1  0.5281670000000  0.5855380000000  0.4905290000000 1.0
C      1  0.5146540000000  0.4433050000000  0.5685940000000 1.0
C      1  0.5793110000000  0.5117130000000  0.4869980000000 1.0
END
