TITL C-950526-5686-90 -9.71718658467368e-06 125000 -643.816999905779 0 0 103 (C1) n - 1
REM
REM in /home/bkarasulu/work/CARBON/AIRSS/Generating-Clusters/EDIP-Nigel-Params/with-SteepDescent/Only-C1/SD-CG/HFTN-CG
REM
REM
REM
REM
REM
REM ./C.cell (11c1c37f851c82e70ff6c80c92926a4b)
REM
REM compiler GCC version 9.2.1 20190827 (Red Hat 9.2.1-1)
REM options -cpp -mtune=generic -march=x86-64 -g -O0 -fpre-include=/usr/include/finclude/math-vector-fortran.h
REM seed -349103788 -1578357346 1489542002 -324802484 -835063743 -297058350 261765266 -1567069474 135690970 -1343888203 -421532415 834523835 -1840096184 1261404896 1284621454 -1038632540 -673312345 1665932109 -905160259 -197294782 1868351878 -764864205 1415408007 93307069 -1508498371 713256566 -1000528816 -1443179382 413664359 -958576112 -1907139129 1392125869 1686029163
REM
CELL 1.54180   50.00000   50.00000   50.00000   90.00000   90.00000   90.00000
LATT -1
SFAC C  
C      1  0.5222740000000  0.5681590000000  0.4404940000000 1.0
C      1  0.4560170000000  0.4857790000000  0.5273280000000 1.0
C      1  0.4824460000000  0.5508970000000  0.5003120000000 1.0
C      1  0.4634720000000  0.5395040000000  0.5552400000000 1.0
C      1  0.5609100000000  0.5347790000000  0.5551460000000 1.0
C      1  0.4991630000000  0.5885190000000  0.4921880000000 1.0
C      1  0.5597310000000  0.4465220000000  0.5227400000000 1.0
C      1  0.5184890000000  0.4929440000000  0.5846910000000 1.0
C      1  0.4449240000000  0.4751010000000  0.4583340000000 1.0
C      1  0.5267660000000  0.5823590000000  0.5048270000000 1.0
C      1  0.4550400000000  0.5689680000000  0.4711230000000 1.0
C      1  0.5173440000000  0.4792200000000  0.4090010000000 1.0
C      1  0.4398940000000  0.5244410000000  0.4515010000000 1.0
C      1  0.5514810000000  0.4596810000000  0.4503550000000 1.0
C      1  0.5017200000000  0.5823830000000  0.4601790000000 1.0
C      1  0.4136090000000  0.4759200000000  0.5266930000000 1.0
C      1  0.4883940000000  0.4992240000000  0.4895030000000 1.0
C      1  0.5119870000000  0.5452730000000  0.5647780000000 1.0
C      1  0.4944050000000  0.4535490000000  0.5749960000000 1.0
C      1  0.5766020000000  0.4874570000000  0.4817040000000 1.0
C      1  0.5572130000000  0.4769170000000  0.5242590000000 1.0
C      1  0.4889100000000  0.5284150000000  0.5655930000000 1.0
C      1  0.4587940000000  0.5086500000000  0.5915040000000 1.0
C      1  0.5097320000000  0.5410010000000  0.4339160000000 1.0
C      1  0.5316040000000  0.5586930000000  0.5235570000000 1.0
C      1  0.5219480000000  0.4207220000000  0.4590360000000 1.0
C      1  0.5252110000000  0.4762930000000  0.4807910000000 1.0
C      1  0.5082490000000  0.4985060000000  0.4683120000000 1.0
C      1  0.5413210000000  0.4946980000000  0.4151600000000 1.0
C      1  0.4167150000000  0.5020850000000  0.5178100000000 1.0
C      1  0.5185000000000  0.5260320000000  0.4603810000000 1.0
C      1  0.4874880000000  0.5711590000000  0.5265990000000 1.0
C      1  0.5510660000000  0.5248910000000  0.4624830000000 1.0
C      1  0.5283300000000  0.4240370000000  0.4874540000000 1.0
C      1  0.4145340000000  0.5101060000000  0.4888730000000 1.0
C      1  0.4820530000000  0.4507620000000  0.4336660000000 1.0
C      1  0.4761960000000  0.4208120000000  0.5021350000000 1.0
C      1  0.4352840000000  0.4343050000000  0.5271750000000 1.0
C      1  0.5117460000000  0.5646970000000  0.5437080000000 1.0
C      1  0.4648030000000  0.4742930000000  0.4368310000000 1.0
C      1  0.4439770000000  0.5723230000000  0.5203020000000 1.0
C      1  0.5497530000000  0.4899470000000  0.4975160000000 1.0
C      1  0.4807360000000  0.5469850000000  0.4344230000000 1.0
C      1  0.4534790000000  0.4776170000000  0.5570520000000 1.0
C      1  0.5683060000000  0.5076430000000  0.5500680000000 1.0
C      1  0.4371910000000  0.5255130000000  0.5629070000000 1.0
C      1  0.4787770000000  0.4280990000000  0.4519790000000 1.0
C      1  0.5155500000000  0.4271880000000  0.5367750000000 1.0
C      1  0.4620070000000  0.5302190000000  0.5069030000000 1.0
C      1  0.5472970000000  0.5210470000000  0.4952240000000 1.0
C      1  0.5185550000000  0.4601850000000  0.5156590000000 1.0
C      1  0.4391700000000  0.4971600000000  0.5743330000000 1.0
C      1  0.4627110000000  0.5677150000000  0.5432100000000 1.0
C      1  0.5506830000000  0.5683610000000  0.4398040000000 1.0
C      1  0.4979840000000  0.5009820000000  0.4078020000000 1.0
C      1  0.4645030000000  0.4332220000000  0.4767310000000 1.0
C      1  0.5869260000000  0.4737630000000  0.5287410000000 1.0
C      1  0.5520390000000  0.4400430000000  0.4948220000000 1.0
C      1  0.5603370000000  0.5510950000000  0.5309690000000 1.0
C      1  0.5113060000000  0.5464560000000  0.4836990000000 1.0
C      1  0.5668810000000  0.5608130000000  0.4831340000000 1.0
C      1  0.5008300000000  0.5077360000000  0.5168080000000 1.0
C      1  0.4750000000000  0.4992730000000  0.4262590000000 1.0
C      1  0.4228050000000  0.5255090000000  0.5354750000000 1.0
C      1  0.5899480000000  0.5126420000000  0.5041290000000 1.0
C      1  0.5581740000000  0.4839570000000  0.4361710000000 1.0
C      1  0.5209310000000  0.4622720000000  0.5855110000000 1.0
C      1  0.4762510000000  0.5701050000000  0.4516360000000 1.0
C      1  0.5919660000000  0.5023040000000  0.5317740000000 1.0
C      1  0.4952480000000  0.4287590000000  0.5582770000000 1.0
C      1  0.4823230000000  0.4785030000000  0.5637030000000 1.0
C      1  0.4708060000000  0.4182880000000  0.5509410000000 1.0
C      1  0.4720540000000  0.5129690000000  0.5280840000000 1.0
C      1  0.4306040000000  0.5003590000000  0.4648580000000 1.0
C      1  0.4602670000000  0.5841460000000  0.4964710000000 1.0
C      1  0.5426790000000  0.4559630000000  0.5667790000000 1.0
C      1  0.5666660000000  0.4558020000000  0.4747440000000 1.0
C      1  0.4872030000000  0.5031500000000  0.5813030000000 1.0
C      1  0.4333720000000  0.5490190000000  0.4661680000000 1.0
C      1  0.4358360000000  0.5434360000000  0.5140220000000 1.0
C      1  0.4769790000000  0.4608540000000  0.5238140000000 1.0
C      1  0.5133910000000  0.4849940000000  0.5325210000000 1.0
C      1  0.4179940000000  0.5403290000000  0.4898030000000 1.0
C      1  0.5662080000000  0.5505220000000  0.4552750000000 1.0
C      1  0.5380310000000  0.5375440000000  0.5710050000000 1.0
C      1  0.4714130000000  0.4739630000000  0.4934020000000 1.0
C      1  0.4405090000000  0.4507970000000  0.4732600000000 1.0
C      1  0.5313010000000  0.4413810000000  0.4402400000000 1.0
C      1  0.5099270000000  0.4549560000000  0.4246450000000 1.0
C      1  0.4637400000000  0.4325910000000  0.5269600000000 1.0
C      1  0.5222510000000  0.5327200000000  0.5080860000000 1.0
C      1  0.4981760000000  0.4077040000000  0.4519230000000 1.0
C      1  0.5167590000000  0.5236580000000  0.4105750000000 1.0
C      1  0.5696100000000  0.5019480000000  0.4558170000000 1.0
C      1  0.4990710000000  0.4565750000000  0.4905710000000 1.0
C      1  0.5069850000000  0.4182360000000  0.5080070000000 1.0
C      1  0.5386560000000  0.5719920000000  0.4815820000000 1.0
C      1  0.4635910000000  0.5239890000000  0.4353410000000 1.0
C      1  0.5707530000000  0.5382920000000  0.5048480000000 1.0
C      1  0.5334180000000  0.4916920000000  0.5557460000000 1.0
C      1  0.4179160000000  0.4495800000000  0.4894690000000 1.0
C      1  0.4154800000000  0.4501780000000  0.5167500000000 1.0
C      1  0.5423400000000  0.4371820000000  0.5448210000000 1.0
END
