TITL C-951339-9237-600 0.0171408951414742 125000 -1040.71051110826 0 0 167 (C1) n - 1
REM
REM in /home/bkarasulu/work/CARBON/AIRSS/Generating-Clusters/EDIP-Nigel-Params/with-SteepDescent/Only-C1/SD-CG/HFTN-CG
REM
REM
REM
REM
REM
REM ./C.cell (11c1c37f851c82e70ff6c80c92926a4b)
REM
REM compiler GCC version 9.2.1 20190827 (Red Hat 9.2.1-1)
REM options -cpp -mtune=generic -march=x86-64 -g -O0 -fpre-include=/usr/include/finclude/math-vector-fortran.h
REM seed -183911811 1214448197 -1870437951 1119051438 109041516 -2021473140 -1855249695 -779604853 1956050808 1490408823 -1134308049 1449919583 1982150271 -695439170 -1083773307 -761213857 -695329979 -805045228 -1923959913 -253209849 1986902065 343340646 757999887 -813381010 -1707667366 1428298047 2120544485 -1660898173 -1266270316 695313874 630448213 -930167987 1625916364
REM
CELL 1.54180   50.00000   50.00000   50.00000   90.00000   90.00000   90.00000
LATT -1
SFAC C  
C      1  0.4776620000000  0.5828640000000  0.4511030000000 1.0
C      1  0.4290240000000  0.5559860000000  0.5008790000000 1.0
C      1  0.5013040000000  0.4925060000000  0.3876350000000 1.0
C      1  0.5546320000000  0.4680600000000  0.4359990000000 1.0
C      1  0.5250810000000  0.4319860000000  0.4936600000000 1.0
C      1  0.5826040000000  0.4624010000000  0.4466150000000 1.0
C      1  0.4514650000000  0.4909200000000  0.5389870000000 1.0
C      1  0.5456470000000  0.5232090000000  0.5295240000000 1.0
C      1  0.4812180000000  0.4752800000000  0.4590040000000 1.0
C      1  0.5339230000000  0.5367590000000  0.6057590000000 1.0
C      1  0.5768960000000  0.5770390000000  0.5190520000000 1.0
C      1  0.5138680000000  0.5977900000000  0.4898370000000 1.0
C      1  0.4838310000000  0.4816150000000  0.5717650000000 1.0
C      1  0.4752840000000  0.5415040000000  0.4702730000000 1.0
C      1  0.5178300000000  0.4897650000000  0.5114180000000 1.0
C      1  0.5181390000000  0.5695730000000  0.4811840000000 1.0
C      1  0.4322770000000  0.5434790000000  0.5522320000000 1.0
C      1  0.5337770000000  0.4297840000000  0.4648100000000 1.0
C      1  0.5797470000000  0.4419110000000  0.5434360000000 1.0
C      1  0.5270030000000  0.5821190000000  0.4137220000000 1.0
C      1  0.5245970000000  0.5363570000000  0.3947330000000 1.0
C      1  0.4104430000000  0.4948390000000  0.4629050000000 1.0
C      1  0.5355410000000  0.4453370000000  0.5888260000000 1.0
C      1  0.5911430000000  0.5045140000000  0.5399690000000 1.0
C      1  0.4989860000000  0.4430980000000  0.4971940000000 1.0
C      1  0.5814810000000  0.4367190000000  0.5148460000000 1.0
C      1  0.4190570000000  0.5228050000000  0.5345140000000 1.0
C      1  0.5172420000000  0.5581370000000  0.5110440000000 1.0
C      1  0.4891380000000  0.5097990000000  0.6059610000000 1.0
C      1  0.5262060000000  0.5547520000000  0.4179370000000 1.0
C      1  0.4424340000000  0.4375580000000  0.5191480000000 1.0
C      1  0.4879120000000  0.5909700000000  0.5059530000000 1.0
C      1  0.5990210000000  0.4835530000000  0.4560500000000 1.0
C      1  0.4764710000000  0.4838210000000  0.6093050000000 1.0
C      1  0.6119270000000  0.5033200000000  0.4988900000000 1.0
C      1  0.5740330000000  0.5689080000000  0.4678110000000 1.0
C      1  0.4819690000000  0.4295510000000  0.5433570000000 1.0
C      1  0.5816130000000  0.5420340000000  0.4559760000000 1.0
C      1  0.5458400000000  0.4639790000000  0.4063220000000 1.0
C      1  0.4664390000000  0.4831530000000  0.5139960000000 1.0
C      1  0.4963060000000  0.5601890000000  0.4591880000000 1.0
C      1  0.4304480000000  0.5378560000000  0.4089040000000 1.0
C      1  0.5765570000000  0.4630630000000  0.5629060000000 1.0
C      1  0.5083830000000  0.5432430000000  0.4379020000000 1.0
C      1  0.6033640000000  0.4811490000000  0.4838590000000 1.0
C      1  0.4527210000000  0.5234760000000  0.4552200000000 1.0
C      1  0.5362440000000  0.5730300000000  0.5747970000000 1.0
C      1  0.4134530000000  0.4767920000000  0.5117130000000 1.0
C      1  0.5333810000000  0.4866160000000  0.6149280000000 1.0
C      1  0.5423760000000  0.5038210000000  0.4698920000000 1.0
C      1  0.4049600000000  0.5590820000000  0.4808730000000 1.0
C      1  0.5370110000000  0.4815970000000  0.5589750000000 1.0
C      1  0.4553570000000  0.4432640000000  0.5465030000000 1.0
C      1  0.5381440000000  0.6067970000000  0.5007610000000 1.0
C      1  0.4368640000000  0.5039350000000  0.5897890000000 1.0
C      1  0.4932500000000  0.4334490000000  0.4324030000000 1.0
C      1  0.5317950000000  0.4887340000000  0.3933410000000 1.0
C      1  0.4093470000000  0.4809450000000  0.5602910000000 1.0
C      1  0.4947370000000  0.4770700000000  0.5254870000000 1.0
C      1  0.4893000000000  0.5585020000000  0.5264350000000 1.0
C      1  0.5642560000000  0.4151210000000  0.5026100000000 1.0
C      1  0.5113490000000  0.4153390000000  0.4488790000000 1.0
C      1  0.5420290000000  0.4504390000000  0.5389460000000 1.0
C      1  0.6024810000000  0.5293240000000  0.5056400000000 1.0
C      1  0.5754310000000  0.5542880000000  0.5391690000000 1.0
C      1  0.5697090000000  0.4911690000000  0.5108560000000 1.0
C      1  0.5578200000000  0.5331990000000  0.5860000000000 1.0
C      1  0.5067400000000  0.5518540000000  0.5540450000000 1.0
C      1  0.4309230000000  0.5662980000000  0.5300220000000 1.0
C      1  0.4250450000000  0.4718670000000  0.4541270000000 1.0
C      1  0.4373930000000  0.4533510000000  0.4731380000000 1.0
C      1  0.5096110000000  0.5221630000000  0.5548690000000 1.0
C      1  0.4235780000000  0.5272300000000  0.5051260000000 1.0
C      1  0.5523690000000  0.5929530000000  0.5207090000000 1.0
C      1  0.5196080000000  0.5101190000000  0.6022300000000 1.0
C      1  0.4977300000000  0.5212510000000  0.3983110000000 1.0
C      1  0.5178100000000  0.5113160000000  0.4910280000000 1.0
C      1  0.4927100000000  0.4043730000000  0.4691520000000 1.0
C      1  0.4402420000000  0.5482790000000  0.4360080000000 1.0
C      1  0.5355700000000  0.5726650000000  0.5334200000000 1.0
C      1  0.3984710000000  0.4941890000000  0.4895390000000 1.0
C      1  0.4617870000000  0.5185350000000  0.5463230000000 1.0
C      1  0.4432150000000  0.5134700000000  0.4861620000000 1.0
C      1  0.5229840000000  0.5920710000000  0.5540860000000 1.0
C      1  0.5452950000000  0.4979810000000  0.4392380000000 1.0
C      1  0.4655820000000  0.4242780000000  0.4326900000000 1.0
C      1  0.4712180000000  0.5000230000000  0.4413440000000 1.0
C      1  0.5273480000000  0.4443430000000  0.4005520000000 1.0
C      1  0.5034660000000  0.3844610000000  0.4857010000000 1.0
C      1  0.4403980000000  0.4634330000000  0.5024510000000 1.0
C      1  0.5356440000000  0.4047720000000  0.5197230000000 1.0
C      1  0.4802800000000  0.4054400000000  0.5246320000000 1.0
C      1  0.4222850000000  0.4280180000000  0.4707840000000 1.0
C      1  0.5003860000000  0.4468820000000  0.4071180000000 1.0
C      1  0.4194090000000  0.4196930000000  0.4442530000000 1.0
C      1  0.4078130000000  0.4189430000000  0.4928460000000 1.0
C      1  0.5825830000000  0.4431660000000  0.4691130000000 1.0
C      1  0.5909930000000  0.4562340000000  0.4941230000000 1.0
C      1  0.5294290000000  0.5324910000000  0.5079080000000 1.0
C      1  0.5383030000000  0.4136290000000  0.5481630000000 1.0
C      1  0.5068630000000  0.4686270000000  0.4447940000000 1.0
C      1  0.4465170000000  0.5298070000000  0.5847440000000 1.0
C      1  0.4560650000000  0.4708440000000  0.5605430000000 1.0
C      1  0.5183030000000  0.5599430000000  0.5955670000000 1.0
C      1  0.4343820000000  0.4641720000000  0.4272720000000 1.0
C      1  0.5199950000000  0.4614040000000  0.6074120000000 1.0
C      1  0.5007050000000  0.4477010000000  0.5270180000000 1.0
C      1  0.4322520000000  0.4785260000000  0.5785980000000 1.0
C      1  0.4733520000000  0.5340670000000  0.5973030000000 1.0
C      1  0.4710390000000  0.5328780000000  0.5221100000000 1.0
C      1  0.4898310000000  0.5167380000000  0.4821390000000 1.0
C      1  0.4945190000000  0.4253200000000  0.5701850000000 1.0
C      1  0.5409780000000  0.4526990000000  0.5075590000000 1.0
C      1  0.5297800000000  0.5096410000000  0.5719480000000 1.0
C      1  0.4849140000000  0.5101210000000  0.5620550000000 1.0
C      1  0.5971580000000  0.5334730000000  0.5358340000000 1.0
C      1  0.4132980000000  0.4291530000000  0.5184060000000 1.0
C      1  0.4597520000000  0.5716770000000  0.4298690000000 1.0
C      1  0.4727230000000  0.5636970000000  0.4060280000000 1.0
C      1  0.5609140000000  0.5276780000000  0.4750570000000 1.0
C      1  0.5605600000000  0.5558500000000  0.5656330000000 1.0
C      1  0.5454030000000  0.5625770000000  0.4709510000000 1.0
C      1  0.4075950000000  0.5478510000000  0.4543610000000 1.0
C      1  0.5613320000000  0.5155050000000  0.4205600000000 1.0
C      1  0.4681890000000  0.5105640000000  0.5013510000000 1.0
C      1  0.4391340000000  0.4343580000000  0.4300660000000 1.0
C      1  0.5837020000000  0.4913280000000  0.5634760000000 1.0
C      1  0.4467800000000  0.5914340000000  0.5303470000000 1.0
C      1  0.4911360000000  0.4588560000000  0.6085280000000 1.0
C      1  0.4571420000000  0.5583150000000  0.4885670000000 1.0
C      1  0.4601780000000  0.4166770000000  0.5051730000000 1.0
C      1  0.4846960000000  0.4717040000000  0.4004420000000 1.0
C      1  0.4825200000000  0.4375860000000  0.5924020000000 1.0
C      1  0.5462520000000  0.5155440000000  0.3950900000000 1.0
C      1  0.4972210000000  0.5161340000000  0.4288650000000 1.0
C      1  0.4656080000000  0.5857860000000  0.4840760000000 1.0
C      1  0.5092860000000  0.4658960000000  0.5599570000000 1.0
C      1  0.4746060000000  0.5396530000000  0.3912630000000 1.0
C      1  0.5235240000000  0.4257920000000  0.5701900000000 1.0
C      1  0.3981860000000  0.4536830000000  0.5246760000000 1.0
C      1  0.5061490000000  0.3963510000000  0.5109300000000 1.0
C      1  0.4345700000000  0.4944750000000  0.4029820000000 1.0
C      1  0.5319730000000  0.6071350000000  0.4113670000000 1.0
C      1  0.5625860000000  0.4206840000000  0.4724040000000 1.0
C      1  0.4511610000000  0.6030310000000  0.5039460000000 1.0
C      1  0.4899920000000  0.5561800000000  0.5878210000000 1.0
C      1  0.5860970000000  0.5752920000000  0.4924570000000 1.0
C      1  0.4783960000000  0.4276540000000  0.4833650000000 1.0
C      1  0.4491680000000  0.5271500000000  0.3897860000000 1.0
C      1  0.4952790000000  0.5938390000000  0.5541590000000 1.0
C      1  0.5337830000000  0.4590260000000  0.4579390000000 1.0
C      1  0.4091750000000  0.5187390000000  0.4461680000000 1.0
C      1  0.3963480000000  0.5236950000000  0.4936090000000 1.0
C      1  0.5169740000000  0.4931100000000  0.4287760000000 1.0
C      1  0.5762350000000  0.5375490000000  0.4290990000000 1.0
C      1  0.5522420000000  0.4761420000000  0.4876980000000 1.0
C      1  0.5713720000000  0.5053720000000  0.5858410000000 1.0
C      1  0.4160840000000  0.5147180000000  0.4176850000000 1.0
C      1  0.4219570000000  0.4935100000000  0.5363410000000 1.0
C      1  0.3955560000000  0.4578750000000  0.5523990000000 1.0
C      1  0.5423820000000  0.4936380000000  0.5287320000000 1.0
C      1  0.4654090000000  0.4483900000000  0.4630170000000 1.0
C      1  0.5607840000000  0.4835930000000  0.6031700000000 1.0
C      1  0.4698960000000  0.5918850000000  0.5459520000000 1.0
C      1  0.5616810000000  0.4582720000000  0.5873330000000 1.0
C      1  0.5720880000000  0.5218400000000  0.5019350000000 1.0
C      1  0.4602800000000  0.4825870000000  0.4178410000000 1.0
END
