TITL C-950533-5798-400 -0.0230876137373113 125000 -134.752005439115 0 0 24 (C1) n - 1
REM
REM in /home/bkarasulu/work/CARBON/AIRSS/Generating-Clusters/EDIP-Nigel-Params/with-SteepDescent/Only-C1/SD-CG/HFTN-CG
REM
REM
REM
REM
REM
REM ./C.cell (11c1c37f851c82e70ff6c80c92926a4b)
REM
REM compiler GCC version 9.2.1 20190827 (Red Hat 9.2.1-1)
REM options -cpp -mtune=generic -march=x86-64 -g -O0 -fpre-include=/usr/include/finclude/math-vector-fortran.h
REM seed -891135380 1842987573 1207156212 -1853349271 -1479965553 -2040301594 208702524 -789330283 1388150164 522906964 -1037613748 1892369967 -414050467 -1069715600 1218145020 -1897059535 -34955177 -1515596968 1876404604 -726098836 -1134921077 598657973 1183953273 1291284330 -1808455292 1892008025 626366131 -480484305 994867168 -137334881 -612904754 -210346726 -1148282461
REM
CELL 1.54180   50.00000   50.00000   50.00000   90.00000   90.00000   90.00000
LATT -1
SFAC C  
C      1  0.5240340000000  0.4707470000000  0.5245570000000 1.0
C      1  0.4784340000000  0.4905370000000  0.4923180000000 1.0
C      1  0.5158900000000  0.5355500000000  0.4472570000000 1.0
C      1  0.4377350000000  0.5054390000000  0.4659770000000 1.0
C      1  0.4769380000000  0.4673510000000  0.5281850000000 1.0
C      1  0.5204390000000  0.4820280000000  0.5501420000000 1.0
C      1  0.5508850000000  0.5339790000000  0.5065360000000 1.0
C      1  0.5440500000000  0.4747520000000  0.4791110000000 1.0
C      1  0.5068470000000  0.5258420000000  0.4701030000000 1.0
C      1  0.4938930000000  0.5163590000000  0.4924470000000 1.0
C      1  0.5261360000000  0.5447080000000  0.4256930000000 1.0
C      1  0.4479240000000  0.5021090000000  0.5137310000000 1.0
C      1  0.4267380000000  0.5144780000000  0.4447000000000 1.0
C      1  0.5195130000000  0.4662480000000  0.4715150000000 1.0
C      1  0.5415260000000  0.4844650000000  0.5054180000000 1.0
C      1  0.4479730000000  0.4912030000000  0.4870480000000 1.0
C      1  0.5554430000000  0.5078730000000  0.5146470000000 1.0
C      1  0.5029120000000  0.5235340000000  0.5191160000000 1.0
C      1  0.4950170000000  0.4643240000000  0.4849610000000 1.0
C      1  0.4658760000000  0.4926550000000  0.5344670000000 1.0
C      1  0.5051940000000  0.5008490000000  0.5625090000000 1.0
C      1  0.5290780000000  0.5350160000000  0.5235750000000 1.0
C      1  0.4993010000000  0.4583970000000  0.5136840000000 1.0
C      1  0.4882230000000  0.5115580000000  0.5423030000000 1.0
END
