TITL C-950526-5686-245 -4.16263560631936e-07 125000 -249.296790818668 0 0 41 (C1) n - 1
REM
REM in /home/bkarasulu/work/CARBON/AIRSS/Generating-Clusters/EDIP-Nigel-Params/with-SteepDescent/Only-C1/SD-CG/HFTN-CG
REM
REM
REM
REM
REM
REM ./C.cell (11c1c37f851c82e70ff6c80c92926a4b)
REM
REM compiler GCC version 9.2.1 20190827 (Red Hat 9.2.1-1)
REM options -cpp -mtune=generic -march=x86-64 -g -O0 -fpre-include=/usr/include/finclude/math-vector-fortran.h
REM seed -1507293648 -1822414964 -424502148 -395319509 666117577 762451506 1292526388 1042343778 1262395913 -1681529218 -1812486073 1866275239 -720405044 1023379209 1539078985 -92811888 2107647578 1423723096 -635032183 -1358797 -383305832 1644316109 1169663754 -1634720359 -119616589 414901041 -71624823 1455514537 946068412 839807903 95259393 1885329676 1927326346
REM
CELL 1.54180   50.00000   50.00000   50.00000   90.00000   90.00000   90.00000
LATT -1
SFAC C  
C      1  0.4556350000000  0.5422990000000  0.4847320000000 1.0
C      1  0.4560870000000  0.4880000000000  0.5213690000000 1.0
C      1  0.4889430000000  0.5023540000000  0.5602350000000 1.0
C      1  0.4871210000000  0.5313110000000  0.5527360000000 1.0
C      1  0.4837280000000  0.4863920000000  0.5340720000000 1.0
C      1  0.4927750000000  0.4591580000000  0.5421800000000 1.0
C      1  0.4622460000000  0.4560610000000  0.4827240000000 1.0
C      1  0.4742370000000  0.4390450000000  0.5021010000000 1.0
C      1  0.5039030000000  0.4402330000000  0.4647380000000 1.0
C      1  0.5354760000000  0.4818550000000  0.4639560000000 1.0
C      1  0.4784050000000  0.5418620000000  0.5046320000000 1.0
C      1  0.5206290000000  0.4660920000000  0.5483650000000 1.0
C      1  0.4819650000000  0.4773640000000  0.4413930000000 1.0
C      1  0.5544010000000  0.5105190000000  0.5260340000000 1.0
C      1  0.4633670000000  0.5373010000000  0.4582660000000 1.0
C      1  0.4661270000000  0.5355640000000  0.5310890000000 1.0
C      1  0.4974020000000  0.5196180000000  0.4951320000000 1.0
C      1  0.4810530000000  0.5241020000000  0.4428780000000 1.0
C      1  0.5172640000000  0.5307010000000  0.4782590000000 1.0
C      1  0.4358160000000  0.5225350000000  0.4957690000000 1.0
C      1  0.5682970000000  0.5164340000000  0.4800500000000 1.0
C      1  0.5196660000000  0.4939570000000  0.5599800000000 1.0
C      1  0.5165430000000  0.4641300000000  0.4997930000000 1.0
C      1  0.5061180000000  0.4975060000000  0.5145500000000 1.0
C      1  0.4959730000000  0.5011080000000  0.4382940000000 1.0
C      1  0.5274550000000  0.4551660000000  0.4591790000000 1.0
C      1  0.5229720000000  0.5000700000000  0.4463560000000 1.0
C      1  0.4785350000000  0.4546110000000  0.4575940000000 1.0
C      1  0.5575150000000  0.4903780000000  0.4830780000000 1.0
C      1  0.4342350000000  0.4985410000000  0.4799600000000 1.0
C      1  0.4446540000000  0.5153720000000  0.5244180000000 1.0
C      1  0.5355420000000  0.4648920000000  0.5215220000000 1.0
C      1  0.5257930000000  0.5109800000000  0.5354160000000 1.0
C      1  0.5588480000000  0.5299870000000  0.5034170000000 1.0
C      1  0.5174330000000  0.5580230000000  0.5187990000000 1.0
C      1  0.5152100000000  0.5385960000000  0.5420370000000 1.0
C      1  0.5336770000000  0.5453540000000  0.4965060000000 1.0
C      1  0.5016200000000  0.4393560000000  0.4942630000000 1.0
C      1  0.4532120000000  0.4819790000000  0.4927710000000 1.0
C      1  0.5577140000000  0.4838810000000  0.5131710000000 1.0
C      1  0.4924070000000  0.5673100000000  0.5081880000000 1.0
END
