TITL C-951340-9809-241 8.31516396434249e-08 125000 -375.843441299058 0 0 62 (C1) n - 1
REM
REM in /home/bkarasulu/work/CARBON/AIRSS/Generating-Clusters/EDIP-Nigel-Params/with-SteepDescent/Only-C1/SD-CG/HFTN-CG
REM
REM
REM
REM
REM
REM ./C.cell (11c1c37f851c82e70ff6c80c92926a4b)
REM
REM compiler GCC version 9.2.1 20190827 (Red Hat 9.2.1-1)
REM options -cpp -mtune=generic -march=x86-64 -g -O0 -fpre-include=/usr/include/finclude/math-vector-fortran.h
REM seed -602018440 -1794053669 647615674 -581400014 -1424455958 -863903568 478990839 54596976 -1349573097 -994689252 -593646175 -1732010105 609064243 1681721370 -337375971 -1797311237 -497439263 2079369120 -1210726639 -186785886 2146942930 -592254156 -1974684933 -1833212438 1256874305 -142117766 72083736 552978518 -438416267 1607900234 -1246849513 -1037493495 -698719771
REM
CELL 1.54180   50.00000   50.00000   50.00000   90.00000   90.00000   90.00000
LATT -1
SFAC C  
C      1  0.5567140000000  0.4567750000000  0.4709680000000 1.0
C      1  0.4858700000000  0.4666390000000  0.4751590000000 1.0
C      1  0.4926090000000  0.4291470000000  0.4550470000000 1.0
C      1  0.5527590000000  0.5336760000000  0.4590730000000 1.0
C      1  0.4673820000000  0.5115220000000  0.5766170000000 1.0
C      1  0.4568070000000  0.4389620000000  0.5207800000000 1.0
C      1  0.5581380000000  0.5677440000000  0.4891990000000 1.0
C      1  0.5051830000000  0.4586280000000  0.4992580000000 1.0
C      1  0.4587410000000  0.4359320000000  0.4916000000000 1.0
C      1  0.5431030000000  0.5049370000000  0.4595870000000 1.0
C      1  0.5054130000000  0.5223450000000  0.5044830000000 1.0
C      1  0.4934430000000  0.5715660000000  0.4637100000000 1.0
C      1  0.5572650000000  0.5269090000000  0.5070390000000 1.0
C      1  0.5004080000000  0.4290190000000  0.5064270000000 1.0
C      1  0.5423380000000  0.5449290000000  0.5267140000000 1.0
C      1  0.4489540000000  0.4865430000000  0.5424480000000 1.0
C      1  0.5178940000000  0.5121430000000  0.5525940000000 1.0
C      1  0.5164880000000  0.4632130000000  0.5479550000000 1.0
C      1  0.4431830000000  0.4575690000000  0.4790100000000 1.0
C      1  0.5377690000000  0.4978370000000  0.4901760000000 1.0
C      1  0.4808900000000  0.5162050000000  0.4900320000000 1.0
C      1  0.4830570000000  0.4304230000000  0.5332310000000 1.0
C      1  0.5499980000000  0.4805460000000  0.5584860000000 1.0
C      1  0.5210430000000  0.5554470000000  0.4580830000000 1.0
C      1  0.5606900000000  0.4831520000000  0.5061030000000 1.0
C      1  0.4350520000000  0.5056570000000  0.5022520000000 1.0
C      1  0.4751190000000  0.5063720000000  0.4316170000000 1.0
C      1  0.4424830000000  0.5114580000000  0.5296620000000 1.0
C      1  0.4346730000000  0.5268130000000  0.4832170000000 1.0
C      1  0.5633140000000  0.5056420000000  0.5502190000000 1.0
C      1  0.4638980000000  0.5533340000000  0.5133750000000 1.0
C      1  0.4819130000000  0.4962720000000  0.4687790000000 1.0
C      1  0.4327000000000  0.4757320000000  0.5000620000000 1.0
C      1  0.5117980000000  0.5031390000000  0.5251650000000 1.0
C      1  0.4605550000000  0.4855370000000  0.5683020000000 1.0
C      1  0.4506930000000  0.4684570000000  0.4542140000000 1.0
C      1  0.4584270000000  0.5346730000000  0.5364180000000 1.0
C      1  0.5561410000000  0.4789230000000  0.4522260000000 1.0
C      1  0.5297170000000  0.5635060000000  0.4874810000000 1.0
C      1  0.4815040000000  0.5357400000000  0.4347200000000 1.0
C      1  0.4933000000000  0.4465240000000  0.5578980000000 1.0
C      1  0.5731400000000  0.5049480000000  0.5216450000000 1.0
C      1  0.5099860000000  0.5329440000000  0.4394130000000 1.0
C      1  0.4985880000000  0.4568870000000  0.4496420000000 1.0
C      1  0.5284570000000  0.4680620000000  0.4795120000000 1.0
C      1  0.4834600000000  0.4220770000000  0.4816050000000 1.0
C      1  0.4555570000000  0.4962740000000  0.4518810000000 1.0
C      1  0.4661470000000  0.5355540000000  0.5635540000000 1.0
C      1  0.5426540000000  0.5287820000000  0.5522480000000 1.0
C      1  0.4903160000000  0.5835190000000  0.4892260000000 1.0
C      1  0.5746640000000  0.4629470000000  0.4919610000000 1.0
C      1  0.4616590000000  0.5385430000000  0.4855990000000 1.0
C      1  0.4891630000000  0.5691760000000  0.5136120000000 1.0
C      1  0.5054150000000  0.4755210000000  0.5236120000000 1.0
C      1  0.4710610000000  0.5531260000000  0.4580290000000 1.0
C      1  0.5146100000000  0.5507610000000  0.5112580000000 1.0
C      1  0.5172800000000  0.5055490000000  0.4451090000000 1.0
C      1  0.4408370000000  0.4640100000000  0.5260520000000 1.0
C      1  0.5042170000000  0.4817820000000  0.4335470000000 1.0
C      1  0.5675270000000  0.5417380000000  0.4827160000000 1.0
C      1  0.4745890000000  0.4617450000000  0.5729760000000 1.0
C      1  0.5232460000000  0.4864680000000  0.5674190000000 1.0
END
