TITL C-951337-3020-739 7.18615324125339e-07 125000 -641.216470903184 0 0 104 (C1) n - 1
REM
REM in /home/bkarasulu/work/CARBON/AIRSS/Generating-Clusters/EDIP-Nigel-Params/with-SteepDescent/Only-C1/SD-CG/HFTN-CG
REM
REM
REM
REM
REM
REM ./C.cell (11c1c37f851c82e70ff6c80c92926a4b)
REM
REM compiler GCC version 9.2.1 20190827 (Red Hat 9.2.1-1)
REM options -cpp -mtune=generic -march=x86-64 -g -O0 -fpre-include=/usr/include/finclude/math-vector-fortran.h
REM seed -413289742 2062710570 799724074 1141874851 1425361665 -400113766 -550078075 -1532125137 1086471221 186103004 1379264269 -1073200397 2047262673 -1437480078 1352093716 -102864260 1360237885 -1454792222 -892888374 -760768997 637305877 -1814982019 -44882606 -1987314147 1044969893 -7023387 16268412 -1320436442 -2047160689 466620236 -926128015 -504769289 -445226703
REM
CELL 1.54180   50.00000   50.00000   50.00000   90.00000   90.00000   90.00000
LATT -1
SFAC C  
C      1  0.5322880000000  0.4797310000000  0.4225670000000 1.0
C      1  0.4224000000000  0.5402630000000  0.5143000000000 1.0
C      1  0.4550120000000  0.5074010000000  0.4220000000000 1.0
C      1  0.4529620000000  0.4411560000000  0.4803480000000 1.0
C      1  0.5896700000000  0.4654340000000  0.4977080000000 1.0
C      1  0.4906860000000  0.5875710000000  0.4697150000000 1.0
C      1  0.5709440000000  0.4484180000000  0.4845480000000 1.0
C      1  0.4709700000000  0.5342090000000  0.4985310000000 1.0
C      1  0.5050080000000  0.5122420000000  0.5452190000000 1.0
C      1  0.4642110000000  0.4789030000000  0.5369310000000 1.0
C      1  0.5830420000000  0.5090380000000  0.4808790000000 1.0
C      1  0.5361840000000  0.4230150000000  0.5056900000000 1.0
C      1  0.5175720000000  0.4945670000000  0.4602850000000 1.0
C      1  0.4670510000000  0.4291200000000  0.5398790000000 1.0
C      1  0.4577300000000  0.5272750000000  0.4442100000000 1.0
C      1  0.5032440000000  0.5172080000000  0.4081260000000 1.0
C      1  0.4940110000000  0.4500740000000  0.5095330000000 1.0
C      1  0.4636760000000  0.4123380000000  0.5174650000000 1.0
C      1  0.5275120000000  0.5536750000000  0.5486710000000 1.0
C      1  0.3845850000000  0.5067570000000  0.4843990000000 1.0
C      1  0.4614780000000  0.4449030000000  0.4522680000000 1.0
C      1  0.4849110000000  0.5586160000000  0.5333120000000 1.0
C      1  0.4387940000000  0.5502490000000  0.5371930000000 1.0
C      1  0.4496730000000  0.5113280000000  0.4899870000000 1.0
C      1  0.4791370000000  0.4997090000000  0.4069420000000 1.0
C      1  0.5405770000000  0.4754660000000  0.5024450000000 1.0
C      1  0.5442740000000  0.4395240000000  0.5684560000000 1.0
C      1  0.4950990000000  0.5577220000000  0.4239260000000 1.0
C      1  0.4276930000000  0.5496860000000  0.4848010000000 1.0
C      1  0.5235370000000  0.4145580000000  0.4782240000000 1.0
C      1  0.4671030000000  0.5714250000000  0.4624240000000 1.0
C      1  0.5641330000000  0.5491470000000  0.5195600000000 1.0
C      1  0.4688860000000  0.5549370000000  0.4381800000000 1.0
C      1  0.4628310000000  0.4834450000000  0.4875050000000 1.0
C      1  0.4556160000000  0.5038920000000  0.5766820000000 1.0
C      1  0.5788470000000  0.5009650000000  0.5271790000000 1.0
C      1  0.5510500000000  0.4956180000000  0.5807150000000 1.0
C      1  0.4753310000000  0.4284360000000  0.4960300000000 1.0
C      1  0.5075460000000  0.4679830000000  0.4330260000000 1.0
C      1  0.4727830000000  0.4813550000000  0.5666330000000 1.0
C      1  0.5194920000000  0.4952800000000  0.5876980000000 1.0
C      1  0.5550040000000  0.4569500000000  0.5475110000000 1.0
C      1  0.5566210000000  0.5498150000000  0.4903190000000 1.0
C      1  0.4571970000000  0.5836260000000  0.5069710000000 1.0
C      1  0.5934960000000  0.4958260000000  0.4582620000000 1.0
C      1  0.4280190000000  0.5108730000000  0.5110280000000 1.0
C      1  0.4783280000000  0.5262770000000  0.5349930000000 1.0
C      1  0.5738650000000  0.4893010000000  0.5017400000000 1.0
C      1  0.5390810000000  0.5729920000000  0.4846500000000 1.0
C      1  0.4133970000000  0.4683410000000  0.5431870000000 1.0
C      1  0.4579410000000  0.5717060000000  0.5337690000000 1.0
C      1  0.5531840000000  0.4756830000000  0.4419810000000 1.0
C      1  0.4262630000000  0.4513780000000  0.5216440000000 1.0
C      1  0.5470680000000  0.5698610000000  0.5325810000000 1.0
C      1  0.4799090000000  0.4768170000000  0.5106270000000 1.0
C      1  0.5655310000000  0.5298430000000  0.4702670000000 1.0
C      1  0.4815750000000  0.5174760000000  0.4594130000000 1.0
C      1  0.4857650000000  0.4269680000000  0.4502040000000 1.0
C      1  0.4926490000000  0.4131540000000  0.4760100000000 1.0
C      1  0.4638090000000  0.4738140000000  0.4395450000000 1.0
C      1  0.5538970000000  0.4524580000000  0.4605600000000 1.0
C      1  0.4947150000000  0.4396940000000  0.5390530000000 1.0
C      1  0.5003940000000  0.5400350000000  0.4881720000000 1.0
C      1  0.5197160000000  0.4266220000000  0.5658320000000 1.0
C      1  0.5647990000000  0.4295520000000  0.5058220000000 1.0
C      1  0.5117930000000  0.4161210000000  0.5417390000000 1.0
C      1  0.5015150000000  0.5684770000000  0.5083290000000 1.0
C      1  0.5165790000000  0.5733790000000  0.4650240000000 1.0
C      1  0.4342570000000  0.4584580000000  0.4941040000000 1.0
C      1  0.5104310000000  0.5218590000000  0.5752120000000 1.0
C      1  0.5097020000000  0.4813510000000  0.5422270000000 1.0
C      1  0.4984970000000  0.5435680000000  0.4000270000000 1.0
C      1  0.4799780000000  0.4866690000000  0.4624020000000 1.0
C      1  0.4490690000000  0.4530230000000  0.5421350000000 1.0
C      1  0.4996040000000  0.5633800000000  0.5579260000000 1.0
C      1  0.5590850000000  0.5220180000000  0.5679310000000 1.0
C      1  0.5640350000000  0.5230290000000  0.5374300000000 1.0
C      1  0.5299040000000  0.5814490000000  0.5113200000000 1.0
C      1  0.4864460000000  0.5428410000000  0.5761600000000 1.0
C      1  0.5296240000000  0.5089080000000  0.4206940000000 1.0
C      1  0.5224160000000  0.4491750000000  0.4962640000000 1.0
C      1  0.5653940000000  0.4718400000000  0.5706400000000 1.0
C      1  0.5102630000000  0.4398580000000  0.4401970000000 1.0
C      1  0.5260830000000  0.5262960000000  0.5299150000000 1.0
C      1  0.5327730000000  0.4329990000000  0.4567760000000 1.0
C      1  0.5579580000000  0.5238940000000  0.4419480000000 1.0
C      1  0.5738820000000  0.4429830000000  0.5294950000000 1.0
C      1  0.4553840000000  0.5601850000000  0.4881330000000 1.0
C      1  0.4425490000000  0.5007550000000  0.5351700000000 1.0
C      1  0.4252690000000  0.4915190000000  0.5568930000000 1.0
C      1  0.4354880000000  0.5252920000000  0.4658760000000 1.0
C      1  0.4611660000000  0.5305680000000  0.5621040000000 1.0
C      1  0.5193130000000  0.5217850000000  0.5013590000000 1.0
C      1  0.5036390000000  0.4755500000000  0.5712040000000 1.0
C      1  0.5365780000000  0.5394510000000  0.5736920000000 1.0
C      1  0.3773600000000  0.5044340000000  0.5101340000000 1.0
C      1  0.4033520000000  0.4955070000000  0.5026540000000 1.0
C      1  0.4849750000000  0.5919440000000  0.4985880000000 1.0
C      1  0.5364700000000  0.4748840000000  0.5321860000000 1.0
C      1  0.4833250000000  0.4725350000000  0.4169450000000 1.0
C      1  0.5107430000000  0.5259500000000  0.4506260000000 1.0
C      1  0.5244680000000  0.4963640000000  0.4891260000000 1.0
C      1  0.5719790000000  0.4979400000000  0.4397060000000 1.0
C      1  0.5188840000000  0.5620600000000  0.4393810000000 1.0
END
