TITL C-950529-3362-26 1.0469755539688e-05 125000 -231.129281664698 0 0 39 (C1) n - 1
REM
REM in /home/bkarasulu/work/CARBON/AIRSS/Generating-Clusters/EDIP-Nigel-Params/with-SteepDescent/Only-C1/SD-CG/HFTN-CG
REM
REM
REM
REM
REM
REM ./C.cell (11c1c37f851c82e70ff6c80c92926a4b)
REM
REM compiler GCC version 9.2.1 20190827 (Red Hat 9.2.1-1)
REM options -cpp -mtune=generic -march=x86-64 -g -O0 -fpre-include=/usr/include/finclude/math-vector-fortran.h
REM seed 1437494285 -1688308740 -866034868 -170460160 38745818 -671783527 581804949 2011761181 -1039122960 -984044091 -1255221549 -1971197953 454091825 1596500476 1418890976 103282560 -736470539 -2105268158 -105126119 374289264 1650874478 -1154696917 -1512119943 797958682 -839639281 -1000767707 1585675757 1085148295 -1337158928 1184548617 -1039674385 -795813784 711158227
REM
CELL 1.54180   50.00000   50.00000   50.00000   90.00000   90.00000   90.00000
LATT -1
SFAC C  
C      1  0.5102700000000  0.4990420000000  0.4520160000000 1.0
C      1  0.4961880000000  0.4505280000000  0.4666910000000 1.0
C      1  0.5111400000000  0.4478250000000  0.5210320000000 1.0
C      1  0.4418340000000  0.5089920000000  0.5202340000000 1.0
C      1  0.5051160000000  0.4976240000000  0.5339850000000 1.0
C      1  0.5051880000000  0.4959690000000  0.4998850000000 1.0
C      1  0.4658050000000  0.5258330000000  0.4822510000000 1.0
C      1  0.4782850000000  0.4980680000000  0.4810710000000 1.0
C      1  0.4647880000000  0.4655950000000  0.5329730000000 1.0
C      1  0.4813810000000  0.4454130000000  0.5170080000000 1.0
C      1  0.5535460000000  0.4878880000000  0.5327430000000 1.0
C      1  0.5671820000000  0.4990750000000  0.4631980000000 1.0
C      1  0.4729800000000  0.5662310000000  0.5208450000000 1.0
C      1  0.5687010000000  0.4854530000000  0.5108580000000 1.0
C      1  0.4428140000000  0.5274230000000  0.4991450000000 1.0
C      1  0.4585700000000  0.4760080000000  0.4870410000000 1.0
C      1  0.5401510000000  0.4601860000000  0.4811120000000 1.0
C      1  0.5046820000000  0.5256430000000  0.5447600000000 1.0
C      1  0.4764390000000  0.5290590000000  0.5524280000000 1.0
C      1  0.5107000000000  0.5438120000000  0.4707730000000 1.0
C      1  0.4923210000000  0.5162340000000  0.4365430000000 1.0
C      1  0.5499290000000  0.5148540000000  0.4775800000000 1.0
C      1  0.5235230000000  0.4568050000000  0.4559930000000 1.0
C      1  0.4745100000000  0.4506310000000  0.4873290000000 1.0
C      1  0.5287050000000  0.4820790000000  0.5433680000000 1.0
C      1  0.4980820000000  0.5434180000000  0.4450310000000 1.0
C      1  0.5206350000000  0.5151490000000  0.4759830000000 1.0
C      1  0.5249270000000  0.4790260000000  0.4385500000000 1.0
C      1  0.5014190000000  0.5662980000000  0.5155930000000 1.0
C      1  0.4467180000000  0.4807930000000  0.5140490000000 1.0
C      1  0.4810420000000  0.4851800000000  0.5485220000000 1.0
C      1  0.5218380000000  0.4551780000000  0.5460650000000 1.0
C      1  0.4604620000000  0.5416370000000  0.5307170000000 1.0
C      1  0.5149750000000  0.5471420000000  0.5305280000000 1.0
C      1  0.5145850000000  0.4660920000000  0.4970610000000 1.0
C      1  0.4945750000000  0.5588200000000  0.4890560000000 1.0
C      1  0.4663530000000  0.5215840000000  0.4521150000000 1.0
C      1  0.5638080000000  0.4786310000000  0.4835380000000 1.0
C      1  0.4658330000000  0.5047820000000  0.5623290000000 1.0
END
