TITL C-951334-9093-577 -3.08571329884137e-06 125000 -1118.53729899958 0 0 179 (C1) n - 1
REM
REM in /home/bkarasulu/work/CARBON/AIRSS/Generating-Clusters/EDIP-Nigel-Params/with-SteepDescent/Only-C1/SD-CG/HFTN-CG
REM
REM
REM
REM
REM
REM ./C.cell (11c1c37f851c82e70ff6c80c92926a4b)
REM
REM compiler GCC version 9.2.1 20190827 (Red Hat 9.2.1-1)
REM options -cpp -mtune=generic -march=x86-64 -g -O0 -fpre-include=/usr/include/finclude/math-vector-fortran.h
REM seed 1222157387 -873640885 -1500575537 1781155120 -576999383 1758589713 516605103 2078319214 1065678749 835741537 2066238464 333101671 -102854134 1851431273 -793092338 -1509364186 1175549506 2081734013 1886560081 -1557040696 780610065 -312970386 1325112277 -1923453029 1266729161 1700952761 -2008961958 343371932 92481697 1919722312 886100742 1912729558 525862871
REM
CELL 1.54180   50.00000   50.00000   50.00000   90.00000   90.00000   90.00000
LATT -1
SFAC C  
C      1  0.4768120000000  0.4345760000000  0.5889220000000 1.0
C      1  0.5340890000000  0.5145760000000  0.3931740000000 1.0
C      1  0.4531470000000  0.5727810000000  0.4855020000000 1.0
C      1  0.3946080000000  0.4748960000000  0.4281730000000 1.0
C      1  0.5481890000000  0.5735080000000  0.5071620000000 1.0
C      1  0.5116060000000  0.4695650000000  0.6001960000000 1.0
C      1  0.4503600000000  0.4866360000000  0.5350830000000 1.0
C      1  0.5487720000000  0.4569200000000  0.5220040000000 1.0
C      1  0.4513780000000  0.4141250000000  0.5351990000000 1.0
C      1  0.4832060000000  0.5634060000000  0.5251050000000 1.0
C      1  0.4309900000000  0.4880250000000  0.3977700000000 1.0
C      1  0.5910050000000  0.4383270000000  0.5077000000000 1.0
C      1  0.5237430000000  0.4995200000000  0.4417970000000 1.0
C      1  0.4834770000000  0.5765740000000  0.5526100000000 1.0
C      1  0.5828840000000  0.4751310000000  0.4377480000000 1.0
C      1  0.5198650000000  0.5452820000000  0.4894050000000 1.0
C      1  0.3971580000000  0.5012800000000  0.4894400000000 1.0
C      1  0.5272340000000  0.5156890000000  0.6012560000000 1.0
C      1  0.4513300000000  0.5769900000000  0.4387470000000 1.0
C      1  0.3900600000000  0.5460720000000  0.5179640000000 1.0
C      1  0.5099040000000  0.5901310000000  0.5573330000000 1.0
C      1  0.5310810000000  0.4934800000000  0.4941830000000 1.0
C      1  0.5120310000000  0.5295720000000  0.5804000000000 1.0
C      1  0.4672920000000  0.5655680000000  0.4176020000000 1.0
C      1  0.5023950000000  0.5559000000000  0.5900610000000 1.0
C      1  0.4144580000000  0.5169640000000  0.4337020000000 1.0
C      1  0.4571070000000  0.5917190000000  0.4633170000000 1.0
C      1  0.5066650000000  0.5855870000000  0.4597790000000 1.0
C      1  0.4009210000000  0.5253060000000  0.5334590000000 1.0
C      1  0.4764030000000  0.5576800000000  0.5757540000000 1.0
C      1  0.4965860000000  0.4929030000000  0.6098880000000 1.0
C      1  0.4272580000000  0.4491540000000  0.4440660000000 1.0
C      1  0.5382010000000  0.4680370000000  0.5838440000000 1.0
C      1  0.4472780000000  0.4744390000000  0.5869440000000 1.0
C      1  0.5272880000000  0.5970820000000  0.5333740000000 1.0
C      1  0.4653980000000  0.4894300000000  0.6069490000000 1.0
C      1  0.5516790000000  0.5851450000000  0.4808680000000 1.0
C      1  0.4211340000000  0.5171700000000  0.5787090000000 1.0
C      1  0.4468320000000  0.5952740000000  0.5302720000000 1.0
C      1  0.5036470000000  0.5517310000000  0.3927690000000 1.0
C      1  0.4916110000000  0.4581960000000  0.5833930000000 1.0
C      1  0.4271210000000  0.5600730000000  0.4403650000000 1.0
C      1  0.4527810000000  0.5216300000000  0.5441660000000 1.0
C      1  0.4498780000000  0.4448240000000  0.5812160000000 1.0
C      1  0.4199490000000  0.4895460000000  0.4243960000000 1.0
C      1  0.4810450000000  0.4089830000000  0.4994990000000 1.0
C      1  0.4627230000000  0.3984630000000  0.4794150000000 1.0
C      1  0.4774180000000  0.4431890000000  0.5339840000000 1.0
C      1  0.5599460000000  0.4426350000000  0.4983210000000 1.0
C      1  0.4856490000000  0.6055110000000  0.4981450000000 1.0
C      1  0.5054690000000  0.4337970000000  0.5393350000000 1.0
C      1  0.5844470000000  0.4382950000000  0.5400950000000 1.0
C      1  0.4545880000000  0.4754470000000  0.5047020000000 1.0
C      1  0.4239320000000  0.5661500000000  0.4879600000000 1.0
C      1  0.5136990000000  0.6006000000000  0.5051390000000 1.0
C      1  0.4114650000000  0.5529840000000  0.4654510000000 1.0
C      1  0.4185690000000  0.4508910000000  0.5428800000000 1.0
C      1  0.4978700000000  0.4847300000000  0.3729950000000 1.0
C      1  0.4773690000000  0.4694940000000  0.3861190000000 1.0
C      1  0.5047380000000  0.4875250000000  0.4205000000000 1.0
C      1  0.4445380000000  0.5262830000000  0.5940380000000 1.0
C      1  0.4996480000000  0.5562710000000  0.4682600000000 1.0
C      1  0.5648940000000  0.4262830000000  0.5822000000000 1.0
C      1  0.4894240000000  0.4479120000000  0.4040150000000 1.0
C      1  0.4005650000000  0.4603180000000  0.4516240000000 1.0
C      1  0.5915750000000  0.4612540000000  0.4626880000000 1.0
C      1  0.4512110000000  0.5113090000000  0.6167690000000 1.0
C      1  0.5680650000000  0.5011340000000  0.4706400000000 1.0
C      1  0.4944570000000  0.4908620000000  0.5535290000000 1.0
C      1  0.5419250000000  0.4840670000000  0.4665010000000 1.0
C      1  0.6078920000000  0.4631950000000  0.5071440000000 1.0
C      1  0.6083650000000  0.5072010000000  0.5204800000000 1.0
C      1  0.5582050000000  0.5804970000000  0.5485860000000 1.0
C      1  0.5414760000000  0.4530530000000  0.4126430000000 1.0
C      1  0.4117270000000  0.5631050000000  0.5131420000000 1.0
C      1  0.4384240000000  0.5146730000000  0.4709180000000 1.0
C      1  0.4237940000000  0.4881820000000  0.5734160000000 1.0
C      1  0.4383840000000  0.4847010000000  0.4724990000000 1.0
C      1  0.5599690000000  0.4754040000000  0.4181210000000 1.0
C      1  0.4952020000000  0.5717030000000  0.4119450000000 1.0
C      1  0.6049570000000  0.5298820000000  0.4748700000000 1.0
C      1  0.4144770000000  0.4397610000000  0.5168850000000 1.0
C      1  0.4719350000000  0.4399670000000  0.4244170000000 1.0
C      1  0.5617890000000  0.4816940000000  0.5311910000000 1.0
C      1  0.4383220000000  0.4141690000000  0.4821520000000 1.0
C      1  0.4834220000000  0.6038690000000  0.4676550000000 1.0
C      1  0.4228780000000  0.5330110000000  0.5529920000000 1.0
C      1  0.5218790000000  0.4590480000000  0.5316350000000 1.0
C      1  0.4859470000000  0.5281940000000  0.3958260000000 1.0
C      1  0.5130400000000  0.4593610000000  0.4168690000000 1.0
C      1  0.5560940000000  0.4410410000000  0.4453530000000 1.0
C      1  0.5058510000000  0.5032280000000  0.3941050000000 1.0
C      1  0.4709740000000  0.4328910000000  0.4524550000000 1.0
C      1  0.5208770000000  0.3800580000000  0.5080140000000 1.0
C      1  0.5658910000000  0.4195460000000  0.5549580000000 1.0
C      1  0.4746980000000  0.5244520000000  0.4331690000000 1.0
C      1  0.6077480000000  0.4799760000000  0.5319120000000 1.0
C      1  0.5691010000000  0.4796850000000  0.5769810000000 1.0
C      1  0.4908350000000  0.4120400000000  0.5771410000000 1.0
C      1  0.5535960000000  0.5258300000000  0.5955210000000 1.0
C      1  0.5401070000000  0.4384880000000  0.5855710000000 1.0
C      1  0.4695110000000  0.5365100000000  0.5242710000000 1.0
C      1  0.4741550000000  0.4927540000000  0.4285780000000 1.0
C      1  0.4591780000000  0.4867200000000  0.4025270000000 1.0
C      1  0.4357410000000  0.4218010000000  0.5105230000000 1.0
C      1  0.5246010000000  0.5431510000000  0.5459300000000 1.0
C      1  0.5145570000000  0.5585660000000  0.5188740000000 1.0
C      1  0.5266700000000  0.5977260000000  0.4784940000000 1.0
C      1  0.4716510000000  0.5257540000000  0.4981110000000 1.0
C      1  0.5723180000000  0.5753940000000  0.5242660000000 1.0
C      1  0.4714710000000  0.4467510000000  0.5027320000000 1.0
C      1  0.4211930000000  0.4808470000000  0.5434000000000 1.0
C      1  0.4233440000000  0.5636150000000  0.5597550000000 1.0
C      1  0.5716840000000  0.4185010000000  0.4541460000000 1.0
C      1  0.5109290000000  0.4774510000000  0.5109410000000 1.0
C      1  0.4038650000000  0.5000190000000  0.5199330000000 1.0
C      1  0.5317630000000  0.5446670000000  0.3973470000000 1.0
C      1  0.5506590000000  0.5542480000000  0.5570130000000 1.0
C      1  0.4700160000000  0.5480870000000  0.4769040000000 1.0
C      1  0.5572930000000  0.5304720000000  0.5090150000000 1.0
C      1  0.5138360000000  0.5163970000000  0.4871980000000 1.0
C      1  0.5061950000000  0.3961620000000  0.4896240000000 1.0
C      1  0.5401830000000  0.3978240000000  0.5179770000000 1.0
C      1  0.5023080000000  0.5066330000000  0.4618870000000 1.0
C      1  0.5167760000000  0.5804510000000  0.4306820000000 1.0
C      1  0.4523280000000  0.5448050000000  0.4026960000000 1.0
C      1  0.4086930000000  0.4759040000000  0.4772720000000 1.0
C      1  0.5829440000000  0.5475610000000  0.5166720000000 1.0
C      1  0.4886720000000  0.4511260000000  0.4732660000000 1.0
C      1  0.5668760000000  0.5490280000000  0.4359240000000 1.0
C      1  0.5222970000000  0.4115770000000  0.4701530000000 1.0
C      1  0.5841040000000  0.4693170000000  0.5488790000000 1.0
C      1  0.4770290000000  0.3990780000000  0.5270570000000 1.0
C      1  0.4233510000000  0.5777560000000  0.5346380000000 1.0
C      1  0.5176120000000  0.4236970000000  0.5752920000000 1.0
C      1  0.5905710000000  0.5229360000000  0.5622720000000 1.0
C      1  0.5713730000000  0.5093840000000  0.5780540000000 1.0
C      1  0.4891720000000  0.5107870000000  0.5764200000000 1.0
C      1  0.5670720000000  0.5005740000000  0.5072530000000 1.0
C      1  0.5545640000000  0.5305620000000  0.4779700000000 1.0
C      1  0.5426700000000  0.5640920000000  0.4211720000000 1.0
C      1  0.5441830000000  0.4532110000000  0.4696450000000 1.0
C      1  0.5015220000000  0.5401970000000  0.4420990000000 1.0
C      1  0.5509220000000  0.5532570000000  0.5857650000000 1.0
C      1  0.4275770000000  0.5394560000000  0.4191530000000 1.0
C      1  0.5970870000000  0.5529950000000  0.4898300000000 1.0
C      1  0.5295210000000  0.5298730000000  0.4338160000000 1.0
C      1  0.4537780000000  0.5353560000000  0.4539840000000 1.0
C      1  0.5920110000000  0.4328800000000  0.4694180000000 1.0
C      1  0.4054600000000  0.4570110000000  0.4978630000000 1.0
C      1  0.5722070000000  0.5213100000000  0.4251960000000 1.0
C      1  0.4667330000000  0.5850670000000  0.5096660000000 1.0
C      1  0.6070760000000  0.5062130000000  0.4909920000000 1.0
C      1  0.5861480000000  0.5039390000000  0.4445970000000 1.0
C      1  0.5279110000000  0.5178900000000  0.5306440000000 1.0
C      1  0.5229940000000  0.4773970000000  0.5564820000000 1.0
C      1  0.4855410000000  0.4824130000000  0.4695860000000 1.0
C      1  0.5990570000000  0.5299690000000  0.5363170000000 1.0
C      1  0.5036470000000  0.4016950000000  0.5422240000000 1.0
C      1  0.4597380000000  0.5941770000000  0.5566710000000 1.0
C      1  0.5421210000000  0.4976290000000  0.5472090000000 1.0
C      1  0.5564060000000  0.4122390000000  0.4989980000000 1.0
C      1  0.4433850000000  0.5779500000000  0.5749740000000 1.0
C      1  0.4399790000000  0.4352650000000  0.5553810000000 1.0
C      1  0.5548020000000  0.5029930000000  0.4101830000000 1.0
C      1  0.4985000000000  0.5031860000000  0.5255120000000 1.0
C      1  0.5208410000000  0.5765260000000  0.5809970000000 1.0
C      1  0.4420590000000  0.4761430000000  0.4421420000000 1.0
C      1  0.4749580000000  0.4037370000000  0.4542770000000 1.0
C      1  0.4439190000000  0.4367530000000  0.4637670000000 1.0
C      1  0.5427280000000  0.4039800000000  0.5451550000000 1.0
C      1  0.5734370000000  0.5510230000000  0.4666440000000 1.0
C      1  0.4717280000000  0.4691540000000  0.5516870000000 1.0
C      1  0.5173670000000  0.4405050000000  0.4728470000000 1.0
C      1  0.6043390000000  0.4781970000000  0.4827450000000 1.0
C      1  0.4749100000000  0.4950900000000  0.4950490000000 1.0
C      1  0.5521180000000  0.4028650000000  0.4714730000000 1.0
C      1  0.4106610000000  0.5223760000000  0.4646090000000 1.0
C      1  0.4655040000000  0.5286810000000  0.5721500000000 1.0
END
