TITL C-951338-5626-150 -2.01708533909688e-06 125000 -1053.59606288164 0 0 169 (C1) n - 1
REM
REM in /home/bkarasulu/work/CARBON/AIRSS/Generating-Clusters/EDIP-Nigel-Params/with-SteepDescent/Only-C1/SD-CG/HFTN-CG
REM
REM
REM
REM
REM
REM ./C.cell (11c1c37f851c82e70ff6c80c92926a4b)
REM
REM compiler GCC version 9.2.1 20190827 (Red Hat 9.2.1-1)
REM options -cpp -mtune=generic -march=x86-64 -g -O0 -fpre-include=/usr/include/finclude/math-vector-fortran.h
REM seed -406300717 1270339452 -245967647 -985986794 326023870 -1748717402 -520876538 1086283496 -596718344 1995071757 -1819899816 -1980046581 -2138198364 -2072901844 1196923431 2084697715 700353685 -858241453 578512039 -1794381692 -223370912 1823656315 -181199395 129669251 -183722934 -1142379026 -1827639419 -303405933 453400819 1918320476 -745073590 963190070 1648522433
REM
CELL 1.54180   50.00000   50.00000   50.00000   90.00000   90.00000   90.00000
LATT -1
SFAC C  
C      1  0.4932970000000  0.4836440000000  0.5489610000000 1.0
C      1  0.4883660000000  0.4960880000000  0.3993630000000 1.0
C      1  0.5344850000000  0.5999260000000  0.5113030000000 1.0
C      1  0.4921690000000  0.4765780000000  0.4617130000000 1.0
C      1  0.5097120000000  0.4380100000000  0.4180970000000 1.0
C      1  0.4600100000000  0.4077200000000  0.4917240000000 1.0
C      1  0.4441570000000  0.5159760000000  0.4673850000000 1.0
C      1  0.5695060000000  0.5311740000000  0.4211280000000 1.0
C      1  0.5169900000000  0.5254610000000  0.4276340000000 1.0
C      1  0.4309330000000  0.4726280000000  0.5128110000000 1.0
C      1  0.4664010000000  0.5157980000000  0.5732480000000 1.0
C      1  0.5432970000000  0.5082630000000  0.5742950000000 1.0
C      1  0.5341720000000  0.5012300000000  0.4651100000000 1.0
C      1  0.4821770000000  0.4504200000000  0.4274270000000 1.0
C      1  0.5818130000000  0.5546760000000  0.4663770000000 1.0
C      1  0.5775560000000  0.5552810000000  0.5389020000000 1.0
C      1  0.4468280000000  0.5167340000000  0.3927910000000 1.0
C      1  0.4205550000000  0.4298920000000  0.4695140000000 1.0
C      1  0.5542370000000  0.4592150000000  0.5160760000000 1.0
C      1  0.4999350000000  0.4124860000000  0.4656820000000 1.0
C      1  0.4729290000000  0.5585590000000  0.5818250000000 1.0
C      1  0.5276180000000  0.4774280000000  0.4234690000000 1.0
C      1  0.6109330000000  0.4710420000000  0.4967570000000 1.0
C      1  0.4197180000000  0.4914090000000  0.5569020000000 1.0
C      1  0.4145000000000  0.4543090000000  0.5564190000000 1.0
C      1  0.5005070000000  0.4995350000000  0.6100870000000 1.0
C      1  0.5147950000000  0.5013190000000  0.4100820000000 1.0
C      1  0.4813660000000  0.4712190000000  0.4897380000000 1.0
C      1  0.5410580000000  0.5173350000000  0.4417750000000 1.0
C      1  0.5579660000000  0.4726940000000  0.4195420000000 1.0
C      1  0.5149230000000  0.5461760000000  0.6083620000000 1.0
C      1  0.4941060000000  0.5996640000000  0.5658670000000 1.0
C      1  0.6009430000000  0.5192640000000  0.4972220000000 1.0
C      1  0.5530150000000  0.5483450000000  0.4066450000000 1.0
C      1  0.5848950000000  0.4243530000000  0.4878870000000 1.0
C      1  0.4058540000000  0.5276460000000  0.4633550000000 1.0
C      1  0.5250280000000  0.4499750000000  0.3967630000000 1.0
C      1  0.5142050000000  0.4352560000000  0.4818000000000 1.0
C      1  0.5009230000000  0.6056140000000  0.4539810000000 1.0
C      1  0.5183510000000  0.4744260000000  0.6038120000000 1.0
C      1  0.5607820000000  0.4131040000000  0.4740500000000 1.0
C      1  0.4523920000000  0.5332490000000  0.4427500000000 1.0
C      1  0.5087220000000  0.5395990000000  0.5474770000000 1.0
C      1  0.6016870000000  0.4816890000000  0.5242260000000 1.0
C      1  0.5598550000000  0.4246120000000  0.5525240000000 1.0
C      1  0.5114400000000  0.4541230000000  0.5819000000000 1.0
C      1  0.4467670000000  0.5642310000000  0.5689910000000 1.0
C      1  0.5536200000000  0.4522660000000  0.3993280000000 1.0
C      1  0.4105210000000  0.5612300000000  0.5237550000000 1.0
C      1  0.6160410000000  0.4951500000000  0.4791990000000 1.0
C      1  0.4758690000000  0.4971120000000  0.5039550000000 1.0
C      1  0.5655740000000  0.4329610000000  0.5269680000000 1.0
C      1  0.5608700000000  0.5335060000000  0.5776980000000 1.0
C      1  0.5122700000000  0.5177310000000  0.4780970000000 1.0
C      1  0.5136420000000  0.5140730000000  0.5631490000000 1.0
C      1  0.4947970000000  0.5242620000000  0.4513590000000 1.0
C      1  0.4296520000000  0.5413670000000  0.5600910000000 1.0
C      1  0.5599640000000  0.4932460000000  0.4805610000000 1.0
C      1  0.3949830000000  0.5394580000000  0.5125820000000 1.0
C      1  0.4062110000000  0.4539490000000  0.4688360000000 1.0
C      1  0.5865640000000  0.4191840000000  0.5150620000000 1.0
C      1  0.4039280000000  0.5130780000000  0.5150150000000 1.0
C      1  0.4875180000000  0.5787520000000  0.5269800000000 1.0
C      1  0.4683690000000  0.3987290000000  0.5393940000000 1.0
C      1  0.4395820000000  0.4291830000000  0.4931860000000 1.0
C      1  0.5957440000000  0.4570200000000  0.4509490000000 1.0
C      1  0.4829290000000  0.5530840000000  0.4573260000000 1.0
C      1  0.5402570000000  0.4014170000000  0.4933110000000 1.0
C      1  0.4948260000000  0.5041040000000  0.5251990000000 1.0
C      1  0.5562590000000  0.5568000000000  0.5594830000000 1.0
C      1  0.4585930000000  0.5939140000000  0.4529570000000 1.0
C      1  0.4275170000000  0.5510870000000  0.4859760000000 1.0
C      1  0.4474600000000  0.4778610000000  0.5937980000000 1.0
C      1  0.4759760000000  0.5989820000000  0.5442390000000 1.0
C      1  0.4646250000000  0.4460020000000  0.5316310000000 1.0
C      1  0.5241510000000  0.5433480000000  0.4867880000000 1.0
C      1  0.5288100000000  0.4314760000000  0.5855310000000 1.0
C      1  0.4485090000000  0.5854880000000  0.5477870000000 1.0
C      1  0.5387640000000  0.4986620000000  0.6034010000000 1.0
C      1  0.4816330000000  0.5548200000000  0.5443780000000 1.0
C      1  0.5554470000000  0.4639570000000  0.4863310000000 1.0
C      1  0.5200650000000  0.4973950000000  0.5111690000000 1.0
C      1  0.5135810000000  0.5815030000000  0.5752220000000 1.0
C      1  0.4653450000000  0.4691680000000  0.5494190000000 1.0
C      1  0.4907200000000  0.3999870000000  0.5590010000000 1.0
C      1  0.4713680000000  0.4039880000000  0.4661880000000 1.0
C      1  0.5677380000000  0.5585300000000  0.5107780000000 1.0
C      1  0.4465620000000  0.4872720000000  0.4558480000000 1.0
C      1  0.4582200000000  0.4512590000000  0.4509920000000 1.0
C      1  0.4353660000000  0.5580660000000  0.4336530000000 1.0
C      1  0.5266810000000  0.5641870000000  0.5529480000000 1.0
C      1  0.4666560000000  0.5930800000000  0.4823900000000 1.0
C      1  0.6064750000000  0.5122290000000  0.5256010000000 1.0
C      1  0.5832560000000  0.5037810000000  0.4607120000000 1.0
C      1  0.5047490000000  0.3905130000000  0.5038750000000 1.0
C      1  0.5177830000000  0.4050640000000  0.5473970000000 1.0
C      1  0.5638270000000  0.5786500000000  0.4684450000000 1.0
C      1  0.4475990000000  0.4242810000000  0.5419150000000 1.0
C      1  0.5966160000000  0.4502100000000  0.4795590000000 1.0
C      1  0.4749050000000  0.4934840000000  0.4449130000000 1.0
C      1  0.5182750000000  0.5774270000000  0.5238500000000 1.0
C      1  0.4265710000000  0.4922570000000  0.4323450000000 1.0
C      1  0.4564400000000  0.5416540000000  0.5324100000000 1.0
C      1  0.5201300000000  0.5904600000000  0.4710440000000 1.0
C      1  0.4384150000000  0.4904490000000  0.3858740000000 1.0
C      1  0.5626450000000  0.4869670000000  0.5589720000000 1.0
C      1  0.4264660000000  0.4261210000000  0.5201930000000 1.0
C      1  0.5237550000000  0.4670450000000  0.5210200000000 1.0
C      1  0.4636320000000  0.5187590000000  0.4891870000000 1.0
C      1  0.5709660000000  0.4818680000000  0.5287470000000 1.0
C      1  0.4616470000000  0.5137670000000  0.5424330000000 1.0
C      1  0.4567370000000  0.5446880000000  0.5001140000000 1.0
C      1  0.4582450000000  0.4571380000000  0.5767210000000 1.0
C      1  0.5154410000000  0.4646660000000  0.5518310000000 1.0
C      1  0.5255250000000  0.5511340000000  0.4118260000000 1.0
C      1  0.5666470000000  0.5045730000000  0.5087040000000 1.0
C      1  0.5423970000000  0.5151650000000  0.5191010000000 1.0
C      1  0.4990030000000  0.5650520000000  0.5945140000000 1.0
C      1  0.4235490000000  0.5793890000000  0.4781340000000 1.0
C      1  0.5141840000000  0.3992200000000  0.4454390000000 1.0
C      1  0.4925710000000  0.5100360000000  0.5836290000000 1.0
C      1  0.5387860000000  0.5771280000000  0.4532910000000 1.0
C      1  0.5874670000000  0.5209530000000  0.5720660000000 1.0
C      1  0.5021060000000  0.4517990000000  0.5032000000000 1.0
C      1  0.4529430000000  0.4036250000000  0.4446040000000 1.0
C      1  0.3900000000000  0.5413910000000  0.4840360000000 1.0
C      1  0.4432290000000  0.4883180000000  0.5383710000000 1.0
C      1  0.5378920000000  0.4146730000000  0.5655040000000 1.0
C      1  0.5903860000000  0.5289970000000  0.5443680000000 1.0
C      1  0.6045220000000  0.4850830000000  0.4496350000000 1.0
C      1  0.4010060000000  0.4808810000000  0.4749770000000 1.0
C      1  0.4720330000000  0.5721070000000  0.4362820000000 1.0
C      1  0.4317620000000  0.5836220000000  0.4499970000000 1.0
C      1  0.4338840000000  0.5782460000000  0.5228490000000 1.0
C      1  0.4808200000000  0.4064160000000  0.5127200000000 1.0
C      1  0.4836700000000  0.4155930000000  0.5813250000000 1.0
C      1  0.4343040000000  0.5206000000000  0.4199800000000 1.0
C      1  0.4785570000000  0.5645920000000  0.4857550000000 1.0
C      1  0.5212630000000  0.5209370000000  0.6189150000000 1.0
C      1  0.4882170000000  0.6150330000000  0.4888270000000 1.0
C      1  0.5604990000000  0.5869010000000  0.4989230000000 1.0
C      1  0.4135780000000  0.4513910000000  0.5268570000000 1.0
C      1  0.5860970000000  0.4925790000000  0.5744530000000 1.0
C      1  0.5091390000000  0.5680600000000  0.4900730000000 1.0
C      1  0.4723480000000  0.4783670000000  0.4180180000000 1.0
C      1  0.5214690000000  0.4757180000000  0.4542340000000 1.0
C      1  0.4394590000000  0.4283190000000  0.4469380000000 1.0
C      1  0.4746750000000  0.5193530000000  0.3915530000000 1.0
C      1  0.5896800000000  0.5471870000000  0.4929620000000 1.0
C      1  0.4964720000000  0.5892400000000  0.4301470000000 1.0
C      1  0.4128480000000  0.4913540000000  0.4997100000000 1.0
C      1  0.4399080000000  0.5934040000000  0.4981240000000 1.0
C      1  0.5273260000000  0.3955100000000  0.5206780000000 1.0
C      1  0.5711870000000  0.4481970000000  0.4336930000000 1.0
C      1  0.5352230000000  0.4515650000000  0.4680710000000 1.0
C      1  0.4833190000000  0.4430060000000  0.5865620000000 1.0
C      1  0.5283730000000  0.4190920000000  0.4324160000000 1.0
C      1  0.5413490000000  0.5423100000000  0.5096790000000 1.0
C      1  0.5821140000000  0.5314870000000  0.4477050000000 1.0
C      1  0.4364550000000  0.4377770000000  0.5675840000000 1.0
C      1  0.4448440000000  0.5058290000000  0.5904920000000 1.0
C      1  0.4874430000000  0.4343360000000  0.5203180000000 1.0
C      1  0.4518210000000  0.4589860000000  0.4885710000000 1.0
C      1  0.4219910000000  0.5158030000000  0.5740540000000 1.0
C      1  0.4024460000000  0.4998210000000  0.4527330000000 1.0
C      1  0.5234510000000  0.5760410000000  0.4275130000000 1.0
C      1  0.5170460000000  0.6188850000000  0.4963760000000 1.0
C      1  0.4424100000000  0.4766580000000  0.4103130000000 1.0
C      1  0.5500820000000  0.4317190000000  0.4503920000000 1.0
END
