TITL C-950522-5749-286 -1.52545235623758e-06 125000 -573.497572553074 0 0 92 (C1) n - 1
REM
REM in /home/bkarasulu/work/CARBON/AIRSS/Generating-Clusters/EDIP-Nigel-Params/with-SteepDescent/Only-C1/SD-CG/HFTN-CG
REM
REM
REM
REM
REM
REM ./C.cell (11c1c37f851c82e70ff6c80c92926a4b)
REM
REM compiler GCC version 9.2.1 20190827 (Red Hat 9.2.1-1)
REM options -cpp -mtune=generic -march=x86-64 -g -O0 -fpre-include=/usr/include/finclude/math-vector-fortran.h
REM seed -2060032831 498027363 1592174692 -461842950 -1411408248 -1325281063 -1439869561 1410466290 264874639 -261992563 2014249025 59742528 -1854958088 1511889802 935328825 312872489 -1061860184 -1397676434 -1309492353 1563949811 1347832469 -2003795478 -1766753652 -1819426493 -107714759 103269680 1088675305 1339935778 -2073858719 2032165468 -1241427308 -1918898503 -938046421
REM
CELL 1.54180   50.00000   50.00000   50.00000   90.00000   90.00000   90.00000
LATT -1
SFAC C  
C      1  0.5848860000000  0.5172660000000  0.4694940000000 1.0
C      1  0.4675020000000  0.4508160000000  0.5144490000000 1.0
C      1  0.5138560000000  0.5719300000000  0.4579750000000 1.0
C      1  0.4597530000000  0.4975330000000  0.4934180000000 1.0
C      1  0.5625910000000  0.5534950000000  0.4939670000000 1.0
C      1  0.5809180000000  0.5089890000000  0.5143550000000 1.0
C      1  0.4797070000000  0.4146200000000  0.4887790000000 1.0
C      1  0.4363370000000  0.5081560000000  0.4518720000000 1.0
C      1  0.5333290000000  0.5169440000000  0.4352250000000 1.0
C      1  0.4318470000000  0.4742400000000  0.5268510000000 1.0
C      1  0.5425770000000  0.5040800000000  0.5798240000000 1.0
C      1  0.5306690000000  0.4675730000000  0.5104940000000 1.0
C      1  0.5019640000000  0.4478040000000  0.4374250000000 1.0
C      1  0.4779390000000  0.4490920000000  0.5705340000000 1.0
C      1  0.5082550000000  0.4844740000000  0.4616450000000 1.0
C      1  0.4581520000000  0.4780010000000  0.5137550000000 1.0
C      1  0.4439130000000  0.5579400000000  0.4346660000000 1.0
C      1  0.4296710000000  0.5514620000000  0.4782610000000 1.0
C      1  0.5140690000000  0.4749270000000  0.4315820000000 1.0
C      1  0.5062170000000  0.5852260000000  0.5331220000000 1.0
C      1  0.4316950000000  0.5201750000000  0.5368300000000 1.0
C      1  0.5114900000000  0.5578970000000  0.5593380000000 1.0
C      1  0.5455390000000  0.4413450000000  0.4635320000000 1.0
C      1  0.5393650000000  0.4903290000000  0.5287820000000 1.0
C      1  0.5507360000000  0.5389140000000  0.4454530000000 1.0
C      1  0.4993410000000  0.4402640000000  0.5493690000000 1.0
C      1  0.5432410000000  0.4865090000000  0.4286050000000 1.0
C      1  0.5142830000000  0.5762030000000  0.4866530000000 1.0
C      1  0.5615780000000  0.4715850000000  0.4459940000000 1.0
C      1  0.4148960000000  0.5162130000000  0.5130370000000 1.0
C      1  0.5522290000000  0.4271160000000  0.4897300000000 1.0
C      1  0.4443680000000  0.4419720000000  0.5347650000000 1.0
C      1  0.4776480000000  0.5385070000000  0.4798980000000 1.0
C      1  0.5370950000000  0.4665810000000  0.5707660000000 1.0
C      1  0.4744910000000  0.4853090000000  0.4697620000000 1.0
C      1  0.4742740000000  0.5216100000000  0.5050730000000 1.0
C      1  0.4737970000000  0.5256500000000  0.5579840000000 1.0
C      1  0.5224290000000  0.4852420000000  0.5525590000000 1.0
C      1  0.4989180000000  0.5100450000000  0.5177380000000 1.0
C      1  0.4374190000000  0.4939230000000  0.5492090000000 1.0
C      1  0.4853470000000  0.5268250000000  0.4522510000000 1.0
C      1  0.5594050000000  0.5313340000000  0.4733470000000 1.0
C      1  0.4143650000000  0.5384150000000  0.4968770000000 1.0
C      1  0.4654370000000  0.5763720000000  0.5051190000000 1.0
C      1  0.4765270000000  0.4783430000000  0.5796200000000 1.0
C      1  0.4581760000000  0.4597420000000  0.4645280000000 1.0
C      1  0.4800990000000  0.4055660000000  0.5155140000000 1.0
C      1  0.4939820000000  0.4878490000000  0.5377470000000 1.0
C      1  0.4652090000000  0.4400260000000  0.4868850000000 1.0
C      1  0.5365620000000  0.5135180000000  0.4874960000000 1.0
C      1  0.4709920000000  0.4828180000000  0.4237680000000 1.0
C      1  0.5017990000000  0.5312540000000  0.5639370000000 1.0
C      1  0.4620300000000  0.5752730000000  0.4528590000000 1.0
C      1  0.5159550000000  0.4379910000000  0.4609250000000 1.0
C      1  0.5143580000000  0.5140140000000  0.5843290000000 1.0
C      1  0.5501360000000  0.5351100000000  0.5376480000000 1.0
C      1  0.4172920000000  0.4887470000000  0.5014050000000 1.0
C      1  0.4299590000000  0.4849180000000  0.4720830000000 1.0
C      1  0.4896730000000  0.5721070000000  0.4408060000000 1.0
C      1  0.4587710000000  0.5613580000000  0.4797390000000 1.0
C      1  0.5731350000000  0.5394170000000  0.5180110000000 1.0
C      1  0.5255080000000  0.4072440000000  0.5267330000000 1.0
C      1  0.5610550000000  0.5153530000000  0.5587740000000 1.0
C      1  0.4939470000000  0.5839330000000  0.5067470000000 1.0
C      1  0.5283940000000  0.5168190000000  0.5165700000000 1.0
C      1  0.4656580000000  0.5027620000000  0.4463130000000 1.0
C      1  0.5385900000000  0.5700230000000  0.5015820000000 1.0
C      1  0.4279240000000  0.5386100000000  0.4519670000000 1.0
C      1  0.5275550000000  0.4418710000000  0.5597930000000 1.0
C      1  0.5373790000000  0.5633280000000  0.4456700000000 1.0
C      1  0.5615860000000  0.4747270000000  0.4752070000000 1.0
C      1  0.5388730000000  0.5602650000000  0.5498210000000 1.0
C      1  0.4533070000000  0.4399190000000  0.5609450000000 1.0
C      1  0.4856730000000  0.5456990000000  0.4280080000000 1.0
C      1  0.5338540000000  0.4827770000000  0.4834330000000 1.0
C      1  0.4962140000000  0.4588570000000  0.5255480000000 1.0
C      1  0.5126380000000  0.5138850000000  0.4566370000000 1.0
C      1  0.4717480000000  0.4551620000000  0.4367860000000 1.0
C      1  0.5070350000000  0.4159870000000  0.4777380000000 1.0
C      1  0.4985750000000  0.4915070000000  0.5912840000000 1.0
C      1  0.4975770000000  0.4119520000000  0.5365920000000 1.0
C      1  0.5295260000000  0.4082540000000  0.4962180000000 1.0
C      1  0.5349120000000  0.5801640000000  0.5290580000000 1.0
C      1  0.4585960000000  0.5345770000000  0.5319890000000 1.0
C      1  0.4560930000000  0.5633380000000  0.5283270000000 1.0
C      1  0.5684810000000  0.4945010000000  0.5373730000000 1.0
C      1  0.5508160000000  0.4449950000000  0.5140120000000 1.0
C      1  0.4603840000000  0.5453030000000  0.4150070000000 1.0
C      1  0.4961320000000  0.4878070000000  0.4123660000000 1.0
C      1  0.5819430000000  0.4956280000000  0.4867160000000 1.0
C      1  0.4679230000000  0.4956770000000  0.5566140000000 1.0
C      1  0.5439130000000  0.4281260000000  0.5385020000000 1.0
END
