TITL C-950536-5891-381 -2.74730745809825e-06 125000 -438.343513644107 0 0 72 (C1) n - 1
REM
REM in /home/bkarasulu/work/CARBON/AIRSS/Generating-Clusters/EDIP-Nigel-Params/with-SteepDescent/Only-C1/SD-CG/HFTN-CG
REM
REM
REM
REM
REM
REM ./C.cell (11c1c37f851c82e70ff6c80c92926a4b)
REM
REM compiler GCC version 9.2.1 20190827 (Red Hat 9.2.1-1)
REM options -cpp -mtune=generic -march=x86-64 -g -O0 -fpre-include=/usr/include/finclude/math-vector-fortran.h
REM seed 1020393229 801156032 20464018 1001181344 -1294583361 1548676967 -1303070557 -1100740992 834290410 -18670601 -734150053 -1591909900 30361444 -2135763145 -1215460240 -373482468 1929523376 1462002727 -1846307964 -118082773 -4264527 537830437 -378559670 -465913723 -276841156 1721625625 463289732 -1656327891 1046592959 348511700 -827323895 2032503558 -1097613394
REM
CELL 1.54180   50.00000   50.00000   50.00000   90.00000   90.00000   90.00000
LATT -1
SFAC C  
C      1  0.4211230000000  0.4918210000000  0.4838040000000 1.0
C      1  0.4246240000000  0.4888660000000  0.5337970000000 1.0
C      1  0.5760630000000  0.5219010000000  0.4997060000000 1.0
C      1  0.5058920000000  0.4747050000000  0.5030240000000 1.0
C      1  0.4547580000000  0.5612080000000  0.5190720000000 1.0
C      1  0.5737690000000  0.5010440000000  0.5194790000000 1.0
C      1  0.4992720000000  0.4951420000000  0.5268520000000 1.0
C      1  0.5666000000000  0.5083340000000  0.4445430000000 1.0
C      1  0.4291180000000  0.4635610000000  0.4916380000000 1.0
C      1  0.4559160000000  0.4527620000000  0.4325950000000 1.0
C      1  0.5311130000000  0.4190150000000  0.5147190000000 1.0
C      1  0.4903630000000  0.5685240000000  0.5505540000000 1.0
C      1  0.5513510000000  0.4384190000000  0.5230760000000 1.0
C      1  0.5006920000000  0.5655080000000  0.5021540000000 1.0
C      1  0.5536880000000  0.4578010000000  0.5031490000000 1.0
C      1  0.5110310000000  0.5563220000000  0.4533860000000 1.0
C      1  0.4677090000000  0.5338980000000  0.5418050000000 1.0
C      1  0.5231600000000  0.5323470000000  0.5538530000000 1.0
C      1  0.5165750000000  0.4506870000000  0.5479310000000 1.0
C      1  0.5091630000000  0.4290750000000  0.4843630000000 1.0
C      1  0.4713660000000  0.4520150000000  0.4577130000000 1.0
C      1  0.5495380000000  0.5598070000000  0.4938340000000 1.0
C      1  0.5096420000000  0.4905880000000  0.5755730000000 1.0
C      1  0.4809000000000  0.5301100000000  0.5833490000000 1.0
C      1  0.4931090000000  0.5554900000000  0.4753260000000 1.0
C      1  0.4920470000000  0.5056390000000  0.5911720000000 1.0
C      1  0.4892200000000  0.4899800000000  0.4838170000000 1.0
C      1  0.5156850000000  0.5307270000000  0.5247570000000 1.0
C      1  0.5536930000000  0.4933980000000  0.5517690000000 1.0
C      1  0.5217200000000  0.5054520000000  0.4574300000000 1.0
C      1  0.4815380000000  0.5710190000000  0.5234000000000 1.0
C      1  0.5343540000000  0.4742920000000  0.4916080000000 1.0
C      1  0.5619500000000  0.4825860000000  0.4517250000000 1.0
C      1  0.4359120000000  0.5050990000000  0.4620370000000 1.0
C      1  0.5752120000000  0.5662850000000  0.5029280000000 1.0
C      1  0.4565730000000  0.5267350000000  0.5677690000000 1.0
C      1  0.5276540000000  0.5650770000000  0.5111060000000 1.0
C      1  0.4687150000000  0.5087970000000  0.5255200000000 1.0
C      1  0.4674680000000  0.4417180000000  0.5070210000000 1.0
C      1  0.4490410000000  0.5154830000000  0.5006020000000 1.0
C      1  0.4209200000000  0.5073680000000  0.5106130000000 1.0
C      1  0.4827400000000  0.4785100000000  0.4577600000000 1.0
C      1  0.5191800000000  0.4580880000000  0.4442620000000 1.0
C      1  0.4740290000000  0.5129920000000  0.4323280000000 1.0
C      1  0.5351820000000  0.4782520000000  0.4616490000000 1.0
C      1  0.4481200000000  0.5451410000000  0.4955010000000 1.0
C      1  0.5272760000000  0.5169050000000  0.5013550000000 1.0
C      1  0.4537730000000  0.4492720000000  0.4828540000000 1.0
C      1  0.5304860000000  0.5440790000000  0.4373170000000 1.0
C      1  0.4655650000000  0.5451870000000  0.4718170000000 1.0
C      1  0.4986040000000  0.4754730000000  0.5515530000000 1.0
C      1  0.5008240000000  0.5475390000000  0.5676690000000 1.0
C      1  0.5079810000000  0.4311210000000  0.5286830000000 1.0
C      1  0.4540620000000  0.4508620000000  0.5318280000000 1.0
C      1  0.5000590000000  0.4380200000000  0.4578790000000 1.0
C      1  0.5787900000000  0.5039660000000  0.5465030000000 1.0
C      1  0.4624570000000  0.4886780000000  0.4201280000000 1.0
C      1  0.5449280000000  0.4498040000000  0.5485300000000 1.0
C      1  0.4514820000000  0.4944580000000  0.5474040000000 1.0
C      1  0.5063660000000  0.5135060000000  0.4808930000000 1.0
C      1  0.5454980000000  0.5245910000000  0.4558350000000 1.0
C      1  0.4678690000000  0.4693180000000  0.5523420000000 1.0
C      1  0.5910950000000  0.5445810000000  0.5070590000000 1.0
C      1  0.5500700000000  0.5308720000000  0.4873310000000 1.0
C      1  0.5044490000000  0.4768180000000  0.4265320000000 1.0
C      1  0.5328700000000  0.5070200000000  0.5667410000000 1.0
C      1  0.4393970000000  0.4744820000000  0.4268820000000 1.0
C      1  0.4601030000000  0.5197180000000  0.4575630000000 1.0
C      1  0.5195180000000  0.5281780000000  0.4163390000000 1.0
C      1  0.5049070000000  0.5072790000000  0.4313240000000 1.0
C      1  0.4962070000000  0.4448920000000  0.5057540000000 1.0
C      1  0.4278770000000  0.4617910000000  0.5218200000000 1.0
END
