TITL C-951333-8791-177 -5.48465789255491e-06 125000 -637.219759367207 0 0 103 (C1) n - 1
REM
REM in /home/bkarasulu/work/CARBON/AIRSS/Generating-Clusters/EDIP-Nigel-Params/with-SteepDescent/Only-C1/SD-CG/HFTN-CG
REM
REM
REM
REM
REM
REM ./C.cell (11c1c37f851c82e70ff6c80c92926a4b)
REM
REM compiler GCC version 9.2.1 20190827 (Red Hat 9.2.1-1)
REM options -cpp -mtune=generic -march=x86-64 -g -O0 -fpre-include=/usr/include/finclude/math-vector-fortran.h
REM seed -719277509 -2128822661 1049970740 -1875749828 859267459 1124732112 -1901097845 161919356 1572823836 824592600 -1765839307 -885811524 639572535 1439978391 1202807614 1424692583 -63925740 -2035546402 -1502288813 1049208818 1796481447 441150402 1028070244 1443102755 -1411879305 1494141881 -1742275131 659809026 1250622753 -1776814740 52088612 1636867044 -1516658004
REM
CELL 1.54180   50.00000   50.00000   50.00000   90.00000   90.00000   90.00000
LATT -1
SFAC C  
C      1  0.5674890000000  0.4461100000000  0.4749470000000 1.0
C      1  0.4991230000000  0.4864410000000  0.5133410000000 1.0
C      1  0.5001650000000  0.5715420000000  0.4511130000000 1.0
C      1  0.5411510000000  0.4734510000000  0.5804160000000 1.0
C      1  0.5293800000000  0.4187790000000  0.4811540000000 1.0
C      1  0.4375920000000  0.4578720000000  0.5380440000000 1.0
C      1  0.4235310000000  0.4813830000000  0.5275900000000 1.0
C      1  0.4916260000000  0.4794420000000  0.4132680000000 1.0
C      1  0.4493820000000  0.5591970000000  0.4397720000000 1.0
C      1  0.4252770000000  0.5471490000000  0.5041870000000 1.0
C      1  0.5134040000000  0.4751290000000  0.4703790000000 1.0
C      1  0.4570470000000  0.5062820000000  0.5146900000000 1.0
C      1  0.5221980000000  0.5083260000000  0.5933290000000 1.0
C      1  0.5568130000000  0.5178380000000  0.5641250000000 1.0
C      1  0.5438780000000  0.4354960000000  0.4629900000000 1.0
C      1  0.4782890000000  0.5095410000000  0.4699480000000 1.0
C      1  0.5390690000000  0.5064350000000  0.5318930000000 1.0
C      1  0.5817320000000  0.5152420000000  0.4959830000000 1.0
C      1  0.5046740000000  0.5386920000000  0.5041400000000 1.0
C      1  0.5138200000000  0.4353360000000  0.5430580000000 1.0
C      1  0.4390760000000  0.4509690000000  0.4907400000000 1.0
C      1  0.5434490000000  0.5113600000000  0.4250460000000 1.0
C      1  0.5383660000000  0.5291550000000  0.5832250000000 1.0
C      1  0.4942860000000  0.5165070000000  0.5521390000000 1.0
C      1  0.5520440000000  0.4836560000000  0.4197580000000 1.0
C      1  0.4257740000000  0.5085400000000  0.5371620000000 1.0
C      1  0.5078150000000  0.5751400000000  0.5312940000000 1.0
C      1  0.5363990000000  0.4190050000000  0.5085300000000 1.0
C      1  0.5220420000000  0.5244660000000  0.4832160000000 1.0
C      1  0.4567810000000  0.4611990000000  0.5596060000000 1.0
C      1  0.5728130000000  0.5315410000000  0.5443410000000 1.0
C      1  0.4428360000000  0.4892470000000  0.4276790000000 1.0
C      1  0.5772600000000  0.5093910000000  0.5242570000000 1.0
C      1  0.5003970000000  0.4236640000000  0.4791210000000 1.0
C      1  0.4104770000000  0.4595730000000  0.4861720000000 1.0
C      1  0.4331300000000  0.4917470000000  0.4550110000000 1.0
C      1  0.4920250000000  0.5539950000000  0.5728890000000 1.0
C      1  0.4691280000000  0.5277050000000  0.4941900000000 1.0
C      1  0.5708930000000  0.5436770000000  0.4581400000000 1.0
C      1  0.5760230000000  0.4770930000000  0.4319720000000 1.0
C      1  0.4552910000000  0.4774270000000  0.4967080000000 1.0
C      1  0.5043730000000  0.4994010000000  0.4836990000000 1.0
C      1  0.5290190000000  0.5558820000000  0.5433480000000 1.0
C      1  0.5733290000000  0.5408050000000  0.4861290000000 1.0
C      1  0.5129590000000  0.4127830000000  0.5245240000000 1.0
C      1  0.4700050000000  0.4452190000000  0.4446100000000 1.0
C      1  0.4584560000000  0.4872740000000  0.4692120000000 1.0
C      1  0.4821370000000  0.4629390000000  0.5045910000000 1.0
C      1  0.5044960000000  0.5447090000000  0.4402580000000 1.0
C      1  0.5642380000000  0.5612310000000  0.5055430000000 1.0
C      1  0.4560080000000  0.5123460000000  0.5741520000000 1.0
C      1  0.4536040000000  0.5659200000000  0.4668680000000 1.0
C      1  0.4088500000000  0.4780110000000  0.4633250000000 1.0
C      1  0.4408250000000  0.5497050000000  0.5289670000000 1.0
C      1  0.4830970000000  0.5242210000000  0.4382920000000 1.0
C      1  0.4055150000000  0.5269500000000  0.5024310000000 1.0
C      1  0.5588710000000  0.5553980000000  0.5339760000000 1.0
C      1  0.4764960000000  0.5311700000000  0.5835490000000 1.0
C      1  0.4572900000000  0.4841800000000  0.5757900000000 1.0
C      1  0.4313890000000  0.5219000000000  0.5621120000000 1.0
C      1  0.5172600000000  0.5292050000000  0.5328060000000 1.0
C      1  0.5229990000000  0.5525800000000  0.5725090000000 1.0
C      1  0.5762690000000  0.4662770000000  0.4927340000000 1.0
C      1  0.5251840000000  0.4397250000000  0.4386500000000 1.0
C      1  0.5261320000000  0.4659050000000  0.4226120000000 1.0
C      1  0.4452860000000  0.4375340000000  0.5177040000000 1.0
C      1  0.5289320000000  0.5813600000000  0.4874100000000 1.0
C      1  0.4517040000000  0.4397440000000  0.4663160000000 1.0
C      1  0.4807460000000  0.5006250000000  0.5311390000000 1.0
C      1  0.5296700000000  0.5389650000000  0.4569270000000 1.0
C      1  0.4578090000000  0.5710830000000  0.5376230000000 1.0
C      1  0.4585730000000  0.5359390000000  0.4271420000000 1.0
C      1  0.4756680000000  0.4375660000000  0.5219690000000 1.0
C      1  0.4452600000000  0.5431710000000  0.4831460000000 1.0
C      1  0.5870340000000  0.4901140000000  0.4526670000000 1.0
C      1  0.5351250000000  0.4516530000000  0.5282120000000 1.0
C      1  0.5807500000000  0.4652840000000  0.5221160000000 1.0
C      1  0.5004090000000  0.4481770000000  0.5766080000000 1.0
C      1  0.5936060000000  0.4875210000000  0.5337100000000 1.0
C      1  0.5621160000000  0.4524110000000  0.5407660000000 1.0
C      1  0.5272050000000  0.5772350000000  0.4598260000000 1.0
C      1  0.4307020000000  0.5500920000000  0.5560030000000 1.0
C      1  0.4844660000000  0.5654680000000  0.5463630000000 1.0
C      1  0.4892140000000  0.4147130000000  0.5071950000000 1.0
C      1  0.4033110000000  0.4784460000000  0.5071240000000 1.0
C      1  0.4952120000000  0.4540720000000  0.4800040000000 1.0
C      1  0.5608930000000  0.5324090000000  0.4344660000000 1.0
C      1  0.4776460000000  0.4409270000000  0.5603110000000 1.0
C      1  0.5154390000000  0.4714180000000  0.5688660000000 1.0
C      1  0.5036250000000  0.4970810000000  0.5751460000000 1.0
C      1  0.4961660000000  0.4290110000000  0.4439200000000 1.0
C      1  0.3982130000000  0.5021920000000  0.4915430000000 1.0
C      1  0.5622270000000  0.4620830000000  0.5671480000000 1.0
C      1  0.4947780000000  0.5089950000000  0.4147190000000 1.0
C      1  0.5842190000000  0.4909540000000  0.4801450000000 1.0
C      1  0.5209610000000  0.5174230000000  0.4096260000000 1.0
C      1  0.5052000000000  0.5698120000000  0.5016750000000 1.0
C      1  0.5152030000000  0.4827920000000  0.4437610000000 1.0
C      1  0.5541740000000  0.5859090000000  0.4977210000000 1.0
C      1  0.4676690000000  0.4711520000000  0.4289300000000 1.0
C      1  0.4436620000000  0.5150320000000  0.4158240000000 1.0
C      1  0.5249390000000  0.4804980000000  0.5265070000000 1.0
C      1  0.4814430000000  0.5726660000000  0.4734690000000 1.0
END
