TITL C-950523-3027-238 -5.70109670909425e-08 125000 -1028.03663565553 0 0 165 (C1) n - 1
REM
REM in /home/bkarasulu/work/CARBON/AIRSS/Generating-Clusters/EDIP-Nigel-Params/with-SteepDescent/Only-C1/SD-CG/HFTN-CG
REM
REM
REM
REM
REM
REM ./C.cell (11c1c37f851c82e70ff6c80c92926a4b)
REM
REM compiler GCC version 9.2.1 20190827 (Red Hat 9.2.1-1)
REM options -cpp -mtune=generic -march=x86-64 -g -O0 -fpre-include=/usr/include/finclude/math-vector-fortran.h
REM seed 2147397456 -51698137 -361903060 1076532887 -891332717 4432133 -1763459445 532689039 109943252 503347748 868893521 -1399346225 838594352 -1743126323 2065725551 -448204848 -1563626152 538157841 -1379668233 -505454661 -2094296054 251273575 77397850 -603603246 377161747 -186003238 698061626 2073315637 -810210769 1928452754 -1852538023 -1761983670 -1061901926
REM
CELL 1.54180   50.00000   50.00000   50.00000   90.00000   90.00000   90.00000
LATT -1
SFAC C  
C      1  0.5165330000000  0.3986460000000  0.5562770000000 1.0
C      1  0.4877640000000  0.5496790000000  0.4010190000000 1.0
C      1  0.4846750000000  0.5843460000000  0.4611870000000 1.0
C      1  0.5190760000000  0.4925080000000  0.4363210000000 1.0
C      1  0.4027040000000  0.4712720000000  0.5241300000000 1.0
C      1  0.4857430000000  0.4325420000000  0.4162410000000 1.0
C      1  0.5306570000000  0.5482270000000  0.5397930000000 1.0
C      1  0.4822380000000  0.4352680000000  0.5502800000000 1.0
C      1  0.5521440000000  0.5830610000000  0.4494880000000 1.0
C      1  0.5835460000000  0.4634330000000  0.5468710000000 1.0
C      1  0.5490350000000  0.5813130000000  0.4216420000000 1.0
C      1  0.6054070000000  0.5440250000000  0.5150990000000 1.0
C      1  0.6091390000000  0.5187960000000  0.5030430000000 1.0
C      1  0.4976240000000  0.6065250000000  0.4778120000000 1.0
C      1  0.5482420000000  0.5633310000000  0.5146270000000 1.0
C      1  0.4647810000000  0.5650650000000  0.5244710000000 1.0
C      1  0.3981380000000  0.5215000000000  0.4973600000000 1.0
C      1  0.4316640000000  0.5457040000000  0.5464550000000 1.0
C      1  0.4056540000000  0.5301340000000  0.5540350000000 1.0
C      1  0.4822130000000  0.5294190000000  0.6033490000000 1.0
C      1  0.4213200000000  0.5051070000000  0.5594320000000 1.0
C      1  0.4445810000000  0.4114720000000  0.5158190000000 1.0
C      1  0.4936600000000  0.4642720000000  0.5091690000000 1.0
C      1  0.4645890000000  0.4108450000000  0.4575690000000 1.0
C      1  0.5100760000000  0.5713130000000  0.5475590000000 1.0
C      1  0.4076910000000  0.5119620000000  0.4290950000000 1.0
C      1  0.5714230000000  0.5937700000000  0.5125160000000 1.0
C      1  0.4962380000000  0.4955150000000  0.6128400000000 1.0
C      1  0.5575620000000  0.4721260000000  0.5861150000000 1.0
C      1  0.3813150000000  0.5394530000000  0.5102550000000 1.0
C      1  0.4145350000000  0.4845370000000  0.4364700000000 1.0
C      1  0.5752160000000  0.5108650000000  0.5589710000000 1.0
C      1  0.5399460000000  0.4988240000000  0.4579910000000 1.0
C      1  0.5865430000000  0.4385420000000  0.4766080000000 1.0
C      1  0.4687570000000  0.4926950000000  0.6051750000000 1.0
C      1  0.4423540000000  0.4943340000000  0.4782620000000 1.0
C      1  0.4757580000000  0.6080830000000  0.4980120000000 1.0
C      1  0.5416810000000  0.5354740000000  0.4045590000000 1.0
C      1  0.4885770000000  0.6124010000000  0.5232320000000 1.0
C      1  0.4246790000000  0.4879820000000  0.5353240000000 1.0
C      1  0.5640920000000  0.4321750000000  0.4567910000000 1.0
C      1  0.6027430000000  0.4951780000000  0.5185120000000 1.0
C      1  0.5880340000000  0.4889580000000  0.4653320000000 1.0
C      1  0.4668030000000  0.5355330000000  0.5225210000000 1.0
C      1  0.5426720000000  0.4103120000000  0.4653860000000 1.0
C      1  0.5405200000000  0.4952330000000  0.5085430000000 1.0
C      1  0.5677510000000  0.5364700000000  0.5450860000000 1.0
C      1  0.4563970000000  0.5374540000000  0.5903340000000 1.0
C      1  0.5781060000000  0.4342660000000  0.5045200000000 1.0
C      1  0.4090820000000  0.4569890000000  0.4756530000000 1.0
C      1  0.5475560000000  0.4387050000000  0.5047600000000 1.0
C      1  0.5378180000000  0.4499020000000  0.5328640000000 1.0
C      1  0.5108130000000  0.4670380000000  0.5330330000000 1.0
C      1  0.5520320000000  0.5343640000000  0.4601030000000 1.0
C      1  0.5773360000000  0.5384020000000  0.4785730000000 1.0
C      1  0.4556310000000  0.5832690000000  0.4220270000000 1.0
C      1  0.4550290000000  0.4017940000000  0.5412610000000 1.0
C      1  0.5323310000000  0.3906910000000  0.5124320000000 1.0
C      1  0.4170490000000  0.4520360000000  0.5044610000000 1.0
C      1  0.5669160000000  0.5250770000000  0.4145370000000 1.0
C      1  0.4926050000000  0.5745380000000  0.5229740000000 1.0
C      1  0.4922530000000  0.4621800000000  0.5569380000000 1.0
C      1  0.5352150000000  0.5638220000000  0.4046470000000 1.0
C      1  0.5307140000000  0.5379650000000  0.5868380000000 1.0
C      1  0.5563260000000  0.4549000000000  0.4394130000000 1.0
C      1  0.4816190000000  0.4612130000000  0.4202550000000 1.0
C      1  0.4362080000000  0.5810930000000  0.4661710000000 1.0
C      1  0.4914460000000  0.5140050000000  0.4930810000000 1.0
C      1  0.5183780000000  0.4953370000000  0.5288250000000 1.0
C      1  0.4726060000000  0.5290550000000  0.4744300000000 1.0
C      1  0.4107590000000  0.4337870000000  0.5458280000000 1.0
C      1  0.4837210000000  0.5585150000000  0.4765510000000 1.0
C      1  0.5143220000000  0.4269660000000  0.4265820000000 1.0
C      1  0.5321640000000  0.4521740000000  0.4222060000000 1.0
C      1  0.5405390000000  0.4703900000000  0.6089410000000 1.0
C      1  0.5267570000000  0.5118750000000  0.5712960000000 1.0
C      1  0.5026670000000  0.4663270000000  0.4424250000000 1.0
C      1  0.5629710000000  0.5381530000000  0.5065160000000 1.0
C      1  0.5135110000000  0.4333760000000  0.5902860000000 1.0
C      1  0.4830620000000  0.4756570000000  0.3959300000000 1.0
C      1  0.4469630000000  0.4680580000000  0.5370570000000 1.0
C      1  0.4333560000000  0.5226260000000  0.4213790000000 1.0
C      1  0.4471040000000  0.4551200000000  0.5072470000000 1.0
C      1  0.5959710000000  0.4486300000000  0.5232530000000 1.0
C      1  0.4202950000000  0.4405460000000  0.4558050000000 1.0
C      1  0.5511880000000  0.4261100000000  0.5596740000000 1.0
C      1  0.5559460000000  0.4744040000000  0.5376720000000 1.0
C      1  0.5392430000000  0.3945630000000  0.5393440000000 1.0
C      1  0.4613640000000  0.5625790000000  0.5752230000000 1.0
C      1  0.4291080000000  0.5891620000000  0.4917340000000 1.0
C      1  0.4441850000000  0.4482250000000  0.4407880000000 1.0
C      1  0.5084660000000  0.5681450000000  0.3994430000000 1.0
C      1  0.5639620000000  0.4957560000000  0.4169970000000 1.0
C      1  0.4695240000000  0.4838240000000  0.4667050000000 1.0
C      1  0.5955470000000  0.4924800000000  0.5472470000000 1.0
C      1  0.5294780000000  0.4153730000000  0.5771090000000 1.0
C      1  0.4363830000000  0.4463770000000  0.5571510000000 1.0
C      1  0.4445670000000  0.5230080000000  0.4844320000000 1.0
C      1  0.5251540000000  0.6020550000000  0.4957590000000 1.0
C      1  0.4548670000000  0.3973110000000  0.4923140000000 1.0
C      1  0.4150570000000  0.4853560000000  0.4669070000000 1.0
C      1  0.5348870000000  0.4892790000000  0.4090870000000 1.0
C      1  0.5171180000000  0.6108210000000  0.5242060000000 1.0
C      1  0.4646560000000  0.4549340000000  0.4609370000000 1.0
C      1  0.5000320000000  0.4104080000000  0.5090980000000 1.0
C      1  0.3911040000000  0.5225330000000  0.4494600000000 1.0
C      1  0.4395360000000  0.4744650000000  0.4244800000000 1.0
C      1  0.4919910000000  0.4084670000000  0.5393210000000 1.0
C      1  0.4566960000000  0.5842370000000  0.4992370000000 1.0
C      1  0.3945620000000  0.5070590000000  0.4728300000000 1.0
C      1  0.4651540000000  0.5571610000000  0.4170680000000 1.0
C      1  0.4603670000000  0.4232410000000  0.4302840000000 1.0
C      1  0.4389390000000  0.5709850000000  0.5594150000000 1.0
C      1  0.5352790000000  0.4546400000000  0.4816130000000 1.0
C      1  0.5241740000000  0.5969360000000  0.5479090000000 1.0
C      1  0.3856860000000  0.5249910000000  0.5335800000000 1.0
C      1  0.5099480000000  0.4438860000000  0.4692800000000 1.0
C      1  0.4768020000000  0.5175520000000  0.5463850000000 1.0
C      1  0.4544520000000  0.5017130000000  0.4212410000000 1.0
C      1  0.5734100000000  0.5372880000000  0.4394770000000 1.0
C      1  0.4576270000000  0.5918220000000  0.4496340000000 1.0
C      1  0.3911890000000  0.4542870000000  0.5439010000000 1.0
C      1  0.6084710000000  0.4693090000000  0.5062360000000 1.0
C      1  0.4972820000000  0.4852640000000  0.4874300000000 1.0
C      1  0.6005130000000  0.4653400000000  0.4776680000000 1.0
C      1  0.5388100000000  0.5620470000000  0.4642730000000 1.0
C      1  0.5118360000000  0.5313890000000  0.5038580000000 1.0
C      1  0.4843200000000  0.3918540000000  0.4915290000000 1.0
C      1  0.5484930000000  0.5586680000000  0.5771650000000 1.0
C      1  0.5394960000000  0.5224340000000  0.5008590000000 1.0
C      1  0.4348820000000  0.4610910000000  0.5827730000000 1.0
C      1  0.4733130000000  0.5081510000000  0.4454630000000 1.0
C      1  0.5291250000000  0.4831380000000  0.4831040000000 1.0
C      1  0.4689570000000  0.4824400000000  0.5549010000000 1.0
C      1  0.4958480000000  0.5207150000000  0.4046410000000 1.0
C      1  0.4923560000000  0.4387500000000  0.4947600000000 1.0
C      1  0.5798430000000  0.5813160000000  0.5389870000000 1.0
C      1  0.5238570000000  0.5143050000000  0.3944850000000 1.0
C      1  0.4635990000000  0.4382440000000  0.4860600000000 1.0
C      1  0.4383520000000  0.5493090000000  0.4137240000000 1.0
C      1  0.4995530000000  0.5143400000000  0.4336610000000 1.0
C      1  0.5416030000000  0.4110370000000  0.4951190000000 1.0
C      1  0.5966770000000  0.5157790000000  0.4764150000000 1.0
C      1  0.4569440000000  0.4251670000000  0.5596840000000 1.0
C      1  0.4495270000000  0.5209690000000  0.5653700000000 1.0
C      1  0.4172880000000  0.4239350000000  0.5175820000000 1.0
C      1  0.4915680000000  0.3984410000000  0.4625400000000 1.0
C      1  0.5025340000000  0.4580750000000  0.5847860000000 1.0
C      1  0.5593220000000  0.6053280000000  0.4650840000000 1.0
C      1  0.4410360000000  0.5299050000000  0.5120860000000 1.0
C      1  0.4559800000000  0.4804930000000  0.5820040000000 1.0
C      1  0.5698140000000  0.4483480000000  0.5715050000000 1.0
C      1  0.5908590000000  0.5535860000000  0.5371000000000 1.0
C      1  0.4916410000000  0.5649560000000  0.5716730000000 1.0
C      1  0.5040270000000  0.5591720000000  0.4986360000000 1.0
C      1  0.5118660000000  0.5190930000000  0.5462530000000 1.0
C      1  0.5032820000000  0.5481370000000  0.5925260000000 1.0
C      1  0.5611440000000  0.5767970000000  0.5605340000000 1.0
C      1  0.5517150000000  0.4933080000000  0.5650840000000 1.0
C      1  0.5155730000000  0.4792900000000  0.5987400000000 1.0
C      1  0.5148210000000  0.4174710000000  0.4553550000000 1.0
C      1  0.5646580000000  0.4841950000000  0.4453570000000 1.0
C      1  0.5547850000000  0.6091300000000  0.4925250000000 1.0
C      1  0.4734490000000  0.5016470000000  0.3974020000000 1.0
C      1  0.5296140000000  0.5716800000000  0.4920490000000 1.0
END
