TITL C-951337-3020-65 -6.13976517052924e-07 125000 -562.77385736489 0 0 92 (C1) n - 1
REM
REM in /home/bkarasulu/work/CARBON/AIRSS/Generating-Clusters/EDIP-Nigel-Params/with-SteepDescent/Only-C1/SD-CG/HFTN-CG
REM
REM
REM
REM
REM
REM ./C.cell (11c1c37f851c82e70ff6c80c92926a4b)
REM
REM compiler GCC version 9.2.1 20190827 (Red Hat 9.2.1-1)
REM options -cpp -mtune=generic -march=x86-64 -g -O0 -fpre-include=/usr/include/finclude/math-vector-fortran.h
REM seed 2120637464 2108216612 1567774700 -1103683246 246804425 -297148341 -1037385659 -1086500281 790129008 1503956163 -1487489625 -294269073 -23945391 536823697 1101984532 -818745511 1026555290 1607720054 -1353817832 -1490389946 1897506955 -1113392684 -1104908980 -391870718 -1340263428 140570594 539768898 1623093084 -1828034881 552215498 -1448790723 -272640034 731337939
REM
CELL 1.54180   50.00000   50.00000   50.00000   90.00000   90.00000   90.00000
LATT -1
SFAC C  
C      1  0.5246910000000  0.5375690000000  0.4933850000000 1.0
C      1  0.5101880000000  0.5316390000000  0.5402030000000 1.0
C      1  0.5163510000000  0.5647480000000  0.5667260000000 1.0
C      1  0.5525420000000  0.4501680000000  0.4722460000000 1.0
C      1  0.5342520000000  0.4891990000000  0.4972950000000 1.0
C      1  0.4332140000000  0.4570540000000  0.4590880000000 1.0
C      1  0.4882690000000  0.4677440000000  0.5632190000000 1.0
C      1  0.5571620000000  0.5403750000000  0.5682590000000 1.0
C      1  0.4862730000000  0.4887060000000  0.5869240000000 1.0
C      1  0.4285700000000  0.5485670000000  0.4536810000000 1.0
C      1  0.5035720000000  0.4036000000000  0.4819440000000 1.0
C      1  0.4799360000000  0.4336330000000  0.5124920000000 1.0
C      1  0.5880170000000  0.4907170000000  0.5218820000000 1.0
C      1  0.5205270000000  0.3844820000000  0.4943640000000 1.0
C      1  0.5447750000000  0.4812910000000  0.4357470000000 1.0
C      1  0.4061590000000  0.4646440000000  0.4990280000000 1.0
C      1  0.4637530000000  0.4558590000000  0.4998230000000 1.0
C      1  0.5448710000000  0.5239670000000  0.5877210000000 1.0
C      1  0.4662690000000  0.5114610000000  0.5298010000000 1.0
C      1  0.5199780000000  0.5239920000000  0.4679920000000 1.0
C      1  0.4678310000000  0.5241570000000  0.4816460000000 1.0
C      1  0.5740070000000  0.5251960000000  0.5511510000000 1.0
C      1  0.5442770000000  0.4711390000000  0.5192050000000 1.0
C      1  0.5619010000000  0.5583910000000  0.5025920000000 1.0
C      1  0.4799310000000  0.5132520000000  0.4103790000000 1.0
C      1  0.4496110000000  0.5016280000000  0.4746810000000 1.0
C      1  0.4970180000000  0.4859370000000  0.4227970000000 1.0
C      1  0.5253680000000  0.4943990000000  0.4179380000000 1.0
C      1  0.5447010000000  0.4780160000000  0.5700480000000 1.0
C      1  0.4614430000000  0.4581140000000  0.5494460000000 1.0
C      1  0.4909520000000  0.5093710000000  0.5482970000000 1.0
C      1  0.4976240000000  0.4375750000000  0.5644680000000 1.0
C      1  0.5267120000000  0.5241700000000  0.4211910000000 1.0
C      1  0.4933380000000  0.5224720000000  0.4562940000000 1.0
C      1  0.5020130000000  0.4880370000000  0.5011600000000 1.0
C      1  0.4670300000000  0.5408460000000  0.5678210000000 1.0
C      1  0.4867240000000  0.4696900000000  0.4802100000000 1.0
C      1  0.4734010000000  0.5150240000000  0.5824100000000 1.0
C      1  0.4169030000000  0.4393330000000  0.4980350000000 1.0
C      1  0.4977920000000  0.5313620000000  0.4258090000000 1.0
C      1  0.4572800000000  0.4942920000000  0.4467490000000 1.0
C      1  0.4902290000000  0.5577870000000  0.5613010000000 1.0
C      1  0.5442270000000  0.5180430000000  0.5067740000000 1.0
C      1  0.5218290000000  0.5743910000000  0.4804130000000 1.0
C      1  0.5247580000000  0.4307740000000  0.5636610000000 1.0
C      1  0.5842670000000  0.5181170000000  0.5255960000000 1.0
C      1  0.5417450000000  0.5645180000000  0.5242330000000 1.0
C      1  0.4754990000000  0.5617560000000  0.4469100000000 1.0
C      1  0.4757190000000  0.4310060000000  0.5419120000000 1.0
C      1  0.4234240000000  0.5393930000000  0.4801720000000 1.0
C      1  0.5341080000000  0.4867740000000  0.5432500000000 1.0
C      1  0.4519650000000  0.5349280000000  0.5418370000000 1.0
C      1  0.4527100000000  0.5456060000000  0.4388790000000 1.0
C      1  0.4945340000000  0.4557330000000  0.4225230000000 1.0
C      1  0.5733470000000  0.4680330000000  0.5135590000000 1.0
C      1  0.5080220000000  0.3775440000000  0.4715360000000 1.0
C      1  0.5125120000000  0.4433080000000  0.4431740000000 1.0
C      1  0.4485270000000  0.5575970000000  0.5227250000000 1.0
C      1  0.4680550000000  0.4479870000000  0.4312620000000 1.0
C      1  0.5192530000000  0.5780070000000  0.5101290000000 1.0
C      1  0.5562160000000  0.5513280000000  0.4527670000000 1.0
C      1  0.4215280000000  0.5085050000000  0.4795810000000 1.0
C      1  0.4126070000000  0.4920570000000  0.5039080000000 1.0
C      1  0.4899090000000  0.5798910000000  0.5135800000000 1.0
C      1  0.4774970000000  0.5827320000000  0.4890010000000 1.0
C      1  0.5347490000000  0.4597650000000  0.4527650000000 1.0
C      1  0.5019840000000  0.5371250000000  0.5119980000000 1.0
C      1  0.4497690000000  0.5487900000000  0.4925900000000 1.0
C      1  0.5710640000000  0.4681440000000  0.4838010000000 1.0
C      1  0.5595250000000  0.5026960000000  0.4497260000000 1.0
C      1  0.5512530000000  0.5669900000000  0.4756610000000 1.0
C      1  0.4598840000000  0.4198630000000  0.4727560000000 1.0
C      1  0.4339630000000  0.4914590000000  0.5236670000000 1.0
C      1  0.5386910000000  0.4511110000000  0.5745200000000 1.0
C      1  0.4552940000000  0.5175820000000  0.4263600000000 1.0
C      1  0.5107590000000  0.4916760000000  0.6000780000000 1.0
C      1  0.4478720000000  0.4672740000000  0.4382920000000 1.0
C      1  0.5416900000000  0.5267540000000  0.4476430000000 1.0
C      1  0.5407240000000  0.5601820000000  0.5539090000000 1.0
C      1  0.4784710000000  0.4112320000000  0.4937490000000 1.0
C      1  0.5368750000000  0.4970350000000  0.5914320000000 1.0
C      1  0.5787740000000  0.5347090000000  0.5028280000000 1.0
C      1  0.4413820000000  0.4423930000000  0.4822530000000 1.0
C      1  0.4920510000000  0.5754480000000  0.4659640000000 1.0
C      1  0.4843140000000  0.5150870000000  0.5046720000000 1.0
C      1  0.5036910000000  0.4831610000000  0.5406550000000 1.0
C      1  0.4868940000000  0.4922870000000  0.4516320000000 1.0
C      1  0.4533870000000  0.4703150000000  0.5240890000000 1.0
C      1  0.4670460000000  0.5783730000000  0.5296040000000 1.0
C      1  0.5386100000000  0.5168410000000  0.5370150000000 1.0
C      1  0.4875860000000  0.4404270000000  0.4628970000000 1.0
C      1  0.5659870000000  0.4956510000000  0.4766170000000 1.0
END
