TITL C-951347-9520-94 -8.42840023544417e-08 125000 -408.809492907173 0 0 66 (C1) n - 1
REM
REM in /home/bkarasulu/work/CARBON/AIRSS/Generating-Clusters/EDIP-Nigel-Params/with-SteepDescent/Only-C1/SD-CG/HFTN-CG
REM
REM
REM
REM
REM
REM ./C.cell (11c1c37f851c82e70ff6c80c92926a4b)
REM
REM compiler GCC version 9.2.1 20190827 (Red Hat 9.2.1-1)
REM options -cpp -mtune=generic -march=x86-64 -g -O0 -fpre-include=/usr/include/finclude/math-vector-fortran.h
REM seed -745038583 -1597500592 1832098164 -578916897 -1294625861 -265994328 -1168517744 -1332517881 -1808474422 -1577682971 301480306 -1172082511 352173486 -1572935006 -1348033002 -1454644463 -1178942706 1895238388 810790379 2080572467 997196914 -802995641 -1977327722 -1490530098 915717749 1481634756 439307799 -1298197612 512804812 1320748524 259745673 81957382 1151279697
REM
CELL 1.54180   50.00000   50.00000   50.00000   90.00000   90.00000   90.00000
LATT -1
SFAC C  
C      1  0.5059360000000  0.4828260000000  0.4216460000000 1.0
C      1  0.5053420000000  0.4838150000000  0.5586990000000 1.0
C      1  0.4845640000000  0.5208040000000  0.5130540000000 1.0
C      1  0.5530900000000  0.4523870000000  0.4949140000000 1.0
C      1  0.4745420000000  0.5201590000000  0.5625150000000 1.0
C      1  0.5133230000000  0.5593850000000  0.4497020000000 1.0
C      1  0.5176750000000  0.4665230000000  0.4436050000000 1.0
C      1  0.4696570000000  0.5635120000000  0.4591780000000 1.0
C      1  0.4693430000000  0.4526680000000  0.4551140000000 1.0
C      1  0.4648500000000  0.5655310000000  0.4869700000000 1.0
C      1  0.4601530000000  0.4784100000000  0.4485470000000 1.0
C      1  0.4881430000000  0.4718470000000  0.5106350000000 1.0
C      1  0.5146980000000  0.4802920000000  0.4710990000000 1.0
C      1  0.4882310000000  0.5704540000000  0.5050980000000 1.0
C      1  0.4424020000000  0.5240280000000  0.4686650000000 1.0
C      1  0.5125850000000  0.5141300000000  0.5202640000000 1.0
C      1  0.4412800000000  0.5395660000000  0.5233620000000 1.0
C      1  0.4423130000000  0.4528880000000  0.4991180000000 1.0
C      1  0.5496180000000  0.5376720000000  0.4710300000000 1.0
C      1  0.4749290000000  0.4208030000000  0.4912430000000 1.0
C      1  0.5553190000000  0.4902070000000  0.4280570000000 1.0
C      1  0.4870290000000  0.5178330000000  0.4492910000000 1.0
C      1  0.4792260000000  0.4950460000000  0.4312770000000 1.0
C      1  0.5726040000000  0.4978180000000  0.4745820000000 1.0
C      1  0.4607610000000  0.4718670000000  0.5458890000000 1.0
C      1  0.5340460000000  0.5160740000000  0.4555230000000 1.0
C      1  0.5042060000000  0.4572520000000  0.4886180000000 1.0
C      1  0.5213590000000  0.5067320000000  0.5688200000000 1.0
C      1  0.4363950000000  0.4798100000000  0.4963300000000 1.0
C      1  0.5280930000000  0.5574780000000  0.4738000000000 1.0
C      1  0.5544150000000  0.4820310000000  0.5443080000000 1.0
C      1  0.4468230000000  0.4944660000000  0.4718430000000 1.0
C      1  0.5595400000000  0.5194850000000  0.4929580000000 1.0
C      1  0.4638370000000  0.5363990000000  0.4535460000000 1.0
C      1  0.4693000000000  0.5361470000000  0.5340740000000 1.0
C      1  0.4421820000000  0.5491070000000  0.4960040000000 1.0
C      1  0.4740430000000  0.4463830000000  0.5362240000000 1.0
C      1  0.4286590000000  0.4910300000000  0.5219470000000 1.0
C      1  0.5575240000000  0.4720830000000  0.4732100000000 1.0
C      1  0.5018630000000  0.5285810000000  0.5728650000000 1.0
C      1  0.5703840000000  0.5070370000000  0.4466840000000 1.0
C      1  0.5034590000000  0.4389570000000  0.5448550000000 1.0
C      1  0.5122580000000  0.5319910000000  0.4400370000000 1.0
C      1  0.4764630000000  0.4896710000000  0.5624910000000 1.0
C      1  0.5287260000000  0.5024440000000  0.4196800000000 1.0
C      1  0.5342390000000  0.5020110000000  0.4965680000000 1.0
C      1  0.5470540000000  0.5299830000000  0.5280090000000 1.0
C      1  0.4960990000000  0.5033810000000  0.4740660000000 1.0
C      1  0.4243760000000  0.5179560000000  0.5258490000000 1.0
C      1  0.5208350000000  0.4304290000000  0.5245820000000 1.0
C      1  0.5450800000000  0.4611730000000  0.5615600000000 1.0
C      1  0.5168870000000  0.4571170000000  0.5644360000000 1.0
C      1  0.5096400000000  0.5631390000000  0.5462100000000 1.0
C      1  0.5389930000000  0.4780720000000  0.5188920000000 1.0
C      1  0.5093660000000  0.4844060000000  0.5288140000000 1.0
C      1  0.4824390000000  0.5644080000000  0.5338680000000 1.0
C      1  0.4766970000000  0.4973700000000  0.4963840000000 1.0
C      1  0.5467400000000  0.5101070000000  0.5524280000000 1.0
C      1  0.4859260000000  0.4394630000000  0.4733820000000 1.0
C      1  0.5269050000000  0.4408150000000  0.4995120000000 1.0
C      1  0.5150620000000  0.5586500000000  0.4998660000000 1.0
C      1  0.4329030000000  0.4750510000000  0.5445020000000 1.0
C      1  0.5477420000000  0.4669420000000  0.4449340000000 1.0
C      1  0.5111570000000  0.5550980000000  0.5730930000000 1.0
C      1  0.5290400000000  0.5544480000000  0.5253020000000 1.0
C      1  0.4616340000000  0.4363520000000  0.5103680000000 1.0
END
