TITL C-951336-9012-168 -3.74547248494078e-07 125000 -856.813795499408 0 0 136 (C1) n - 1
REM
REM in /home/bkarasulu/work/CARBON/AIRSS/Generating-Clusters/EDIP-Nigel-Params/with-SteepDescent/Only-C1/SD-CG/HFTN-CG
REM
REM
REM
REM
REM
REM ./C.cell (11c1c37f851c82e70ff6c80c92926a4b)
REM
REM compiler GCC version 9.2.1 20190827 (Red Hat 9.2.1-1)
REM options -cpp -mtune=generic -march=x86-64 -g -O0 -fpre-include=/usr/include/finclude/math-vector-fortran.h
REM seed 2038702568 -120253770 1126866677 -876165351 -1880632500 1646411246 1949007292 -418442685 -168812859 1806458977 -1608892793 -1491729096 1405814549 933473231 228463028 1443372185 -1374801077 1114841672 -991115381 513064563 -251459936 -2101560998 -659372440 -1046090340 -1187879008 -1444315430 287166209 2090095677 695049690 412437039 1975609698 810195818 528124484
REM
CELL 1.54180   50.00000   50.00000   50.00000   90.00000   90.00000   90.00000
LATT -1
SFAC C  
C      1  0.5054330000000  0.5909220000000  0.5110750000000 1.0
C      1  0.5059620000000  0.4785170000000  0.6082860000000 1.0
C      1  0.4724780000000  0.5406680000000  0.5257670000000 1.0
C      1  0.5263070000000  0.4872360000000  0.5629160000000 1.0
C      1  0.4334370000000  0.4292080000000  0.5418310000000 1.0
C      1  0.4440480000000  0.4201430000000  0.4838210000000 1.0
C      1  0.4404050000000  0.4932460000000  0.4135410000000 1.0
C      1  0.5966970000000  0.4677330000000  0.4779660000000 1.0
C      1  0.5213950000000  0.5249570000000  0.5379660000000 1.0
C      1  0.4235180000000  0.5493860000000  0.4769120000000 1.0
C      1  0.5851730000000  0.4410140000000  0.4873640000000 1.0
C      1  0.4040420000000  0.4831820000000  0.4999620000000 1.0
C      1  0.4781870000000  0.4729080000000  0.5498690000000 1.0
C      1  0.4657740000000  0.4952860000000  0.5894900000000 1.0
C      1  0.4579160000000  0.4141580000000  0.4584020000000 1.0
C      1  0.4969130000000  0.4593530000000  0.5281360000000 1.0
C      1  0.4858440000000  0.5234610000000  0.4022130000000 1.0
C      1  0.5752600000000  0.5471150000000  0.5382040000000 1.0
C      1  0.5153090000000  0.5253820000000  0.4075820000000 1.0
C      1  0.4868340000000  0.4144690000000  0.4639100000000 1.0
C      1  0.4161510000000  0.5305870000000  0.5803130000000 1.0
C      1  0.5428340000000  0.4551850000000  0.4281190000000 1.0
C      1  0.5753120000000  0.4439750000000  0.5156450000000 1.0
C      1  0.4571020000000  0.4176450000000  0.5328560000000 1.0
C      1  0.5541590000000  0.5245890000000  0.4716010000000 1.0
C      1  0.4313160000000  0.4548610000000  0.5523480000000 1.0
C      1  0.5459610000000  0.5153010000000  0.5189850000000 1.0
C      1  0.5194920000000  0.5298160000000  0.4363240000000 1.0
C      1  0.5078500000000  0.4807050000000  0.4082900000000 1.0
C      1  0.5285900000000  0.5669770000000  0.5474040000000 1.0
C      1  0.5273980000000  0.5747580000000  0.5201790000000 1.0
C      1  0.5408320000000  0.4084040000000  0.5177490000000 1.0
C      1  0.4988760000000  0.5256010000000  0.5162090000000 1.0
C      1  0.4302970000000  0.5134770000000  0.4316960000000 1.0
C      1  0.4276360000000  0.5479440000000  0.5613890000000 1.0
C      1  0.4901450000000  0.4984160000000  0.5083560000000 1.0
C      1  0.5241470000000  0.4709240000000  0.5879710000000 1.0
C      1  0.4626920000000  0.5933920000000  0.4736410000000 1.0
C      1  0.4622060000000  0.5001440000000  0.5001160000000 1.0
C      1  0.4778440000000  0.5885600000000  0.5231710000000 1.0
C      1  0.5265490000000  0.4706960000000  0.5364280000000 1.0
C      1  0.4753090000000  0.4489890000000  0.3982520000000 1.0
C      1  0.4362790000000  0.5052150000000  0.5445080000000 1.0
C      1  0.4528490000000  0.5536740000000  0.5006980000000 1.0
C      1  0.5703680000000  0.4834240000000  0.5668280000000 1.0
C      1  0.5385750000000  0.4461690000000  0.5518880000000 1.0
C      1  0.5122020000000  0.5345500000000  0.4918830000000 1.0
C      1  0.4769870000000  0.4211570000000  0.5530470000000 1.0
C      1  0.5493560000000  0.5471820000000  0.5545850000000 1.0
C      1  0.5321820000000  0.5756230000000  0.4492990000000 1.0
C      1  0.4461760000000  0.4755960000000  0.4614970000000 1.0
C      1  0.4893750000000  0.4093430000000  0.4920790000000 1.0
C      1  0.5702330000000  0.5709570000000  0.4568650000000 1.0
C      1  0.4726000000000  0.5407030000000  0.5876500000000 1.0
C      1  0.4906940000000  0.4550580000000  0.4472100000000 1.0
C      1  0.4207960000000  0.5223480000000  0.5252300000000 1.0
C      1  0.5055180000000  0.5875270000000  0.4824340000000 1.0
C      1  0.4174790000000  0.5485030000000  0.5349410000000 1.0
C      1  0.4481640000000  0.4753010000000  0.5392170000000 1.0
C      1  0.5606010000000  0.4366000000000  0.4698710000000 1.0
C      1  0.4736780000000  0.4534280000000  0.5030000000000 1.0
C      1  0.5649070000000  0.4538890000000  0.4460790000000 1.0
C      1  0.5642650000000  0.5127640000000  0.4275960000000 1.0
C      1  0.4609820000000  0.5151850000000  0.4737860000000 1.0
C      1  0.5223750000000  0.5324890000000  0.5924100000000 1.0
C      1  0.4568170000000  0.5836540000000  0.5018730000000 1.0
C      1  0.5490720000000  0.5383940000000  0.5830810000000 1.0
C      1  0.5954810000000  0.5636230000000  0.4960680000000 1.0
C      1  0.4672180000000  0.4505880000000  0.4273790000000 1.0
C      1  0.5211680000000  0.4362940000000  0.4213120000000 1.0
C      1  0.5626370000000  0.4563420000000  0.5644590000000 1.0
C      1  0.4636210000000  0.4747660000000  0.3889520000000 1.0
C      1  0.4996710000000  0.4296190000000  0.5380000000000 1.0
C      1  0.4831390000000  0.5640060000000  0.4334320000000 1.0
C      1  0.5570920000000  0.4977710000000  0.4051150000000 1.0
C      1  0.5366390000000  0.4455550000000  0.4867640000000 1.0
C      1  0.4505920000000  0.4725450000000  0.5094040000000 1.0
C      1  0.5747260000000  0.5656810000000  0.5149260000000 1.0
C      1  0.5171910000000  0.4454740000000  0.5753130000000 1.0
C      1  0.5156650000000  0.4085490000000  0.5279920000000 1.0
C      1  0.4701710000000  0.5408330000000  0.4208860000000 1.0
C      1  0.5055720000000  0.4512310000000  0.3989830000000 1.0
C      1  0.4313530000000  0.4596210000000  0.5797750000000 1.0
C      1  0.5749990000000  0.4743240000000  0.5196440000000 1.0
C      1  0.5480170000000  0.5644720000000  0.5011370000000 1.0
C      1  0.5908300000000  0.5546580000000  0.4696470000000 1.0
C      1  0.5095770000000  0.5560520000000  0.4474120000000 1.0
C      1  0.4240960000000  0.4416700000000  0.4790680000000 1.0
C      1  0.5835610000000  0.5249690000000  0.4712260000000 1.0
C      1  0.5868130000000  0.5049960000000  0.4456500000000 1.0
C      1  0.5482730000000  0.5794450000000  0.4737360000000 1.0
C      1  0.4243990000000  0.4645180000000  0.4979480000000 1.0
C      1  0.4787970000000  0.4660720000000  0.4738640000000 1.0
C      1  0.4344920000000  0.5066240000000  0.4612540000000 1.0
C      1  0.5332930000000  0.4835410000000  0.4526800000000 1.0
C      1  0.4687260000000  0.5459950000000  0.4756510000000 1.0
C      1  0.4337180000000  0.5591570000000  0.4503240000000 1.0
C      1  0.5419580000000  0.5131970000000  0.4474280000000 1.0
C      1  0.4129610000000  0.5225680000000  0.4763270000000 1.0
C      1  0.4612640000000  0.5221650000000  0.5489710000000 1.0
C      1  0.4527850000000  0.4751730000000  0.4321120000000 1.0
C      1  0.5407250000000  0.5346260000000  0.4952850000000 1.0
C      1  0.4811140000000  0.4710790000000  0.5982580000000 1.0
C      1  0.5779480000000  0.4953780000000  0.5909360000000 1.0
C      1  0.5071100000000  0.4789230000000  0.4383740000000 1.0
C      1  0.4772730000000  0.5655910000000  0.5438560000000 1.0
C      1  0.5949680000000  0.4855670000000  0.5009240000000 1.0
C      1  0.5460520000000  0.4368730000000  0.5148710000000 1.0
C      1  0.5816000000000  0.4768920000000  0.4549560000000 1.0
C      1  0.4805470000000  0.5021090000000  0.5620040000000 1.0
C      1  0.5001120000000  0.5486970000000  0.5839060000000 1.0
C      1  0.5759530000000  0.5193990000000  0.5260690000000 1.0
C      1  0.4874380000000  0.6063690000000  0.4712500000000 1.0
C      1  0.4992640000000  0.5549470000000  0.4762720000000 1.0
C      1  0.4826230000000  0.4938470000000  0.4002520000000 1.0
C      1  0.5687090000000  0.5206330000000  0.5912590000000 1.0
C      1  0.5301090000000  0.4755880000000  0.4837810000000 1.0
C      1  0.4364240000000  0.4864080000000  0.5870730000000 1.0
C      1  0.5296190000000  0.5001150000000  0.3982900000000 1.0
C      1  0.4612080000000  0.5689210000000  0.4554920000000 1.0
C      1  0.5445790000000  0.4844470000000  0.5133330000000 1.0
C      1  0.4463900000000  0.4313280000000  0.4373310000000 1.0
C      1  0.5824070000000  0.4931900000000  0.5429270000000 1.0
C      1  0.5008180000000  0.4838860000000  0.4853770000000 1.0
C      1  0.4671210000000  0.5195240000000  0.6055610000000 1.0
C      1  0.5920160000000  0.5147340000000  0.4988080000000 1.0
C      1  0.5075180000000  0.4204010000000  0.4433970000000 1.0
C      1  0.4659590000000  0.4238920000000  0.5038570000000 1.0
C      1  0.4406340000000  0.5403450000000  0.4269530000000 1.0
C      1  0.4856760000000  0.4525370000000  0.5735660000000 1.0
C      1  0.4213920000000  0.5049000000000  0.5703060000000 1.0
C      1  0.5108120000000  0.5113700000000  0.5633010000000 1.0
C      1  0.5027880000000  0.5630330000000  0.5591620000000 1.0
C      1  0.4245480000000  0.4467110000000  0.4505130000000 1.0
C      1  0.4059320000000  0.5109610000000  0.5022820000000 1.0
C      1  0.4559580000000  0.5566600000000  0.5675670000000 1.0
END
