TITL C-950526-5686-566 -2.19575543072113e-06 125000 -940.005467828539 0 0 150 (C1) n - 1
REM
REM in /home/bkarasulu/work/CARBON/AIRSS/Generating-Clusters/EDIP-Nigel-Params/with-SteepDescent/Only-C1/SD-CG/HFTN-CG
REM
REM
REM
REM
REM
REM ./C.cell (11c1c37f851c82e70ff6c80c92926a4b)
REM
REM compiler GCC version 9.2.1 20190827 (Red Hat 9.2.1-1)
REM options -cpp -mtune=generic -march=x86-64 -g -O0 -fpre-include=/usr/include/finclude/math-vector-fortran.h
REM seed -1440132482 1438160047 -462309591 -1826976380 1042443164 -347641826 -1139326933 -1619172947 699687255 -434796122 -1786664415 366095059 1947526716 -813742372 665390719 -1947300178 -901216532 1927037861 -497990762 -1276874514 2118144529 -875447925 410292026 -1908357078 -1843944774 -879558531 924370004 -450720040 -1774478639 337518135 -1292453744 269188532 2135617152
REM
CELL 1.54180   50.00000   50.00000   50.00000   90.00000   90.00000   90.00000
LATT -1
SFAC C  
C      1  0.5789860000000  0.5790350000000  0.5244770000000 1.0
C      1  0.5421370000000  0.5853480000000  0.4329240000000 1.0
C      1  0.4660770000000  0.4390210000000  0.4179950000000 1.0
C      1  0.4915610000000  0.5089180000000  0.5364550000000 1.0
C      1  0.4358630000000  0.4554670000000  0.4464540000000 1.0
C      1  0.5751580000000  0.5497420000000  0.4412000000000 1.0
C      1  0.4398530000000  0.5713160000000  0.5089500000000 1.0
C      1  0.5120880000000  0.5223720000000  0.5728740000000 1.0
C      1  0.4657360000000  0.5834850000000  0.4668560000000 1.0
C      1  0.5165530000000  0.4557430000000  0.5143920000000 1.0
C      1  0.5190210000000  0.4473240000000  0.5444390000000 1.0
C      1  0.5074430000000  0.5966420000000  0.5303940000000 1.0
C      1  0.4706620000000  0.4749540000000  0.4750200000000 1.0
C      1  0.5391450000000  0.4930860000000  0.4851220000000 1.0
C      1  0.5102890000000  0.5392350000000  0.4938670000000 1.0
C      1  0.4457410000000  0.4783130000000  0.5843890000000 1.0
C      1  0.5498790000000  0.5685230000000  0.4767650000000 1.0
C      1  0.3964820000000  0.4737010000000  0.4743180000000 1.0
C      1  0.5987580000000  0.5348750000000  0.5389320000000 1.0
C      1  0.4933240000000  0.5952260000000  0.5575320000000 1.0
C      1  0.5938970000000  0.5110250000000  0.5222530000000 1.0
C      1  0.4294630000000  0.5056880000000  0.4225260000000 1.0
C      1  0.5393890000000  0.5928950000000  0.4608120000000 1.0
C      1  0.4297040000000  0.5436580000000  0.5506890000000 1.0
C      1  0.5455450000000  0.4618540000000  0.5822030000000 1.0
C      1  0.5830100000000  0.5296640000000  0.5661780000000 1.0
C      1  0.5915860000000  0.5441630000000  0.4885520000000 1.0
C      1  0.4542460000000  0.4061840000000  0.5139270000000 1.0
C      1  0.4240840000000  0.5152420000000  0.5597550000000 1.0
C      1  0.4766600000000  0.3903620000000  0.5200420000000 1.0
C      1  0.5282720000000  0.5731730000000  0.5324700000000 1.0
C      1  0.4842820000000  0.5408730000000  0.5068210000000 1.0
C      1  0.4680610000000  0.4895620000000  0.4075570000000 1.0
C      1  0.4707880000000  0.5777950000000  0.4384560000000 1.0
C      1  0.4792670000000  0.4306080000000  0.5694050000000 1.0
C      1  0.4422530000000  0.4114700000000  0.4867130000000 1.0
C      1  0.5254500000000  0.3912100000000  0.5242010000000 1.0
C      1  0.4725430000000  0.5501830000000  0.5912110000000 1.0
C      1  0.5608880000000  0.5120710000000  0.4881250000000 1.0
C      1  0.5027990000000  0.4435950000000  0.4565550000000 1.0
C      1  0.5311530000000  0.5087630000000  0.5918120000000 1.0
C      1  0.5476480000000  0.4058920000000  0.5182300000000 1.0
C      1  0.5073630000000  0.4705510000000  0.5602590000000 1.0
C      1  0.4835270000000  0.5134050000000  0.4126100000000 1.0
C      1  0.4422460000000  0.5078430000000  0.5003490000000 1.0
C      1  0.5153130000000  0.4642940000000  0.5905910000000 1.0
C      1  0.4612520000000  0.4134400000000  0.4631780000000 1.0
C      1  0.4411460000000  0.4924200000000  0.4007260000000 1.0
C      1  0.5058040000000  0.5741940000000  0.5741060000000 1.0
C      1  0.4467750000000  0.4865370000000  0.5231990000000 1.0
C      1  0.5702360000000  0.4692160000000  0.4503060000000 1.0
C      1  0.5488650000000  0.4899700000000  0.5309610000000 1.0
C      1  0.4954300000000  0.4686490000000  0.4391840000000 1.0
C      1  0.4925600000000  0.4742250000000  0.5152050000000 1.0
C      1  0.5556100000000  0.4249720000000  0.4387500000000 1.0
C      1  0.3926150000000  0.4930650000000  0.4535110000000 1.0
C      1  0.4454000000000  0.5056680000000  0.4488160000000 1.0
C      1  0.4803780000000  0.4633390000000  0.4145270000000 1.0
C      1  0.5243570000000  0.4084750000000  0.4768230000000 1.0
C      1  0.4551350000000  0.5629780000000  0.5692270000000 1.0
C      1  0.5189230000000  0.4179580000000  0.4463510000000 1.0
C      1  0.5007230000000  0.4061750000000  0.5233990000000 1.0
C      1  0.4574700000000  0.5540090000000  0.4284970000000 1.0
C      1  0.5344600000000  0.5491320000000  0.4586910000000 1.0
C      1  0.5758120000000  0.4400740000000  0.4525530000000 1.0
C      1  0.4622030000000  0.4521530000000  0.4907160000000 1.0
C      1  0.5574950000000  0.5784080000000  0.5431750000000 1.0
C      1  0.5272320000000  0.4524000000000  0.4720720000000 1.0
C      1  0.4877340000000  0.4486690000000  0.5936460000000 1.0
C      1  0.5291400000000  0.5374220000000  0.4130160000000 1.0
C      1  0.6086650000000  0.4670720000000  0.5123570000000 1.0
C      1  0.5134420000000  0.5090360000000  0.4829140000000 1.0
C      1  0.5172000000000  0.4987870000000  0.5506360000000 1.0
C      1  0.4585360000000  0.4777100000000  0.4487740000000 1.0
C      1  0.5833410000000  0.4358030000000  0.4815970000000 1.0
C      1  0.4932720000000  0.5670440000000  0.5981420000000 1.0
C      1  0.4038320000000  0.4970230000000  0.4287260000000 1.0
C      1  0.4850230000000  0.4984950000000  0.6056150000000 1.0
C      1  0.5203800000000  0.4890250000000  0.4392430000000 1.0
C      1  0.4856490000000  0.5942750000000  0.5103820000000 1.0
C      1  0.4612470000000  0.5415970000000  0.5491320000000 1.0
C      1  0.4097400000000  0.5335090000000  0.4750850000000 1.0
C      1  0.4243800000000  0.5063200000000  0.4715830000000 1.0
C      1  0.4353930000000  0.4567380000000  0.5666560000000 1.0
C      1  0.5006900000000  0.4241860000000  0.5482840000000 1.0
C      1  0.4690290000000  0.5186850000000  0.4913880000000 1.0
C      1  0.5132790000000  0.4900720000000  0.6060570000000 1.0
C      1  0.5686610000000  0.4451100000000  0.5406470000000 1.0
C      1  0.5993600000000  0.4841500000000  0.5321540000000 1.0
C      1  0.4428030000000  0.4251200000000  0.5329990000000 1.0
C      1  0.4425540000000  0.5707750000000  0.4797690000000 1.0
C      1  0.5698740000000  0.4768550000000  0.4219000000000 1.0
C      1  0.3979590000000  0.5047200000000  0.5172570000000 1.0
C      1  0.5858500000000  0.5120550000000  0.4714690000000 1.0
C      1  0.4877240000000  0.5383760000000  0.5362060000000 1.0
C      1  0.5361190000000  0.5037950000000  0.4135860000000 1.0
C      1  0.5050750000000  0.5560060000000  0.4593980000000 1.0
C      1  0.5456440000000  0.4660030000000  0.4108540000000 1.0
C      1  0.5457840000000  0.4430870000000  0.5585250000000 1.0
C      1  0.4502620000000  0.5048370000000  0.5711590000000 1.0
C      1  0.5509870000000  0.4913970000000  0.5782500000000 1.0
C      1  0.4236830000000  0.5562830000000  0.4624570000000 1.0
C      1  0.4494180000000  0.4295490000000  0.4390770000000 1.0
C      1  0.4905400000000  0.5303910000000  0.4463070000000 1.0
C      1  0.5909710000000  0.4821030000000  0.4678770000000 1.0
C      1  0.4169860000000  0.4638510000000  0.5445530000000 1.0
C      1  0.4174120000000  0.4530980000000  0.4697510000000 1.0
C      1  0.5489000000000  0.5340700000000  0.5270140000000 1.0
C      1  0.5407180000000  0.4759260000000  0.4601760000000 1.0
C      1  0.5641160000000  0.5123350000000  0.5169840000000 1.0
C      1  0.5630320000000  0.5474960000000  0.5487970000000 1.0
C      1  0.5134140000000  0.5534990000000  0.5536220000000 1.0
C      1  0.4104200000000  0.5302960000000  0.5057760000000 1.0
C      1  0.5340950000000  0.5531640000000  0.5084780000000 1.0
C      1  0.5447030000000  0.4300010000000  0.4812920000000 1.0
C      1  0.5128340000000  0.5978400000000  0.4684540000000 1.0
C      1  0.5784990000000  0.5617560000000  0.4690050000000 1.0
C      1  0.4702050000000  0.4727340000000  0.5994930000000 1.0
C      1  0.4297410000000  0.5531010000000  0.4346290000000 1.0
C      1  0.4647150000000  0.5874640000000  0.5532020000000 1.0
C      1  0.4996800000000  0.5732700000000  0.4337750000000 1.0
C      1  0.4659810000000  0.4949650000000  0.5466520000000 1.0
C      1  0.4505990000000  0.4323910000000  0.5601300000000 1.0
C      1  0.4609850000000  0.5860120000000  0.5237080000000 1.0
C      1  0.5391840000000  0.4743680000000  0.5084670000000 1.0
C      1  0.4770500000000  0.4667170000000  0.5559460000000 1.0
C      1  0.4229590000000  0.4437850000000  0.5220440000000 1.0
C      1  0.5925480000000  0.5552380000000  0.5166850000000 1.0
C      1  0.4217770000000  0.5522660000000  0.5226540000000 1.0
C      1  0.4807320000000  0.5210860000000  0.5845250000000 1.0
C      1  0.5782300000000  0.5209960000000  0.4432190000000 1.0
C      1  0.5642020000000  0.4289380000000  0.5150950000000 1.0
C      1  0.5463520000000  0.5559030000000  0.4324170000000 1.0
C      1  0.5110530000000  0.5117360000000  0.4546410000000 1.0
C      1  0.4893520000000  0.5908640000000  0.4817500000000 1.0
C      1  0.3909450000000  0.4838310000000  0.4999390000000 1.0
C      1  0.4666580000000  0.4598560000000  0.5195910000000 1.0
C      1  0.5730040000000  0.4755500000000  0.5443500000000 1.0
C      1  0.5671030000000  0.5054900000000  0.4199340000000 1.0
C      1  0.5385330000000  0.4398090000000  0.4211550000000 1.0
C      1  0.5026400000000  0.5535930000000  0.4105050000000 1.0
C      1  0.4126660000000  0.4946620000000  0.5406780000000 1.0
C      1  0.4811560000000  0.4318020000000  0.4780900000000 1.0
C      1  0.4876840000000  0.4935510000000  0.4910960000000 1.0
C      1  0.4655640000000  0.5252350000000  0.4615390000000 1.0
C      1  0.5773570000000  0.5014150000000  0.5722470000000 1.0
C      1  0.4330130000000  0.4406080000000  0.4916710000000 1.0
C      1  0.4751490000000  0.5406070000000  0.4074660000000 1.0
C      1  0.5959090000000  0.4617430000000  0.4883180000000 1.0
C      1  0.5048320000000  0.4231950000000  0.4977280000000 1.0
END
