TITL C-950527-2551-519 -1.28797760884217e-06 125000 -834.788981447068 0 0 134 (C1) n - 1
REM
REM in /home/bkarasulu/work/CARBON/AIRSS/Generating-Clusters/EDIP-Nigel-Params/with-SteepDescent/Only-C1/SD-CG/HFTN-CG
REM
REM
REM
REM
REM
REM ./C.cell (11c1c37f851c82e70ff6c80c92926a4b)
REM
REM compiler GCC version 9.2.1 20190827 (Red Hat 9.2.1-1)
REM options -cpp -mtune=generic -march=x86-64 -g -O0 -fpre-include=/usr/include/finclude/math-vector-fortran.h
REM seed 1998681937 -1257059053 2060323205 -124309102 -290360681 -473187871 1447072441 223500928 1464747526 -1031659455 -884859216 1364986813 464840335 -1730730197 1717989859 -1356245980 -1996664513 -427929222 1524786085 304351008 942403232 1743815068 -150037070 117232528 -1996604848 2043416323 664315761 -1308811635 48095972 -109001550 1215707522 995152766 -679355799
REM
CELL 1.54180   50.00000   50.00000   50.00000   90.00000   90.00000   90.00000
LATT -1
SFAC C  
C      1  0.5415160000000  0.4071320000000  0.5385340000000 1.0
C      1  0.5682570000000  0.4954090000000  0.4280780000000 1.0
C      1  0.4023600000000  0.5324910000000  0.5321600000000 1.0
C      1  0.5445280000000  0.5260730000000  0.5770310000000 1.0
C      1  0.4615430000000  0.4764020000000  0.5128190000000 1.0
C      1  0.4803620000000  0.5068550000000  0.4436030000000 1.0
C      1  0.5736140000000  0.5539410000000  0.4603420000000 1.0
C      1  0.5221290000000  0.5081310000000  0.4115130000000 1.0
C      1  0.5037900000000  0.5067850000000  0.5148090000000 1.0
C      1  0.4570550000000  0.4445420000000  0.5606100000000 1.0
C      1  0.4334310000000  0.4534520000000  0.5727980000000 1.0
C      1  0.4563760000000  0.4509080000000  0.4240340000000 1.0
C      1  0.5372730000000  0.5802500000000  0.5173860000000 1.0
C      1  0.5036820000000  0.4488600000000  0.5569960000000 1.0
C      1  0.5507190000000  0.5120810000000  0.4138010000000 1.0
C      1  0.4877980000000  0.5386090000000  0.4512050000000 1.0
C      1  0.5101050000000  0.4834050000000  0.4024380000000 1.0
C      1  0.5246330000000  0.4613340000000  0.5759450000000 1.0
C      1  0.4945850000000  0.5864330000000  0.5545450000000 1.0
C      1  0.5159410000000  0.5253560000000  0.5848720000000 1.0
C      1  0.4470680000000  0.5724860000000  0.4712750000000 1.0
C      1  0.5836620000000  0.5388410000000  0.5549000000000 1.0
C      1  0.5797940000000  0.4987650000000  0.5057770000000 1.0
C      1  0.5413610000000  0.4806260000000  0.5555930000000 1.0
C      1  0.4815500000000  0.4675440000000  0.5968190000000 1.0
C      1  0.5601360000000  0.5700210000000  0.5041510000000 1.0
C      1  0.4888380000000  0.4825680000000  0.5252400000000 1.0
C      1  0.5274340000000  0.5534180000000  0.4193280000000 1.0
C      1  0.5110230000000  0.4022830000000  0.5373450000000 1.0
C      1  0.4169520000000  0.5131940000000  0.4906960000000 1.0
C      1  0.4661050000000  0.4174390000000  0.5551890000000 1.0
C      1  0.5051500000000  0.5043560000000  0.6015800000000 1.0
C      1  0.5419270000000  0.4612610000000  0.5056020000000 1.0
C      1  0.4213120000000  0.5624870000000  0.4858530000000 1.0
C      1  0.4545090000000  0.4053400000000  0.5314660000000 1.0
C      1  0.5792760000000  0.4520220000000  0.5271020000000 1.0
C      1  0.4521580000000  0.4318170000000  0.4453000000000 1.0
C      1  0.5686330000000  0.4389870000000  0.4791790000000 1.0
C      1  0.4137640000000  0.5366380000000  0.4706470000000 1.0
C      1  0.4373420000000  0.5376820000000  0.5714970000000 1.0
C      1  0.4501680000000  0.5625270000000  0.5300770000000 1.0
C      1  0.5623300000000  0.5775800000000  0.4749030000000 1.0
C      1  0.4376630000000  0.4831160000000  0.5332700000000 1.0
C      1  0.4206420000000  0.5216570000000  0.5531730000000 1.0
C      1  0.5000010000000  0.5487370000000  0.5832880000000 1.0
C      1  0.4897450000000  0.5973610000000  0.4654660000000 1.0
C      1  0.4550210000000  0.5263850000000  0.4081930000000 1.0
C      1  0.4918310000000  0.5322300000000  0.5320860000000 1.0
C      1  0.5920700000000  0.5349860000000  0.4749150000000 1.0
C      1  0.4940480000000  0.5811160000000  0.4416430000000 1.0
C      1  0.4645770000000  0.5337670000000  0.4937580000000 1.0
C      1  0.4816470000000  0.4478740000000  0.4135290000000 1.0
C      1  0.4948200000000  0.4002190000000  0.4880310000000 1.0
C      1  0.5409690000000  0.5299420000000  0.5298370000000 1.0
C      1  0.4653220000000  0.5930170000000  0.4811070000000 1.0
C      1  0.5922900000000  0.5085690000000  0.4626720000000 1.0
C      1  0.5739240000000  0.4659850000000  0.4687820000000 1.0
C      1  0.5216460000000  0.4336870000000  0.4608650000000 1.0
C      1  0.5521220000000  0.4552300000000  0.5386890000000 1.0
C      1  0.5501210000000  0.4129680000000  0.5103210000000 1.0
C      1  0.4891450000000  0.5765500000000  0.5047030000000 1.0
C      1  0.5518420000000  0.4523500000000  0.4289000000000 1.0
C      1  0.5590750000000  0.5494600000000  0.5649550000000 1.0
C      1  0.5101010000000  0.4746870000000  0.5998770000000 1.0
C      1  0.4702110000000  0.5169510000000  0.5511180000000 1.0
C      1  0.5153660000000  0.5413170000000  0.4700530000000 1.0
C      1  0.5474410000000  0.4228600000000  0.4692880000000 1.0
C      1  0.5117470000000  0.4148050000000  0.5081790000000 1.0
C      1  0.5388020000000  0.5708440000000  0.5468030000000 1.0
C      1  0.4695780000000  0.4939200000000  0.6013530000000 1.0
C      1  0.4264490000000  0.4863640000000  0.4798710000000 1.0
C      1  0.4339780000000  0.5353600000000  0.4247300000000 1.0
C      1  0.5167350000000  0.4572210000000  0.4841320000000 1.0
C      1  0.5735820000000  0.4309210000000  0.5064400000000 1.0
C      1  0.5091260000000  0.4601000000000  0.5287150000000 1.0
C      1  0.5233370000000  0.5109100000000  0.4755920000000 1.0
C      1  0.5059700000000  0.4596680000000  0.4188740000000 1.0
C      1  0.4118270000000  0.4579760000000  0.5000580000000 1.0
C      1  0.4560640000000  0.4850510000000  0.4853350000000 1.0
C      1  0.4501540000000  0.4205700000000  0.5069040000000 1.0
C      1  0.6014880000000  0.4666690000000  0.5363390000000 1.0
C      1  0.5170470000000  0.5676370000000  0.4944360000000 1.0
C      1  0.5936650000000  0.4934600000000  0.5326000000000 1.0
C      1  0.5259630000000  0.4444610000000  0.4330240000000 1.0
C      1  0.4318290000000  0.4323580000000  0.4643360000000 1.0
C      1  0.5499400000000  0.5371800000000  0.4541680000000 1.0
C      1  0.5544430000000  0.5054160000000  0.4664890000000 1.0
C      1  0.4256610000000  0.5515700000000  0.5155040000000 1.0
C      1  0.4841880000000  0.4912020000000  0.3960390000000 1.0
C      1  0.4167570000000  0.4830180000000  0.4535610000000 1.0
C      1  0.5365340000000  0.5878330000000  0.4611190000000 1.0
C      1  0.4368850000000  0.5316350000000  0.4526330000000 1.0
C      1  0.3968860000000  0.5082940000000  0.5132500000000 1.0
C      1  0.4961930000000  0.4188710000000  0.5569850000000 1.0
C      1  0.4453780000000  0.4775860000000  0.4204150000000 1.0
C      1  0.5518810000000  0.5389160000000  0.4246890000000 1.0
C      1  0.4826680000000  0.5625810000000  0.5652780000000 1.0
C      1  0.4330930000000  0.4809160000000  0.5653050000000 1.0
C      1  0.5209110000000  0.5850920000000  0.5626380000000 1.0
C      1  0.4811530000000  0.4890270000000  0.5521870000000 1.0
C      1  0.4745380000000  0.4156530000000  0.4487360000000 1.0
C      1  0.5324720000000  0.5026360000000  0.5251620000000 1.0
C      1  0.5046560000000  0.4871620000000  0.4811400000000 1.0
C      1  0.4497520000000  0.5023000000000  0.5802830000000 1.0
C      1  0.5030720000000  0.4429540000000  0.5063430000000 1.0
C      1  0.5496870000000  0.4908830000000  0.5030110000000 1.0
C      1  0.4748800000000  0.5521070000000  0.5150120000000 1.0
C      1  0.4739040000000  0.5664410000000  0.4280870000000 1.0
C      1  0.4544280000000  0.5574510000000  0.5586460000000 1.0
C      1  0.4602390000000  0.5451150000000  0.4667850000000 1.0
C      1  0.5840620000000  0.5099240000000  0.5562910000000 1.0
C      1  0.4914520000000  0.5933890000000  0.5277700000000 1.0
C      1  0.4789170000000  0.4879230000000  0.4667560000000 1.0
C      1  0.4657620000000  0.4998330000000  0.4165480000000 1.0
C      1  0.4662780000000  0.3992410000000  0.4949410000000 1.0
C      1  0.5393250000000  0.4365840000000  0.5816020000000 1.0
C      1  0.5069590000000  0.5338200000000  0.4115280000000 1.0
C      1  0.4787270000000  0.5448470000000  0.4095070000000 1.0
C      1  0.4396070000000  0.5250470000000  0.5073910000000 1.0
C      1  0.5190710000000  0.5459650000000  0.5468260000000 1.0
C      1  0.5572140000000  0.5415890000000  0.5079810000000 1.0
C      1  0.5809520000000  0.5278640000000  0.5010510000000 1.0
C      1  0.4187250000000  0.4821340000000  0.4269500000000 1.0
C      1  0.5213010000000  0.5729940000000  0.4401370000000 1.0
C      1  0.5161670000000  0.6013000000000  0.4774540000000 1.0
C      1  0.4990870000000  0.4126180000000  0.4618480000000 1.0
C      1  0.5590210000000  0.5007210000000  0.5700650000000 1.0
C      1  0.4279660000000  0.4339690000000  0.4920440000000 1.0
C      1  0.5911570000000  0.4861010000000  0.4809620000000 1.0
C      1  0.5488680000000  0.4304260000000  0.5553610000000 1.0
C      1  0.4103520000000  0.4799760000000  0.5204060000000 1.0
C      1  0.4792300000000  0.4627500000000  0.5673970000000 1.0
C      1  0.4431490000000  0.5123920000000  0.5350850000000 1.0
C      1  0.5672880000000  0.4711070000000  0.4413570000000 1.0
END
