TITL C-951345-2650-275 -5.74372690466689e-06 125000 -1041.38449946916 0 0 166 (C1) n - 1
REM
REM in /home/bkarasulu/work/CARBON/AIRSS/Generating-Clusters/EDIP-Nigel-Params/with-SteepDescent/Only-C1/SD-CG/HFTN-CG
REM
REM
REM
REM
REM
REM ./C.cell (11c1c37f851c82e70ff6c80c92926a4b)
REM
REM compiler GCC version 9.2.1 20190827 (Red Hat 9.2.1-1)
REM options -cpp -mtune=generic -march=x86-64 -g -O0 -fpre-include=/usr/include/finclude/math-vector-fortran.h
REM seed -920166615 -1827145234 -1424894447 36950136 -1101375003 -216311974 1308548311 588799990 -436776595 1099909546 -356575047 1113012929 -1206040182 658016003 1050841587 1375736596 -1577449607 -1365813760 -368540620 1675086067 383268547 -1805342062 1136536210 -258853255 848730691 1842553744 1529202358 436621727 1375531227 1686731161 -1610362917 395155366 -1977973316
REM
CELL 1.54180   50.00000   50.00000   50.00000   90.00000   90.00000   90.00000
LATT -1
SFAC C  
C      1  0.5401440000000  0.4504380000000  0.4757850000000 1.0
C      1  0.5160550000000  0.5120310000000  0.5258410000000 1.0
C      1  0.4631080000000  0.4797330000000  0.3941290000000 1.0
C      1  0.4447890000000  0.4826550000000  0.4801600000000 1.0
C      1  0.5123250000000  0.4632490000000  0.3949970000000 1.0
C      1  0.5910520000000  0.4943060000000  0.5566980000000 1.0
C      1  0.5550920000000  0.5606730000000  0.5463820000000 1.0
C      1  0.3935070000000  0.4894750000000  0.4595210000000 1.0
C      1  0.4361810000000  0.5113790000000  0.5600440000000 1.0
C      1  0.5147290000000  0.4936240000000  0.5893770000000 1.0
C      1  0.4705460000000  0.5188870000000  0.4206440000000 1.0
C      1  0.5464090000000  0.5975260000000  0.5126530000000 1.0
C      1  0.4683400000000  0.5874830000000  0.5817730000000 1.0
C      1  0.5606040000000  0.4463410000000  0.4303100000000 1.0
C      1  0.4678720000000  0.4657710000000  0.5983480000000 1.0
C      1  0.5738540000000  0.5549810000000  0.4463190000000 1.0
C      1  0.5539320000000  0.5696040000000  0.5167730000000 1.0
C      1  0.4422790000000  0.5121280000000  0.4332450000000 1.0
C      1  0.4351890000000  0.5914970000000  0.5033100000000 1.0
C      1  0.4145510000000  0.4387190000000  0.4895250000000 1.0
C      1  0.4647850000000  0.4457610000000  0.5306560000000 1.0
C      1  0.4534560000000  0.4361520000000  0.5581260000000 1.0
C      1  0.5908760000000  0.4680350000000  0.4865270000000 1.0
C      1  0.4807160000000  0.5474390000000  0.5628320000000 1.0
C      1  0.6007170000000  0.5196350000000  0.4830210000000 1.0
C      1  0.5766950000000  0.4268290000000  0.5310680000000 1.0
C      1  0.5033620000000  0.4020200000000  0.5085440000000 1.0
C      1  0.4155590000000  0.5624790000000  0.4600790000000 1.0
C      1  0.4360780000000  0.5355440000000  0.5786580000000 1.0
C      1  0.4146920000000  0.4734830000000  0.4501580000000 1.0
C      1  0.4059350000000  0.5239700000000  0.4911060000000 1.0
C      1  0.6003480000000  0.4676730000000  0.5159800000000 1.0
C      1  0.4874930000000  0.5488900000000  0.4553450000000 1.0
C      1  0.5194530000000  0.4043370000000  0.5339250000000 1.0
C      1  0.4404010000000  0.4317130000000  0.4469300000000 1.0
C      1  0.5312120000000  0.5375970000000  0.4189730000000 1.0
C      1  0.6013440000000  0.4932980000000  0.4697000000000 1.0
C      1  0.5486830000000  0.4776700000000  0.5141380000000 1.0
C      1  0.4580140000000  0.5699210000000  0.5597460000000 1.0
C      1  0.4295690000000  0.4850380000000  0.4272420000000 1.0
C      1  0.4257370000000  0.4264490000000  0.5483310000000 1.0
C      1  0.4580100000000  0.5383520000000  0.5990790000000 1.0
C      1  0.5281750000000  0.5353040000000  0.5842110000000 1.0
C      1  0.4105040000000  0.4468810000000  0.5363010000000 1.0
C      1  0.5749620000000  0.4205930000000  0.4718630000000 1.0
C      1  0.5988690000000  0.5173600000000  0.5122220000000 1.0
C      1  0.5548740000000  0.4935370000000  0.4632880000000 1.0
C      1  0.4492260000000  0.5118390000000  0.4671980000000 1.0
C      1  0.5308440000000  0.5112950000000  0.4023490000000 1.0
C      1  0.4697960000000  0.4652790000000  0.4786110000000 1.0
C      1  0.5536640000000  0.5774050000000  0.4413930000000 1.0
C      1  0.4260740000000  0.4060980000000  0.5276880000000 1.0
C      1  0.5083040000000  0.6087570000000  0.4367260000000 1.0
C      1  0.5269620000000  0.4242990000000  0.5847910000000 1.0
C      1  0.4741240000000  0.4156890000000  0.5675380000000 1.0
C      1  0.4577390000000  0.4204670000000  0.5120440000000 1.0
C      1  0.4112100000000  0.4585040000000  0.5106480000000 1.0
C      1  0.5242970000000  0.6117020000000  0.5023500000000 1.0
C      1  0.4908640000000  0.5507330000000  0.5045310000000 1.0
C      1  0.4874880000000  0.5030780000000  0.5317740000000 1.0
C      1  0.4222220000000  0.4127620000000  0.4998440000000 1.0
C      1  0.5373590000000  0.4470570000000  0.5998150000000 1.0
C      1  0.4650440000000  0.5469300000000  0.5160390000000 1.0
C      1  0.4895030000000  0.6145660000000  0.4566530000000 1.0
C      1  0.5034140000000  0.5934330000000  0.5466340000000 1.0
C      1  0.5579330000000  0.5323580000000  0.4341220000000 1.0
C      1  0.5074960000000  0.4885260000000  0.4829550000000 1.0
C      1  0.4483500000000  0.5389700000000  0.4859890000000 1.0
C      1  0.4308880000000  0.4811600000000  0.5082900000000 1.0
C      1  0.5808530000000  0.4891970000000  0.4471380000000 1.0
C      1  0.5083490000000  0.4918700000000  0.4014560000000 1.0
C      1  0.5019710000000  0.5352820000000  0.5965670000000 1.0
C      1  0.4463510000000  0.4669320000000  0.4121060000000 1.0
C      1  0.5552370000000  0.4948010000000  0.4063130000000 1.0
C      1  0.5926130000000  0.4439880000000  0.4671830000000 1.0
C      1  0.5245210000000  0.6092730000000  0.4720860000000 1.0
C      1  0.4296180000000  0.5605700000000  0.5632240000000 1.0
C      1  0.5282890000000  0.4907210000000  0.4406670000000 1.0
C      1  0.4990420000000  0.6010730000000  0.5151370000000 1.0
C      1  0.5130420000000  0.4613720000000  0.4697380000000 1.0
C      1  0.4827140000000  0.5198800000000  0.4505190000000 1.0
C      1  0.4936590000000  0.5782120000000  0.4936990000000 1.0
C      1  0.4954820000000  0.5567880000000  0.4272650000000 1.0
C      1  0.5755580000000  0.5409260000000  0.5493330000000 1.0
C      1  0.4062400000000  0.5381160000000  0.4454770000000 1.0
C      1  0.4201210000000  0.5496680000000  0.4876210000000 1.0
C      1  0.6022480000000  0.4938520000000  0.5288260000000 1.0
C      1  0.5671780000000  0.5136670000000  0.5610560000000 1.0
C      1  0.4744400000000  0.4922620000000  0.6045800000000 1.0
C      1  0.5442400000000  0.4471120000000  0.5243160000000 1.0
C      1  0.4709420000000  0.5477060000000  0.4109750000000 1.0
C      1  0.5281680000000  0.3924820000000  0.4808960000000 1.0
C      1  0.5461620000000  0.4125870000000  0.5680940000000 1.0
C      1  0.5060620000000  0.5645470000000  0.5530920000000 1.0
C      1  0.4173640000000  0.5076740000000  0.5127030000000 1.0
C      1  0.4756350000000  0.6188890000000  0.5127070000000 1.0
C      1  0.5105200000000  0.5092730000000  0.4593900000000 1.0
C      1  0.4190640000000  0.5514450000000  0.5369510000000 1.0
C      1  0.4570420000000  0.4118330000000  0.4584890000000 1.0
C      1  0.5435870000000  0.5107440000000  0.5872730000000 1.0
C      1  0.4800590000000  0.4878500000000  0.4966000000000 1.0
C      1  0.4712520000000  0.5278010000000  0.5387000000000 1.0
C      1  0.4234350000000  0.4485290000000  0.4630510000000 1.0
C      1  0.5079950000000  0.4672720000000  0.5628480000000 1.0
C      1  0.5458340000000  0.3951210000000  0.5249270000000 1.0
C      1  0.4234390000000  0.5225090000000  0.5361850000000 1.0
C      1  0.4564430000000  0.4451320000000  0.4274560000000 1.0
C      1  0.4798640000000  0.4299230000000  0.4189670000000 1.0
C      1  0.4051990000000  0.5144380000000  0.4640200000000 1.0
C      1  0.4759120000000  0.3975650000000  0.5195420000000 1.0
C      1  0.4811780000000  0.4110020000000  0.4422210000000 1.0
C      1  0.4977710000000  0.4285500000000  0.5801890000000 1.0
C      1  0.5072480000000  0.5851410000000  0.4203980000000 1.0
C      1  0.5257320000000  0.4945910000000  0.5045030000000 1.0
C      1  0.4950610000000  0.4468300000000  0.5267040000000 1.0
C      1  0.5842640000000  0.4661740000000  0.5626910000000 1.0
C      1  0.5842840000000  0.4588030000000  0.4416230000000 1.0
C      1  0.4808300000000  0.5000520000000  0.3999410000000 1.0
C      1  0.5422070000000  0.5017720000000  0.5446990000000 1.0
C      1  0.5790620000000  0.5597010000000  0.5028150000000 1.0
C      1  0.5305370000000  0.5331530000000  0.4623530000000 1.0
C      1  0.5197350000000  0.4366000000000  0.5430120000000 1.0
C      1  0.5908600000000  0.5421940000000  0.5239400000000 1.0
C      1  0.4419090000000  0.5722270000000  0.4468340000000 1.0
C      1  0.5538930000000  0.5213860000000  0.4761400000000 1.0
C      1  0.5484470000000  0.4069850000000  0.4965200000000 1.0
C      1  0.4641210000000  0.6021430000000  0.4580660000000 1.0
C      1  0.5593650000000  0.4723860000000  0.4853970000000 1.0
C      1  0.5143760000000  0.5403680000000  0.5172680000000 1.0
C      1  0.4550690000000  0.4857490000000  0.5573730000000 1.0
C      1  0.5574210000000  0.4658920000000  0.5746080000000 1.0
C      1  0.4919950000000  0.4495880000000  0.5995690000000 1.0
C      1  0.5342500000000  0.4341290000000  0.4992130000000 1.0
C      1  0.5059910000000  0.4465160000000  0.4184350000000 1.0
C      1  0.4656900000000  0.5844520000000  0.4816570000000 1.0
C      1  0.4786400000000  0.4359870000000  0.4789310000000 1.0
C      1  0.5779130000000  0.5406330000000  0.4762950000000 1.0
C      1  0.4548880000000  0.6013580000000  0.5210680000000 1.0
C      1  0.5295250000000  0.4078740000000  0.4562770000000 1.0
C      1  0.4875630000000  0.6032200000000  0.5682400000000 1.0
C      1  0.4437810000000  0.5582070000000  0.4196540000000 1.0
C      1  0.5738460000000  0.5082150000000  0.4246090000000 1.0
C      1  0.4535650000000  0.4748820000000  0.5286570000000 1.0
C      1  0.5446030000000  0.4673630000000  0.4146620000000 1.0
C      1  0.4785690000000  0.5179670000000  0.5952920000000 1.0
C      1  0.5234490000000  0.5610610000000  0.4767760000000 1.0
C      1  0.5022250000000  0.4317280000000  0.5012460000000 1.0
C      1  0.4253150000000  0.5346290000000  0.4234210000000 1.0
C      1  0.4874670000000  0.4918520000000  0.5609790000000 1.0
C      1  0.4194210000000  0.5678500000000  0.5108570000000 1.0
C      1  0.5862070000000  0.4527830000000  0.5364160000000 1.0
C      1  0.5354340000000  0.5516530000000  0.5023280000000 1.0
C      1  0.5046720000000  0.4210160000000  0.4545950000000 1.0
C      1  0.5512190000000  0.4298960000000  0.4558790000000 1.0
C      1  0.4616920000000  0.5586470000000  0.4669660000000 1.0
C      1  0.4657790000000  0.5759420000000  0.5312350000000 1.0
C      1  0.5094230000000  0.4663450000000  0.4412480000000 1.0
C      1  0.5157580000000  0.4662350000000  0.6059420000000 1.0
C      1  0.5400360000000  0.5838070000000  0.4672950000000 1.0
C      1  0.4504220000000  0.4617020000000  0.5749680000000 1.0
C      1  0.5316110000000  0.5551970000000  0.5629680000000 1.0
C      1  0.4780880000000  0.3964160000000  0.5475230000000 1.0
C      1  0.5622440000000  0.4069900000000  0.5455240000000 1.0
C      1  0.4755870000000  0.5637930000000  0.5998920000000 1.0
C      1  0.5366780000000  0.4750190000000  0.5562960000000 1.0
C      1  0.5334640000000  0.5690960000000  0.4187590000000 1.0
END
