TITL C-951336-9012-7 -0.000679404511031412 125000 -116.803071251352 0 0 22 (C1) n - 1
REM
REM in /home/bkarasulu/work/CARBON/AIRSS/Generating-Clusters/EDIP-Nigel-Params/with-SteepDescent/Only-C1/SD-CG/HFTN-CG
REM
REM
REM
REM
REM
REM ./C.cell (11c1c37f851c82e70ff6c80c92926a4b)
REM
REM compiler GCC version 9.2.1 20190827 (Red Hat 9.2.1-1)
REM options -cpp -mtune=generic -march=x86-64 -g -O0 -fpre-include=/usr/include/finclude/math-vector-fortran.h
REM seed 60483748 454251641 1100306578 1512381968 -1225505748 1007038932 958392910 1653444325 -2137764357 1635567424 1451848113 1333221415 397264283 -952984180 345410134 410487118 -2078937943 1150104312 -1331216244 -1759373586 -1933231867 9887077 -902264534 -1190269145 795508735 1355924327 634212518 1658624001 -1729494873 2078685701 -853935444 -18276306 -557611146
REM
CELL 1.54180   50.00000   50.00000   50.00000   90.00000   90.00000   90.00000
LATT -1
SFAC C  
C      1  0.5565780000000  0.4404780000000  0.5215790000000 1.0
C      1  0.4562730000000  0.4717590000000  0.4875030000000 1.0
C      1  0.4905020000000  0.4653050000000  0.5346950000000 1.0
C      1  0.5175630000000  0.5394110000000  0.5242610000000 1.0
C      1  0.5327600000000  0.5192850000000  0.4955820000000 1.0
C      1  0.5214830000000  0.4991400000000  0.4765900000000 1.0
C      1  0.5106980000000  0.4663690000000  0.5157020000000 1.0
C      1  0.4778660000000  0.5107360000000  0.4683970000000 1.0
C      1  0.5040120000000  0.5130230000000  0.4577720000000 1.0
C      1  0.5618960000000  0.4739300000000  0.4511130000000 1.0
C      1  0.5342770000000  0.5173480000000  0.5231720000000 1.0
C      1  0.5424500000000  0.4861510000000  0.4625040000000 1.0
C      1  0.4645910000000  0.5350620000000  0.4774760000000 1.0
C      1  0.4670190000000  0.5094630000000  0.5442340000000 1.0
C      1  0.4769790000000  0.4885270000000  0.4874330000000 1.0
C      1  0.4746350000000  0.4832310000000  0.5467160000000 1.0
C      1  0.4711730000000  0.5236250000000  0.5199770000000 1.0
C      1  0.4518150000000  0.5342310000000  0.5025130000000 1.0
C      1  0.5338670000000  0.4518960000000  0.5185530000000 1.0
C      1  0.5040050000000  0.4787430000000  0.4904280000000 1.0
C      1  0.4585850000000  0.5540270000000  0.4599360000000 1.0
C      1  0.4909730000000  0.5382600000000  0.5338620000000 1.0
END
