TITL C-951346-9544-154 -1.59907655116074e-06 125000 -962.768582189652 0 0 154 (C1) n - 1
REM
REM in /home/bkarasulu/work/CARBON/AIRSS/Generating-Clusters/EDIP-Nigel-Params/with-SteepDescent/Only-C1/SD-CG/HFTN-CG
REM
REM
REM
REM
REM
REM ./C.cell (11c1c37f851c82e70ff6c80c92926a4b)
REM
REM compiler GCC version 9.2.1 20190827 (Red Hat 9.2.1-1)
REM options -cpp -mtune=generic -march=x86-64 -g -O0 -fpre-include=/usr/include/finclude/math-vector-fortran.h
REM seed -1467718665 1791834267 1124114823 567251061 -1120882231 2106387281 93483880 172426303 -787324196 393815559 809382126 1249032260 1741734956 -1725679913 1465826696 1561643436 1182147559 -1546265454 1874288988 1557878095 527589349 -888855937 -1699942058 -883652363 -1587319549 96340009 -859315120 -631301831 -958509603 -405635406 -343008071 196795548 1945455901
REM
CELL 1.54180   50.00000   50.00000   50.00000   90.00000   90.00000   90.00000
LATT -1
SFAC C  
C      1  0.5564820000000  0.5338480000000  0.4389550000000 1.0
C      1  0.4905970000000  0.5068580000000  0.4921470000000 1.0
C      1  0.5436090000000  0.5213730000000  0.5571430000000 1.0
C      1  0.4976180000000  0.5741840000000  0.5751660000000 1.0
C      1  0.5463790000000  0.6007670000000  0.5291090000000 1.0
C      1  0.4685830000000  0.5144460000000  0.5134600000000 1.0
C      1  0.5407490000000  0.5209790000000  0.5868490000000 1.0
C      1  0.5047180000000  0.4888410000000  0.5594750000000 1.0
C      1  0.5856190000000  0.5666100000000  0.4598110000000 1.0
C      1  0.5780810000000  0.5396830000000  0.4576810000000 1.0
C      1  0.5212120000000  0.5658970000000  0.4130730000000 1.0
C      1  0.4850310000000  0.5707410000000  0.4454680000000 1.0
C      1  0.4535200000000  0.4672970000000  0.4498180000000 1.0
C      1  0.5469620000000  0.5803450000000  0.4836880000000 1.0
C      1  0.4288470000000  0.5540930000000  0.4355660000000 1.0
C      1  0.5064580000000  0.3959460000000  0.4756310000000 1.0
C      1  0.4734930000000  0.5633860000000  0.4188100000000 1.0
C      1  0.4636320000000  0.4698680000000  0.6033740000000 1.0
C      1  0.5263160000000  0.4431030000000  0.5760600000000 1.0
C      1  0.4875320000000  0.5208930000000  0.4175980000000 1.0
C      1  0.4984590000000  0.4450280000000  0.5848490000000 1.0
C      1  0.4449340000000  0.5046160000000  0.4446780000000 1.0
C      1  0.4280720000000  0.4233480000000  0.4954490000000 1.0
C      1  0.4189270000000  0.4715780000000  0.4337510000000 1.0
C      1  0.4944590000000  0.4950400000000  0.4013410000000 1.0
C      1  0.5468790000000  0.4206460000000  0.4908750000000 1.0
C      1  0.6062480000000  0.4794110000000  0.5268220000000 1.0
C      1  0.5523940000000  0.4854990000000  0.4780220000000 1.0
C      1  0.5764010000000  0.4770190000000  0.5361090000000 1.0
C      1  0.5871430000000  0.5046230000000  0.4961170000000 1.0
C      1  0.5896420000000  0.5712110000000  0.5256900000000 1.0
C      1  0.5496300000000  0.4746420000000  0.5759090000000 1.0
C      1  0.4437250000000  0.4567770000000  0.5885930000000 1.0
C      1  0.5506020000000  0.4567070000000  0.4298470000000 1.0
C      1  0.5164680000000  0.5135940000000  0.5443290000000 1.0
C      1  0.4395390000000  0.4624110000000  0.5586020000000 1.0
C      1  0.5369130000000  0.3965560000000  0.4741610000000 1.0
C      1  0.4150210000000  0.5025370000000  0.4397430000000 1.0
C      1  0.5228920000000  0.5537910000000  0.5210710000000 1.0
C      1  0.5138450000000  0.3905080000000  0.5218750000000 1.0
C      1  0.4809500000000  0.4694270000000  0.4078890000000 1.0
C      1  0.5412530000000  0.5078070000000  0.4045260000000 1.0
C      1  0.4719090000000  0.4337580000000  0.4832240000000 1.0
C      1  0.4193340000000  0.4719610000000  0.4780250000000 1.0
C      1  0.4687200000000  0.4211200000000  0.4367660000000 1.0
C      1  0.5114190000000  0.4136090000000  0.5389910000000 1.0
C      1  0.5133800000000  0.5796610000000  0.4411120000000 1.0
C      1  0.5877210000000  0.5236370000000  0.5405640000000 1.0
C      1  0.4023730000000  0.4709340000000  0.5250190000000 1.0
C      1  0.4792270000000  0.4776070000000  0.5464540000000 1.0
C      1  0.4838590000000  0.4120340000000  0.5505110000000 1.0
C      1  0.5403180000000  0.4089270000000  0.4470720000000 1.0
C      1  0.4215060000000  0.5467470000000  0.5611290000000 1.0
C      1  0.6071100000000  0.4648890000000  0.4993050000000 1.0
C      1  0.4203980000000  0.5500330000000  0.5299760000000 1.0
C      1  0.5536890000000  0.4349920000000  0.4495840000000 1.0
C      1  0.5108480000000  0.4393090000000  0.5218850000000 1.0
C      1  0.5753020000000  0.5831520000000  0.4798620000000 1.0
C      1  0.5226340000000  0.4867190000000  0.3981380000000 1.0
C      1  0.4804260000000  0.4220190000000  0.5784570000000 1.0
C      1  0.5429250000000  0.5701780000000  0.5671030000000 1.0
C      1  0.4440960000000  0.5730170000000  0.4755320000000 1.0
C      1  0.4445640000000  0.4706090000000  0.5001660000000 1.0
C      1  0.4552300000000  0.5871390000000  0.5382770000000 1.0
C      1  0.4316290000000  0.5486910000000  0.4633790000000 1.0
C      1  0.5471360000000  0.5057470000000  0.4331790000000 1.0
C      1  0.5334150000000  0.4193550000000  0.5589560000000 1.0
C      1  0.5010260000000  0.6137950000000  0.4669180000000 1.0
C      1  0.4885140000000  0.5971120000000  0.4858420000000 1.0
C      1  0.4053970000000  0.5404010000000  0.4727790000000 1.0
C      1  0.4719970000000  0.4609100000000  0.4964050000000 1.0
C      1  0.5302850000000  0.4608550000000  0.5292400000000 1.0
C      1  0.5229000000000  0.5275160000000  0.4989460000000 1.0
C      1  0.4280580000000  0.4275870000000  0.4651080000000 1.0
C      1  0.5469720000000  0.5499480000000  0.5447070000000 1.0
C      1  0.4490300000000  0.5466670000000  0.4181960000000 1.0
C      1  0.5039300000000  0.5911930000000  0.5526400000000 1.0
C      1  0.5264640000000  0.4679870000000  0.5571480000000 1.0
C      1  0.4981640000000  0.5413430000000  0.5385110000000 1.0
C      1  0.5806170000000  0.4486490000000  0.4966400000000 1.0
C      1  0.5005500000000  0.4498750000000  0.4166450000000 1.0
C      1  0.4585970000000  0.5418530000000  0.5938620000000 1.0
C      1  0.5647950000000  0.4813450000000  0.4362840000000 1.0
C      1  0.5053580000000  0.4950800000000  0.5901380000000 1.0
C      1  0.4998480000000  0.4251810000000  0.4765520000000 1.0
C      1  0.5259930000000  0.5065840000000  0.5180520000000 1.0
C      1  0.4817600000000  0.5995950000000  0.5352890000000 1.0
C      1  0.5332530000000  0.5947130000000  0.5531990000000 1.0
C      1  0.5704510000000  0.4520570000000  0.5523370000000 1.0
C      1  0.5210240000000  0.5611060000000  0.5863580000000 1.0
C      1  0.6047620000000  0.5098890000000  0.5208190000000 1.0
C      1  0.4911890000000  0.4691720000000  0.6001640000000 1.0
C      1  0.4124520000000  0.4520870000000  0.4570100000000 1.0
C      1  0.4567010000000  0.5189290000000  0.5768120000000 1.0
C      1  0.4625880000000  0.5024200000000  0.5422730000000 1.0
C      1  0.5123690000000  0.6089510000000  0.4424010000000 1.0
C      1  0.5579000000000  0.4169220000000  0.5174410000000 1.0
C      1  0.5584260000000  0.4259970000000  0.5444280000000 1.0
C      1  0.4572380000000  0.4160860000000  0.5044550000000 1.0
C      1  0.5842080000000  0.4778720000000  0.4569300000000 1.0
C      1  0.4563730000000  0.5635980000000  0.5564960000000 1.0
C      1  0.4956700000000  0.5492700000000  0.4044100000000 1.0
C      1  0.4988890000000  0.5217780000000  0.4456890000000 1.0
C      1  0.4647080000000  0.4282450000000  0.5332950000000 1.0
C      1  0.4208100000000  0.4523830000000  0.5067250000000 1.0
C      1  0.4410690000000  0.4336830000000  0.5510100000000 1.0
C      1  0.5269370000000  0.4683400000000  0.4831870000000 1.0
C      1  0.4780980000000  0.5420960000000  0.5163170000000 1.0
C      1  0.5083900000000  0.4771160000000  0.4627710000000 1.0
C      1  0.4868930000000  0.5510290000000  0.4890110000000 1.0
C      1  0.5312310000000  0.5716650000000  0.4622940000000 1.0
C      1  0.4203530000000  0.5189310000000  0.5182340000000 1.0
C      1  0.4169710000000  0.4781430000000  0.5494910000000 1.0
C      1  0.5650580000000  0.4745710000000  0.5061380000000 1.0
C      1  0.4505040000000  0.4267480000000  0.5815270000000 1.0
C      1  0.4938010000000  0.4232700000000  0.4243580000000 1.0
C      1  0.5363940000000  0.5344810000000  0.3956190000000 1.0
C      1  0.4297760000000  0.5194520000000  0.5669900000000 1.0
C      1  0.4557840000000  0.4367350000000  0.4576550000000 1.0
C      1  0.5159340000000  0.4082770000000  0.4327460000000 1.0
C      1  0.5336420000000  0.5934240000000  0.5055000000000 1.0
C      1  0.4576580000000  0.5191050000000  0.4208760000000 1.0
C      1  0.5903950000000  0.5856150000000  0.5030590000000 1.0
C      1  0.5680550000000  0.5040430000000  0.5488620000000 1.0
C      1  0.3974280000000  0.4917340000000  0.4827420000000 1.0
C      1  0.4819540000000  0.4539010000000  0.5253820000000 1.0
C      1  0.5443080000000  0.5169730000000  0.4778750000000 1.0
C      1  0.4829300000000  0.5514590000000  0.5652630000000 1.0
C      1  0.4842130000000  0.4816570000000  0.4780220000000 1.0
C      1  0.4306730000000  0.5035850000000  0.5434690000000 1.0
C      1  0.4431630000000  0.5147360000000  0.4979580000000 1.0
C      1  0.5273100000000  0.4600800000000  0.4113900000000 1.0
C      1  0.4684190000000  0.3893520000000  0.5030040000000 1.0
C      1  0.3996320000000  0.5137680000000  0.4633320000000 1.0
C      1  0.5216380000000  0.4805960000000  0.5098720000000 1.0
C      1  0.5748560000000  0.4366320000000  0.4698130000000 1.0
C      1  0.4961550000000  0.3838590000000  0.5007150000000 1.0
C      1  0.4745940000000  0.5737950000000  0.4739290000000 1.0
C      1  0.4548200000000  0.4694200000000  0.4201130000000 1.0
C      1  0.4359490000000  0.5737570000000  0.5190210000000 1.0
C      1  0.4297700000000  0.5865410000000  0.4951050000000 1.0
C      1  0.4400910000000  0.5628380000000  0.5824210000000 1.0
C      1  0.5203980000000  0.5025450000000  0.4510760000000 1.0
C      1  0.5366390000000  0.4934250000000  0.5953970000000 1.0
C      1  0.5160520000000  0.5327670000000  0.5928800000000 1.0
C      1  0.5716980000000  0.5275190000000  0.4832460000000 1.0
C      1  0.5214860000000  0.4376580000000  0.4922050000000 1.0
C      1  0.4816450000000  0.5276680000000  0.4707240000000 1.0
C      1  0.3968070000000  0.4983270000000  0.5113910000000 1.0
C      1  0.5494170000000  0.5508040000000  0.4157090000000 1.0
C      1  0.4498180000000  0.5237960000000  0.4689000000000 1.0
C      1  0.5054480000000  0.5856500000000  0.5087940000000 1.0
C      1  0.5751000000000  0.5491460000000  0.5340290000000 1.0
C      1  0.6023820000000  0.4865540000000  0.4776360000000 1.0
END
