TITL C-951343-2256-740 -4.06937892657026e-06 125000 -1015.83715270102 0 0 163 (C1) n - 1
REM
REM in /home/bkarasulu/work/CARBON/AIRSS/Generating-Clusters/EDIP-Nigel-Params/with-SteepDescent/Only-C1/SD-CG/HFTN-CG
REM
REM
REM
REM
REM
REM ./C.cell (11c1c37f851c82e70ff6c80c92926a4b)
REM
REM compiler GCC version 9.2.1 20190827 (Red Hat 9.2.1-1)
REM options -cpp -mtune=generic -march=x86-64 -g -O0 -fpre-include=/usr/include/finclude/math-vector-fortran.h
REM seed -1709902136 -395880288 -1480536879 -1303803635 -678434048 -1621697789 -1004312258 1936195690 -1476737007 -2013239005 -2132186909 -1860088431 1940106971 -1296693140 556161179 -790446182 -1245210651 401391123 -601035803 964061444 1158074404 1085528207 -1854378390 1276886025 193732284 2005082817 -844984498 -1294845718 -1277639793 1676100201 2141887587 -1187796320 1850360183
REM
CELL 1.54180   50.00000   50.00000   50.00000   90.00000   90.00000   90.00000
LATT -1
SFAC C  
C      1  0.5159210000000  0.4039000000000  0.4916000000000 1.0
C      1  0.5983980000000  0.4571300000000  0.4915650000000 1.0
C      1  0.5362250000000  0.5941870000000  0.5371010000000 1.0
C      1  0.4299530000000  0.5708290000000  0.5019030000000 1.0
C      1  0.5452080000000  0.5075540000000  0.4398620000000 1.0
C      1  0.4517060000000  0.5154650000000  0.6066120000000 1.0
C      1  0.4252620000000  0.4990910000000  0.4245540000000 1.0
C      1  0.5777640000000  0.5866960000000  0.5133900000000 1.0
C      1  0.5412240000000  0.5386220000000  0.5020010000000 1.0
C      1  0.5374370000000  0.4712200000000  0.3892990000000 1.0
C      1  0.5431800000000  0.5267080000000  0.5483230000000 1.0
C      1  0.5363930000000  0.5760680000000  0.4910420000000 1.0
C      1  0.4150560000000  0.4795440000000  0.5567670000000 1.0
C      1  0.5575380000000  0.4911920000000  0.3891670000000 1.0
C      1  0.4396730000000  0.4702560000000  0.4988990000000 1.0
C      1  0.3997550000000  0.4670780000000  0.4499090000000 1.0
C      1  0.4318100000000  0.5629350000000  0.5522650000000 1.0
C      1  0.4499910000000  0.5902530000000  0.5025080000000 1.0
C      1  0.5982190000000  0.5004850000000  0.4715210000000 1.0
C      1  0.4991780000000  0.5198380000000  0.4544220000000 1.0
C      1  0.4846440000000  0.5376320000000  0.5005900000000 1.0
C      1  0.5077590000000  0.4791540000000  0.5285270000000 1.0
C      1  0.4763440000000  0.5963160000000  0.5086760000000 1.0
C      1  0.4250740000000  0.5502220000000  0.4566910000000 1.0
C      1  0.4161710000000  0.4342350000000  0.5328280000000 1.0
C      1  0.4675070000000  0.4666340000000  0.6135940000000 1.0
C      1  0.4963650000000  0.4193810000000  0.4639760000000 1.0
C      1  0.4600570000000  0.5716370000000  0.4280810000000 1.0
C      1  0.4779560000000  0.4648350000000  0.4212760000000 1.0
C      1  0.5108450000000  0.4810590000000  0.3896570000000 1.0
C      1  0.5791620000000  0.4366750000000  0.5035880000000 1.0
C      1  0.5149050000000  0.5108110000000  0.4305150000000 1.0
C      1  0.4950800000000  0.5900500000000  0.4863730000000 1.0
C      1  0.4585000000000  0.5293910000000  0.5442400000000 1.0
C      1  0.5847940000000  0.5318960000000  0.5722360000000 1.0
C      1  0.5394940000000  0.5297530000000  0.5980160000000 1.0
C      1  0.4667250000000  0.4914710000000  0.5985320000000 1.0
C      1  0.4682310000000  0.3829970000000  0.5052010000000 1.0
C      1  0.4370970000000  0.5473790000000  0.4835730000000 1.0
C      1  0.5785760000000  0.4810420000000  0.4293590000000 1.0
C      1  0.5876710000000  0.5728140000000  0.4891300000000 1.0
C      1  0.5869120000000  0.5310950000000  0.5204510000000 1.0
C      1  0.5556810000000  0.4864100000000  0.5824840000000 1.0
C      1  0.5337250000000  0.4712000000000  0.4344860000000 1.0
C      1  0.5442260000000  0.4988940000000  0.4704910000000 1.0
C      1  0.5352750000000  0.5086660000000  0.4965220000000 1.0
C      1  0.4032380000000  0.4497190000000  0.4730500000000 1.0
C      1  0.5573480000000  0.5847820000000  0.5562600000000 1.0
C      1  0.5460270000000  0.4557710000000  0.5107440000000 1.0
C      1  0.5558130000000  0.4569720000000  0.5738180000000 1.0
C      1  0.5800840000000  0.5734160000000  0.5403550000000 1.0
C      1  0.4375650000000  0.4468460000000  0.4220510000000 1.0
C      1  0.5323570000000  0.5016510000000  0.5959330000000 1.0
C      1  0.4008870000000  0.5110650000000  0.4387980000000 1.0
C      1  0.5716890000000  0.5267080000000  0.4194550000000 1.0
C      1  0.5958830000000  0.5458720000000  0.5465750000000 1.0
C      1  0.4814320000000  0.4095800000000  0.5324730000000 1.0
C      1  0.4910190000000  0.5395980000000  0.4059730000000 1.0
C      1  0.4991040000000  0.4596720000000  0.5497600000000 1.0
C      1  0.5179230000000  0.5502910000000  0.5950050000000 1.0
C      1  0.5038320000000  0.5541020000000  0.5689070000000 1.0
C      1  0.3940650000000  0.5476240000000  0.5282640000000 1.0
C      1  0.5256250000000  0.5946040000000  0.4484620000000 1.0
C      1  0.5922160000000  0.5010130000000  0.5212790000000 1.0
C      1  0.4740820000000  0.5133330000000  0.4080730000000 1.0
C      1  0.4303680000000  0.5185910000000  0.4943330000000 1.0
C      1  0.4988770000000  0.5091580000000  0.5600250000000 1.0
C      1  0.5840490000000  0.5014020000000  0.5721670000000 1.0
C      1  0.5995760000000  0.4816080000000  0.4493420000000 1.0
C      1  0.4588630000000  0.4533750000000  0.4045740000000 1.0
C      1  0.5793840000000  0.4874810000000  0.5447540000000 1.0
C      1  0.5321720000000  0.4727220000000  0.4641840000000 1.0
C      1  0.5121560000000  0.6059300000000  0.4706030000000 1.0
C      1  0.3954220000000  0.4916020000000  0.5090510000000 1.0
C      1  0.4521910000000  0.5136300000000  0.4302610000000 1.0
C      1  0.4979810000000  0.3926980000000  0.5118110000000 1.0
C      1  0.5491110000000  0.4966930000000  0.5450870000000 1.0
C      1  0.5963250000000  0.4863110000000  0.4966080000000 1.0
C      1  0.5771950000000  0.5830250000000  0.4624060000000 1.0
C      1  0.5431870000000  0.4537140000000  0.4134060000000 1.0
C      1  0.4992120000000  0.4692260000000  0.5795270000000 1.0
C      1  0.4215400000000  0.5377710000000  0.5663280000000 1.0
C      1  0.4020970000000  0.5342820000000  0.4553870000000 1.0
C      1  0.4676520000000  0.4621600000000  0.4491860000000 1.0
C      1  0.4678970000000  0.4088960000000  0.4579220000000 1.0
C      1  0.4461030000000  0.4301800000000  0.4475640000000 1.0
C      1  0.4570760000000  0.4836580000000  0.5702210000000 1.0
C      1  0.5724020000000  0.4536880000000  0.4209750000000 1.0
C      1  0.5154180000000  0.4351970000000  0.5536990000000 1.0
C      1  0.5117820000000  0.5324990000000  0.5488140000000 1.0
C      1  0.4064830000000  0.4636810000000  0.5010100000000 1.0
C      1  0.5897060000000  0.5281260000000  0.4687270000000 1.0
C      1  0.4531990000000  0.3982260000000  0.5300130000000 1.0
C      1  0.4231740000000  0.4705130000000  0.4327810000000 1.0
C      1  0.3882180000000  0.4922060000000  0.4563010000000 1.0
C      1  0.4550340000000  0.4524720000000  0.5629720000000 1.0
C      1  0.4243120000000  0.4293320000000  0.4684490000000 1.0
C      1  0.4619090000000  0.4704520000000  0.5187110000000 1.0
C      1  0.4594100000000  0.5912300000000  0.4485290000000 1.0
C      1  0.4810520000000  0.5449410000000  0.5291290000000 1.0
C      1  0.4256040000000  0.4510860000000  0.5549470000000 1.0
C      1  0.5033860000000  0.4984190000000  0.5866960000000 1.0
C      1  0.4671080000000  0.5494820000000  0.4796330000000 1.0
C      1  0.5112600000000  0.4150040000000  0.4416420000000 1.0
C      1  0.5467950000000  0.5765620000000  0.4616050000000 1.0
C      1  0.5496920000000  0.5957100000000  0.5100620000000 1.0
C      1  0.4000330000000  0.5275720000000  0.5476570000000 1.0
C      1  0.5576900000000  0.5380980000000  0.5254630000000 1.0
C      1  0.5167890000000  0.5580210000000  0.5077370000000 1.0
C      1  0.5043690000000  0.4730470000000  0.4726090000000 1.0
C      1  0.4325570000000  0.5169970000000  0.5855620000000 1.0
C      1  0.5321940000000  0.4398350000000  0.5787560000000 1.0
C      1  0.4830110000000  0.4435340000000  0.6040650000000 1.0
C      1  0.5187470000000  0.5322660000000  0.4105820000000 1.0
C      1  0.5766870000000  0.5422890000000  0.4446120000000 1.0
C      1  0.5552780000000  0.5388060000000  0.5737330000000 1.0
C      1  0.4155290000000  0.5663150000000  0.5275820000000 1.0
C      1  0.4446190000000  0.5455210000000  0.4348250000000 1.0
C      1  0.5745520000000  0.4310970000000  0.5327160000000 1.0
C      1  0.4601650000000  0.5723210000000  0.5558040000000 1.0
C      1  0.4885000000000  0.4984650000000  0.4709980000000 1.0
C      1  0.5350380000000  0.5513450000000  0.4229190000000 1.0
C      1  0.4917220000000  0.4162680000000  0.5600840000000 1.0
C      1  0.4892880000000  0.4497710000000  0.4657370000000 1.0
C      1  0.4726830000000  0.5030340000000  0.5490570000000 1.0
C      1  0.4545760000000  0.3951520000000  0.4807280000000 1.0
C      1  0.5805660000000  0.4367990000000  0.4453340000000 1.0
C      1  0.4818870000000  0.4917050000000  0.5214530000000 1.0
C      1  0.4009810000000  0.5112310000000  0.4869140000000 1.0
C      1  0.5575170000000  0.4292990000000  0.4638380000000 1.0
C      1  0.4781280000000  0.5407690000000  0.4531310000000 1.0
C      1  0.5698140000000  0.4565550000000  0.5479080000000 1.0
C      1  0.4210630000000  0.4913610000000  0.5819170000000 1.0
C      1  0.5460220000000  0.4522740000000  0.4793010000000 1.0
C      1  0.5305140000000  0.4331820000000  0.5272310000000 1.0
C      1  0.4103610000000  0.5017860000000  0.5346870000000 1.0
C      1  0.4357520000000  0.5156150000000  0.5243250000000 1.0
C      1  0.5929410000000  0.5438610000000  0.4928880000000 1.0
C      1  0.5473080000000  0.5496790000000  0.4484890000000 1.0
C      1  0.4306830000000  0.4099300000000  0.4893760000000 1.0
C      1  0.4336310000000  0.4161200000000  0.5178570000000 1.0
C      1  0.4936230000000  0.4891130000000  0.4115680000000 1.0
C      1  0.4740090000000  0.5523200000000  0.5710880000000 1.0
C      1  0.4712550000000  0.4309530000000  0.5786410000000 1.0
C      1  0.4414910000000  0.4937800000000  0.4806380000000 1.0
C      1  0.4872070000000  0.5666170000000  0.4191210000000 1.0
C      1  0.4712320000000  0.4516790000000  0.5392640000000 1.0
C      1  0.5897710000000  0.5684430000000  0.4410810000000 1.0
C      1  0.3945070000000  0.4448590000000  0.5196190000000 1.0
C      1  0.5473510000000  0.5673790000000  0.5763320000000 1.0
C      1  0.5131980000000  0.5737810000000  0.5357300000000 1.0
C      1  0.5455640000000  0.4007570000000  0.5011890000000 1.0
C      1  0.5084980000000  0.5844590000000  0.4276640000000 1.0
C      1  0.5352310000000  0.4859440000000  0.5193000000000 1.0
C      1  0.4617430000000  0.4922250000000  0.4580990000000 1.0
C      1  0.5681120000000  0.4141330000000  0.4862030000000 1.0
C      1  0.4748230000000  0.5768920000000  0.4691160000000 1.0
C      1  0.5144350000000  0.4509660000000  0.6000020000000 1.0
C      1  0.5751530000000  0.5005600000000  0.4089870000000 1.0
C      1  0.4826870000000  0.5836570000000  0.5348390000000 1.0
C      1  0.5502470000000  0.4116400000000  0.5297510000000 1.0
C      1  0.6008460000000  0.4544710000000  0.4614940000000 1.0
C      1  0.4845860000000  0.5091980000000  0.4979200000000 1.0
END
