TITL C-950533-5798-526 2.66274915044685e-06 125000 -656.028576209911 0 0 107 (C1) n - 1
REM
REM in /home/bkarasulu/work/CARBON/AIRSS/Generating-Clusters/EDIP-Nigel-Params/with-SteepDescent/Only-C1/SD-CG/HFTN-CG
REM
REM
REM
REM
REM
REM ./C.cell (11c1c37f851c82e70ff6c80c92926a4b)
REM
REM compiler GCC version 9.2.1 20190827 (Red Hat 9.2.1-1)
REM options -cpp -mtune=generic -march=x86-64 -g -O0 -fpre-include=/usr/include/finclude/math-vector-fortran.h
REM seed 1364368901 -1665919460 555787777 -1298033807 -138978067 -556217970 -1969470826 1478005138 -54405044 -545561640 -425489402 623919606 1271063156 1117257605 -1191721181 516449215 1816868899 142350472 1996284429 1735651371 -1746923801 -1396509070 267135025 -1932381279 1669866279 1309915289 1580319932 1655892551 -1275815994 -862079991 332245860 -1100623982 -1371284027
REM
CELL 1.54180   50.00000   50.00000   50.00000   90.00000   90.00000   90.00000
LATT -1
SFAC C  
C      1  0.5435570000000  0.5156640000000  0.5679320000000 1.0
C      1  0.4732110000000  0.4924840000000  0.4312090000000 1.0
C      1  0.4224770000000  0.5055480000000  0.5213940000000 1.0
C      1  0.4411370000000  0.5573670000000  0.5605900000000 1.0
C      1  0.4964130000000  0.4452840000000  0.4365280000000 1.0
C      1  0.5495590000000  0.5169620000000  0.4917540000000 1.0
C      1  0.4795240000000  0.4126380000000  0.5019350000000 1.0
C      1  0.4786340000000  0.5321520000000  0.4610680000000 1.0
C      1  0.4919530000000  0.5451390000000  0.5706810000000 1.0
C      1  0.4952780000000  0.4579350000000  0.5750950000000 1.0
C      1  0.5868480000000  0.4807090000000  0.5335020000000 1.0
C      1  0.4571590000000  0.4368940000000  0.4659400000000 1.0
C      1  0.4694970000000  0.5554440000000  0.5343600000000 1.0
C      1  0.4887550000000  0.5886530000000  0.5327160000000 1.0
C      1  0.5519120000000  0.4261740000000  0.4923830000000 1.0
C      1  0.5703570000000  0.4719800000000  0.4806660000000 1.0
C      1  0.5146610000000  0.4782530000000  0.4057940000000 1.0
C      1  0.4322600000000  0.4190070000000  0.5070110000000 1.0
C      1  0.5100120000000  0.4712520000000  0.4947020000000 1.0
C      1  0.5123720000000  0.5199830000000  0.5327320000000 1.0
C      1  0.5289420000000  0.5130710000000  0.4661980000000 1.0
C      1  0.5003100000000  0.4707840000000  0.5483690000000 1.0
C      1  0.5919710000000  0.5016460000000  0.5127330000000 1.0
C      1  0.4386040000000  0.5793060000000  0.5136370000000 1.0
C      1  0.4660540000000  0.5118240000000  0.5952030000000 1.0
C      1  0.4563710000000  0.4636090000000  0.5548840000000 1.0
C      1  0.5895800000000  0.5128850000000  0.4643730000000 1.0
C      1  0.4790040000000  0.5194960000000  0.4166930000000 1.0
C      1  0.4761050000000  0.5824340000000  0.4707890000000 1.0
C      1  0.5493900000000  0.5607600000000  0.4462310000000 1.0
C      1  0.5384010000000  0.4385550000000  0.5415910000000 1.0
C      1  0.5483340000000  0.4735610000000  0.4626880000000 1.0
C      1  0.5510280000000  0.5089650000000  0.4364770000000 1.0
C      1  0.4552040000000  0.4920640000000  0.5525190000000 1.0
C      1  0.5294380000000  0.4839730000000  0.6036400000000 1.0
C      1  0.5645550000000  0.4519200000000  0.5011820000000 1.0
C      1  0.5015670000000  0.5541580000000  0.5032570000000 1.0
C      1  0.4256570000000  0.5352310000000  0.5157270000000 1.0
C      1  0.4640630000000  0.5928340000000  0.5189840000000 1.0
C      1  0.5458590000000  0.4269810000000  0.4642140000000 1.0
C      1  0.4362620000000  0.5663960000000  0.4858020000000 1.0
C      1  0.5323960000000  0.4787790000000  0.5150400000000 1.0
C      1  0.4862650000000  0.4386000000000  0.4631900000000 1.0
C      1  0.5667480000000  0.4369230000000  0.5466000000000 1.0
C      1  0.4258610000000  0.5604720000000  0.5351780000000 1.0
C      1  0.5449190000000  0.5648570000000  0.4752630000000 1.0
C      1  0.5759600000000  0.5227830000000  0.4418350000000 1.0
C      1  0.5101140000000  0.5691690000000  0.5272260000000 1.0
C      1  0.4798160000000  0.4250730000000  0.5294390000000 1.0
C      1  0.4536870000000  0.4174510000000  0.4885200000000 1.0
C      1  0.5024170000000  0.5857780000000  0.4666370000000 1.0
C      1  0.5201700000000  0.5055610000000  0.4010970000000 1.0
C      1  0.5281120000000  0.4519240000000  0.4662120000000 1.0
C      1  0.4056930000000  0.4995040000000  0.4610090000000 1.0
C      1  0.5409350000000  0.5448310000000  0.5616330000000 1.0
C      1  0.4416140000000  0.4636080000000  0.4688230000000 1.0
C      1  0.5544270000000  0.4800950000000  0.4351340000000 1.0
C      1  0.5426870000000  0.5047770000000  0.5935580000000 1.0
C      1  0.4215990000000  0.4615470000000  0.4995810000000 1.0
C      1  0.4672980000000  0.5613020000000  0.5723900000000 1.0
C      1  0.4236930000000  0.4779380000000  0.4474940000000 1.0
C      1  0.5011660000000  0.4212470000000  0.4837060000000 1.0
C      1  0.4645430000000  0.5370130000000  0.4351470000000 1.0
C      1  0.5106620000000  0.4665090000000  0.5964480000000 1.0
C      1  0.5084810000000  0.4906560000000  0.4705520000000 1.0
C      1  0.5139220000000  0.5471790000000  0.5486310000000 1.0
C      1  0.4485460000000  0.5065790000000  0.5751980000000 1.0
C      1  0.4350300000000  0.4445080000000  0.5181880000000 1.0
C      1  0.5065910000000  0.5280920000000  0.4107810000000 1.0
C      1  0.4742730000000  0.5098370000000  0.5112200000000 1.0
C      1  0.4805820000000  0.4982060000000  0.4611560000000 1.0
C      1  0.4632680000000  0.4516260000000  0.5285310000000 1.0
C      1  0.5183570000000  0.5459700000000  0.4313260000000 1.0
C      1  0.5253340000000  0.4408970000000  0.4345110000000 1.0
C      1  0.5150050000000  0.5619330000000  0.4771750000000 1.0
C      1  0.4680590000000  0.4530770000000  0.5781890000000 1.0
C      1  0.5283170000000  0.4661940000000  0.5408090000000 1.0
C      1  0.5229050000000  0.4062530000000  0.5267140000000 1.0
C      1  0.5395510000000  0.5071810000000  0.5211200000000 1.0
C      1  0.5639600000000  0.5532550000000  0.5457420000000 1.0
C      1  0.4607620000000  0.4842590000000  0.4782630000000 1.0
C      1  0.4074090000000  0.4855820000000  0.5068250000000 1.0
C      1  0.4999890000000  0.5251650000000  0.5072690000000 1.0
C      1  0.3920630000000  0.4929410000000  0.4845680000000 1.0
C      1  0.4927310000000  0.5009170000000  0.5499320000000 1.0
C      1  0.4648040000000  0.5574260000000  0.4792150000000 1.0
C      1  0.4266820000000  0.5200660000000  0.4676000000000 1.0
C      1  0.5369820000000  0.4630710000000  0.4175690000000 1.0
C      1  0.4832490000000  0.4760780000000  0.5145470000000 1.0
C      1  0.5047160000000  0.4193770000000  0.5435820000000 1.0
C      1  0.5776580000000  0.4538460000000  0.5269410000000 1.0
C      1  0.4385790000000  0.5231530000000  0.4389450000000 1.0
C      1  0.5804090000000  0.5298700000000  0.5477950000000 1.0
C      1  0.5247790000000  0.4217790000000  0.5028360000000 1.0
C      1  0.5740410000000  0.5504100000000  0.4386030000000 1.0
C      1  0.5950150000000  0.5299080000000  0.5230200000000 1.0
C      1  0.5764150000000  0.5006000000000  0.4870620000000 1.0
C      1  0.4418120000000  0.4942220000000  0.4295550000000 1.0
C      1  0.4576630000000  0.5378730000000  0.5119300000000 1.0
C      1  0.4899460000000  0.4694720000000  0.4201760000000 1.0
C      1  0.4882220000000  0.5164790000000  0.5772850000000 1.0
C      1  0.5617870000000  0.5063790000000  0.5452680000000 1.0
C      1  0.4177730000000  0.5430430000000  0.4862730000000 1.0
C      1  0.5585090000000  0.5454330000000  0.4927900000000 1.0
C      1  0.5098100000000  0.5383950000000  0.4587590000000 1.0
C      1  0.4430410000000  0.5044690000000  0.4888460000000 1.0
C      1  0.5799170000000  0.5526270000000  0.5103570000000 1.0
END
