TITL C-950533-5798-221 -2.25391547932861e-06 125000 -633.844202420016 0 0 102 (C1) n - 1
REM
REM in /home/bkarasulu/work/CARBON/AIRSS/Generating-Clusters/EDIP-Nigel-Params/with-SteepDescent/Only-C1/SD-CG/HFTN-CG
REM
REM
REM
REM
REM
REM ./C.cell (11c1c37f851c82e70ff6c80c92926a4b)
REM
REM compiler GCC version 9.2.1 20190827 (Red Hat 9.2.1-1)
REM options -cpp -mtune=generic -march=x86-64 -g -O0 -fpre-include=/usr/include/finclude/math-vector-fortran.h
REM seed 1304520953 -289600275 162934478 168748606 639035519 388320132 468786942 -1721099387 -1485382531 711583931 -952574706 559320566 604206131 -1218809978 124282487 1558711521 -1266804301 150776371 -1609818108 1780216909 1398567777 -1685864697 -9989180 1311389344 -1348161528 -2116475751 987451556 1957231099 -1604625999 1299480594 1529963609 -1808191677 -433088924
REM
CELL 1.54180   50.00000   50.00000   50.00000   90.00000   90.00000   90.00000
LATT -1
SFAC C  
C      1  0.4546300000000  0.5807030000000  0.4956730000000 1.0
C      1  0.4137820000000  0.4618210000000  0.4941910000000 1.0
C      1  0.4577520000000  0.4558450000000  0.5672410000000 1.0
C      1  0.4954700000000  0.4235010000000  0.4661560000000 1.0
C      1  0.5398310000000  0.5551800000000  0.5253450000000 1.0
C      1  0.5110150000000  0.4327460000000  0.4429070000000 1.0
C      1  0.5567110000000  0.5716800000000  0.4825000000000 1.0
C      1  0.5702850000000  0.4903150000000  0.5522420000000 1.0
C      1  0.4378350000000  0.5244410000000  0.4571210000000 1.0
C      1  0.4896660000000  0.5481050000000  0.5499410000000 1.0
C      1  0.4841790000000  0.5379900000000  0.5131170000000 1.0
C      1  0.4180510000000  0.5105280000000  0.5022180000000 1.0
C      1  0.4864680000000  0.5086940000000  0.5101710000000 1.0
C      1  0.4744800000000  0.5025940000000  0.4205300000000 1.0
C      1  0.4800870000000  0.4597750000000  0.5089820000000 1.0
C      1  0.5414680000000  0.5456440000000  0.5758420000000 1.0
C      1  0.5827210000000  0.4685880000000  0.5371350000000 1.0
C      1  0.5058950000000  0.4591830000000  0.4899630000000 1.0
C      1  0.5077930000000  0.5053960000000  0.4574910000000 1.0
C      1  0.5127930000000  0.4204830000000  0.4902640000000 1.0
C      1  0.5899490000000  0.4683030000000  0.4902240000000 1.0
C      1  0.5549080000000  0.4402270000000  0.4695690000000 1.0
C      1  0.5739380000000  0.4847440000000  0.4485430000000 1.0
C      1  0.5135970000000  0.4569490000000  0.5703120000000 1.0
C      1  0.4725440000000  0.4313610000000  0.5188640000000 1.0
C      1  0.4675700000000  0.4325700000000  0.4699070000000 1.0
C      1  0.5161850000000  0.5477760000000  0.4807350000000 1.0
C      1  0.5454620000000  0.5327180000000  0.4459910000000 1.0
C      1  0.4538970000000  0.4341810000000  0.5457110000000 1.0
C      1  0.4862980000000  0.4935750000000  0.5846460000000 1.0
C      1  0.4259420000000  0.4358740000000  0.5049400000000 1.0
C      1  0.4694490000000  0.5166860000000  0.5734280000000 1.0
C      1  0.5084980000000  0.5912620000000  0.4770470000000 1.0
C      1  0.5261870000000  0.4728570000000  0.5081240000000 1.0
C      1  0.5297850000000  0.5702960000000  0.4679300000000 1.0
C      1  0.4741410000000  0.4986570000000  0.4853180000000 1.0
C      1  0.5108520000000  0.5526940000000  0.5096990000000 1.0
C      1  0.5553830000000  0.4882420000000  0.4280270000000 1.0
C      1  0.4838280000000  0.5199440000000  0.4439310000000 1.0
C      1  0.4704300000000  0.4972410000000  0.5318230000000 1.0
C      1  0.5858330000000  0.5089270000000  0.4558080000000 1.0
C      1  0.5907130000000  0.4838800000000  0.5136900000000 1.0
C      1  0.5307990000000  0.4791990000000  0.5816810000000 1.0
C      1  0.5206190000000  0.5953030000000  0.5052470000000 1.0
C      1  0.4509290000000  0.5054930000000  0.5526540000000 1.0
C      1  0.5139300000000  0.5006920000000  0.5946370000000 1.0
C      1  0.5288770000000  0.5232750000000  0.4705060000000 1.0
C      1  0.4317990000000  0.5336520000000  0.5143660000000 1.0
C      1  0.4540850000000  0.4260670000000  0.4956620000000 1.0
C      1  0.4663980000000  0.5477700000000  0.5688130000000 1.0
C      1  0.4750510000000  0.5826590000000  0.4732570000000 1.0
C      1  0.5021390000000  0.5866020000000  0.5257570000000 1.0
C      1  0.5674080000000  0.4678960000000  0.4726340000000 1.0
C      1  0.5090200000000  0.5603060000000  0.4274260000000 1.0
C      1  0.5270560000000  0.5096610000000  0.5385080000000 1.0
C      1  0.4185510000000  0.4678900000000  0.5414340000000 1.0
C      1  0.4528610000000  0.4409800000000  0.4459300000000 1.0
C      1  0.5507730000000  0.4265830000000  0.5195540000000 1.0
C      1  0.5396690000000  0.4332510000000  0.4933950000000 1.0
C      1  0.4701730000000  0.4558610000000  0.4276610000000 1.0
C      1  0.5047360000000  0.5231360000000  0.5583340000000 1.0
C      1  0.5511530000000  0.5151370000000  0.4918270000000 1.0
C      1  0.4349230000000  0.5300400000000  0.5430820000000 1.0
C      1  0.5409350000000  0.4865500000000  0.5535050000000 1.0
C      1  0.5500030000000  0.5245720000000  0.5227670000000 1.0
C      1  0.5073010000000  0.5721500000000  0.5506470000000 1.0
C      1  0.4373030000000  0.4787500000000  0.5620420000000 1.0
C      1  0.5447900000000  0.5130940000000  0.4245890000000 1.0
C      1  0.4314740000000  0.4755100000000  0.4745200000000 1.0
C      1  0.4263450000000  0.4393630000000  0.5350490000000 1.0
C      1  0.5240960000000  0.4241550000000  0.5341850000000 1.0
C      1  0.5196470000000  0.5294780000000  0.5830390000000 1.0
C      1  0.5515150000000  0.4840950000000  0.4933080000000 1.0
C      1  0.4417530000000  0.5533310000000  0.5571300000000 1.0
C      1  0.4318230000000  0.4614200000000  0.4486700000000 1.0
C      1  0.4648980000000  0.5208530000000  0.4682230000000 1.0
C      1  0.5337990000000  0.5604970000000  0.4394830000000 1.0
C      1  0.5668380000000  0.4457410000000  0.5324110000000 1.0
C      1  0.5474960000000  0.5803700000000  0.5088750000000 1.0
C      1  0.4336920000000  0.5606510000000  0.5021440000000 1.0
C      1  0.5714360000000  0.5464290000000  0.4828610000000 1.0
C      1  0.4848120000000  0.5490690000000  0.4353910000000 1.0
C      1  0.5243110000000  0.4537580000000  0.5415090000000 1.0
C      1  0.5127300000000  0.4715790000000  0.4131530000000 1.0
C      1  0.4646540000000  0.5651790000000  0.4503010000000 1.0
C      1  0.5354810000000  0.5631780000000  0.5541800000000 1.0
C      1  0.4853780000000  0.4737580000000  0.5374190000000 1.0
C      1  0.4963590000000  0.4923260000000  0.4061820000000 1.0
C      1  0.5758850000000  0.5124070000000  0.5335940000000 1.0
C      1  0.4999750000000  0.4160090000000  0.5169750000000 1.0
C      1  0.5386950000000  0.4341910000000  0.4476540000000 1.0
C      1  0.4588000000000  0.4749350000000  0.4892870000000 1.0
C      1  0.5142910000000  0.4990170000000  0.5150590000000 1.0
C      1  0.4138670000000  0.4829320000000  0.5155320000000 1.0
C      1  0.4203350000000  0.5054960000000  0.4727270000000 1.0
C      1  0.4381190000000  0.5531860000000  0.4528990000000 1.0
C      1  0.4858780000000  0.4684460000000  0.5673520000000 1.0
C      1  0.4665830000000  0.5449020000000  0.4896250000000 1.0
C      1  0.4559240000000  0.4809800000000  0.4262760000000 1.0
C      1  0.5726650000000  0.5333770000000  0.4577190000000 1.0
C      1  0.4991770000000  0.4590780000000  0.4360600000000 1.0
C      1  0.5036880000000  0.4755620000000  0.4619990000000 1.0
END
