TITL C-950525-1983-385 -2.60685743366167e-06 125000 -710.249039558503 0 0 113 (C1) n - 1
REM
REM in /home/bkarasulu/work/CARBON/AIRSS/Generating-Clusters/EDIP-Nigel-Params/with-SteepDescent/Only-C1/SD-CG/HFTN-CG
REM
REM
REM
REM
REM
REM ./C.cell (11c1c37f851c82e70ff6c80c92926a4b)
REM
REM compiler GCC version 9.2.1 20190827 (Red Hat 9.2.1-1)
REM options -cpp -mtune=generic -march=x86-64 -g -O0 -fpre-include=/usr/include/finclude/math-vector-fortran.h
REM seed 1559386667 1402953265 -1933820401 59014989 480733237 301757334 -165807844 -222554956 851634964 1576275129 -206807564 1269328413 -211033171 721692144 1800982927 -165505683 -685089862 1976368260 668144510 1199823165 -1796403251 751934728 1207915505 -1631647676 -1615278709 874600326 -1883896905 -156047260 -628711492 228683514 -1084852876 2092814753 -246648891
REM
CELL 1.54180   50.00000   50.00000   50.00000   90.00000   90.00000   90.00000
LATT -1
SFAC C  
C      1  0.5983280000000  0.4758680000000  0.4785100000000 1.0
C      1  0.4731530000000  0.5776440000000  0.5272310000000 1.0
C      1  0.5495160000000  0.5078520000000  0.5032360000000 1.0
C      1  0.4438110000000  0.4722590000000  0.4287600000000 1.0
C      1  0.4691150000000  0.4709810000000  0.4131870000000 1.0
C      1  0.4691210000000  0.5504140000000  0.4559020000000 1.0
C      1  0.4371900000000  0.4976480000000  0.4459800000000 1.0
C      1  0.5745200000000  0.5478350000000  0.4878580000000 1.0
C      1  0.4102150000000  0.5258280000000  0.4786080000000 1.0
C      1  0.5480040000000  0.5065370000000  0.4514260000000 1.0
C      1  0.4831060000000  0.5752290000000  0.4666580000000 1.0
C      1  0.4758660000000  0.5443060000000  0.5760020000000 1.0
C      1  0.4456430000000  0.5226970000000  0.4302330000000 1.0
C      1  0.4718760000000  0.4162670000000  0.5351430000000 1.0
C      1  0.5407440000000  0.5978230000000  0.4857630000000 1.0
C      1  0.5207050000000  0.4115070000000  0.4881440000000 1.0
C      1  0.4219640000000  0.5461730000000  0.4634150000000 1.0
C      1  0.4574350000000  0.4252610000000  0.5118320000000 1.0
C      1  0.5601790000000  0.5079740000000  0.5520910000000 1.0
C      1  0.4990970000000  0.5667600000000  0.5386390000000 1.0
C      1  0.5610990000000  0.4575540000000  0.5418300000000 1.0
C      1  0.4566560000000  0.4588360000000  0.5621590000000 1.0
C      1  0.4392990000000  0.4656510000000  0.5367050000000 1.0
C      1  0.5727910000000  0.5590860000000  0.5150090000000 1.0
C      1  0.5955600000000  0.5213890000000  0.5208250000000 1.0
C      1  0.5036820000000  0.4825440000000  0.5757320000000 1.0
C      1  0.4420960000000  0.5490180000000  0.4439390000000 1.0
C      1  0.5805060000000  0.4707680000000  0.4450320000000 1.0
C      1  0.5412530000000  0.5804470000000  0.4637130000000 1.0
C      1  0.4702710000000  0.4734740000000  0.4774730000000 1.0
C      1  0.4690960000000  0.4355310000000  0.4280690000000 1.0
C      1  0.4417730000000  0.5650650000000  0.4984140000000 1.0
C      1  0.5456430000000  0.4918310000000  0.5307930000000 1.0
C      1  0.5208550000000  0.4571530000000  0.5059040000000 1.0
C      1  0.5304220000000  0.4635840000000  0.4308250000000 1.0
C      1  0.5226490000000  0.5487740000000  0.4350840000000 1.0
C      1  0.4462950000000  0.4465730000000  0.4425540000000 1.0
C      1  0.4272720000000  0.4541390000000  0.4893790000000 1.0
C      1  0.4824710000000  0.4964130000000  0.4072190000000 1.0
C      1  0.5160260000000  0.4924240000000  0.5401020000000 1.0
C      1  0.5251720000000  0.5754330000000  0.5279610000000 1.0
C      1  0.5549690000000  0.4343780000000  0.5222530000000 1.0
C      1  0.5880390000000  0.5015240000000  0.5414550000000 1.0
C      1  0.4492810000000  0.5694830000000  0.5420410000000 1.0
C      1  0.5030360000000  0.4676600000000  0.5265470000000 1.0
C      1  0.5167500000000  0.5749970000000  0.4475540000000 1.0
C      1  0.5193010000000  0.5879860000000  0.5016230000000 1.0
C      1  0.4230590000000  0.5218680000000  0.5060250000000 1.0
C      1  0.5024480000000  0.5663090000000  0.4886290000000 1.0
C      1  0.5054940000000  0.5190280000000  0.5276650000000 1.0
C      1  0.5152900000000  0.5402140000000  0.4858410000000 1.0
C      1  0.4580420000000  0.4993180000000  0.4660720000000 1.0
C      1  0.4573890000000  0.5030410000000  0.5887820000000 1.0
C      1  0.4871510000000  0.4112480000000  0.4681630000000 1.0
C      1  0.5429970000000  0.4156090000000  0.4705480000000 1.0
C      1  0.4791730000000  0.4794240000000  0.5079700000000 1.0
C      1  0.4641780000000  0.4240480000000  0.4830350000000 1.0
C      1  0.4922450000000  0.5054320000000  0.5050420000000 1.0
C      1  0.4130050000000  0.5392650000000  0.5288810000000 1.0
C      1  0.5770960000000  0.4992770000000  0.4476030000000 1.0
C      1  0.5855250000000  0.4731840000000  0.5312230000000 1.0
C      1  0.4528920000000  0.5481740000000  0.5603020000000 1.0
C      1  0.5230960000000  0.5313890000000  0.5664460000000 1.0
C      1  0.5309970000000  0.4156060000000  0.5175780000000 1.0
C      1  0.5181940000000  0.4564040000000  0.5725010000000 1.0
C      1  0.5561140000000  0.4405980000000  0.4739300000000 1.0
C      1  0.4349320000000  0.4436000000000  0.5160620000000 1.0
C      1  0.5927060000000  0.5037650000000  0.4725730000000 1.0
C      1  0.4273310000000  0.5113650000000  0.5498820000000 1.0
C      1  0.5719790000000  0.4402240000000  0.4986550000000 1.0
C      1  0.4675330000000  0.5271990000000  0.4752230000000 1.0
C      1  0.4514140000000  0.4489600000000  0.4721500000000 1.0
C      1  0.4259110000000  0.5655300000000  0.5242440000000 1.0
C      1  0.5450640000000  0.5361450000000  0.4484520000000 1.0
C      1  0.4752480000000  0.4362120000000  0.5572070000000 1.0
C      1  0.4546060000000  0.5101140000000  0.5377560000000 1.0
C      1  0.4163710000000  0.4812150000000  0.4902350000000 1.0
C      1  0.4562090000000  0.4857590000000  0.5236930000000 1.0
C      1  0.4715060000000  0.5337580000000  0.5296630000000 1.0
C      1  0.4135590000000  0.4988090000000  0.4663590000000 1.0
C      1  0.5451120000000  0.5522670000000  0.5266500000000 1.0
C      1  0.5482600000000  0.5366160000000  0.5525440000000 1.0
C      1  0.5785990000000  0.5189520000000  0.4957740000000 1.0
C      1  0.4639420000000  0.5844910000000  0.4992640000000 1.0
C      1  0.5505200000000  0.4928530000000  0.5765970000000 1.0
C      1  0.4038530000000  0.4901430000000  0.5147280000000 1.0
C      1  0.5071840000000  0.5340910000000  0.4158050000000 1.0
C      1  0.4964730000000  0.5182620000000  0.4790940000000 1.0
C      1  0.5008030000000  0.4984520000000  0.4529780000000 1.0
C      1  0.4757500000000  0.5160480000000  0.4291300000000 1.0
C      1  0.5534880000000  0.5543920000000  0.4688430000000 1.0
C      1  0.5940360000000  0.5481300000000  0.5302220000000 1.0
C      1  0.5578670000000  0.4586620000000  0.4338650000000 1.0
C      1  0.4950760000000  0.4715960000000  0.4622280000000 1.0
C      1  0.4318880000000  0.5101470000000  0.5786110000000 1.0
C      1  0.5052430000000  0.4381280000000  0.4893850000000 1.0
C      1  0.5235970000000  0.5053630000000  0.5813890000000 1.0
C      1  0.4929470000000  0.4259470000000  0.4421450000000 1.0
C      1  0.5031570000000  0.4446500000000  0.5490700000000 1.0
C      1  0.5404470000000  0.4944150000000  0.4784690000000 1.0
C      1  0.5299380000000  0.5310360000000  0.5100830000000 1.0
C      1  0.4996360000000  0.5476490000000  0.5606690000000 1.0
C      1  0.5471600000000  0.4637450000000  0.5691440000000 1.0
C      1  0.5103080000000  0.4176520000000  0.5376070000000 1.0
C      1  0.5129360000000  0.5058890000000  0.4087440000000 1.0
C      1  0.4721840000000  0.4813710000000  0.5757370000000 1.0
C      1  0.4152190000000  0.4845330000000  0.5408510000000 1.0
C      1  0.5251920000000  0.4932610000000  0.4338470000000 1.0
C      1  0.5855360000000  0.4656720000000  0.5023740000000 1.0
C      1  0.4527390000000  0.5361270000000  0.5017680000000 1.0
C      1  0.5111050000000  0.4498430000000  0.4499270000000 1.0
C      1  0.5353340000000  0.4643520000000  0.4795040000000 1.0
C      1  0.4738680000000  0.5245980000000  0.5957540000000 1.0
END
