TITL C-951334-9093-196 -2.72260964802519e-06 125000 -812.552558773703 0 0 132 (C1) n - 1
REM
REM in /home/bkarasulu/work/CARBON/AIRSS/Generating-Clusters/EDIP-Nigel-Params/with-SteepDescent/Only-C1/SD-CG/HFTN-CG
REM
REM
REM
REM
REM
REM ./C.cell (11c1c37f851c82e70ff6c80c92926a4b)
REM
REM compiler GCC version 9.2.1 20190827 (Red Hat 9.2.1-1)
REM options -cpp -mtune=generic -march=x86-64 -g -O0 -fpre-include=/usr/include/finclude/math-vector-fortran.h
REM seed -1287315372 -516212162 -1427697671 1887651512 -1935828667 1119574250 -237895614 -478312734 2122501653 -2072716645 2108793091 -729558814 1499300783 -44258718 -577481862 1902369469 -1239330278 1982562618 -207079704 1612243046 -2000514509 408293982 -1318838611 -1951876596 1818169016 -755727491 -1754872351 -1902832766 -1744551373 -33562274 632522977 -1299543105 985783635
REM
CELL 1.54180   50.00000   50.00000   50.00000   90.00000   90.00000   90.00000
LATT -1
SFAC C  
C      1  0.4854980000000  0.5357820000000  0.5082650000000 1.0
C      1  0.4462720000000  0.4726970000000  0.5713930000000 1.0
C      1  0.4982960000000  0.5416680000000  0.5445770000000 1.0
C      1  0.5203840000000  0.5474310000000  0.4734960000000 1.0
C      1  0.4235450000000  0.4256180000000  0.4705740000000 1.0
C      1  0.5189560000000  0.4512200000000  0.4685270000000 1.0
C      1  0.5523100000000  0.4277190000000  0.4525620000000 1.0
C      1  0.4656570000000  0.5071590000000  0.4773650000000 1.0
C      1  0.5962240000000  0.5199320000000  0.4621110000000 1.0
C      1  0.5336560000000  0.5118780000000  0.5064460000000 1.0
C      1  0.5713630000000  0.5365050000000  0.4759820000000 1.0
C      1  0.5930560000000  0.5181790000000  0.4324400000000 1.0
C      1  0.5090170000000  0.4588250000000  0.6050080000000 1.0
C      1  0.5538540000000  0.4238210000000  0.4816390000000 1.0
C      1  0.5095070000000  0.4160370000000  0.4788130000000 1.0
C      1  0.4874700000000  0.5841600000000  0.4674620000000 1.0
C      1  0.5386700000000  0.4645620000000  0.5672750000000 1.0
C      1  0.5507210000000  0.5279870000000  0.5292540000000 1.0
C      1  0.4282510000000  0.4896550000000  0.4360710000000 1.0
C      1  0.5036970000000  0.5565940000000  0.4187350000000 1.0
C      1  0.4899710000000  0.4897020000000  0.5795280000000 1.0
C      1  0.4517490000000  0.5092510000000  0.5357910000000 1.0
C      1  0.5693980000000  0.4928710000000  0.4709450000000 1.0
C      1  0.5549660000000  0.5841870000000  0.4828030000000 1.0
C      1  0.4948510000000  0.5298090000000  0.4088190000000 1.0
C      1  0.5472900000000  0.4665310000000  0.4732210000000 1.0
C      1  0.4095130000000  0.5347130000000  0.5263110000000 1.0
C      1  0.4844860000000  0.5675510000000  0.4406960000000 1.0
C      1  0.4981120000000  0.4368390000000  0.4325420000000 1.0
C      1  0.5032540000000  0.5120140000000  0.5503570000000 1.0
C      1  0.5942840000000  0.5098130000000  0.5477160000000 1.0
C      1  0.5290480000000  0.4746830000000  0.5941450000000 1.0
C      1  0.5372660000000  0.4893850000000  0.4119570000000 1.0
C      1  0.5461140000000  0.5185220000000  0.5574240000000 1.0
C      1  0.6076070000000  0.4838580000000  0.5427360000000 1.0
C      1  0.5706140000000  0.5041070000000  0.5664050000000 1.0
C      1  0.4222960000000  0.4437070000000  0.4494330000000 1.0
C      1  0.4854300000000  0.5351040000000  0.5932590000000 1.0
C      1  0.4637670000000  0.5810900000000  0.4844900000000 1.0
C      1  0.4539200000000  0.5602460000000  0.4417170000000 1.0
C      1  0.5210120000000  0.4692270000000  0.4026530000000 1.0
C      1  0.5254340000000  0.4268300000000  0.4391470000000 1.0
C      1  0.4742970000000  0.4276630000000  0.5543530000000 1.0
C      1  0.4309670000000  0.5447030000000  0.5104540000000 1.0
C      1  0.5751390000000  0.4405070000000  0.5240190000000 1.0
C      1  0.5264970000000  0.5685870000000  0.4530580000000 1.0
C      1  0.4237700000000  0.5496130000000  0.4822630000000 1.0
C      1  0.5382990000000  0.5759840000000  0.5067670000000 1.0
C      1  0.4447800000000  0.4756250000000  0.4998410000000 1.0
C      1  0.4447800000000  0.5894310000000  0.5303530000000 1.0
C      1  0.4652400000000  0.5920200000000  0.5114550000000 1.0
C      1  0.4742760000000  0.5301140000000  0.3898020000000 1.0
C      1  0.4935810000000  0.5963110000000  0.5510630000000 1.0
C      1  0.5330970000000  0.4931890000000  0.4411090000000 1.0
C      1  0.5009540000000  0.4163860000000  0.5478130000000 1.0
C      1  0.5784700000000  0.5164050000000  0.5230680000000 1.0
C      1  0.4313130000000  0.5169980000000  0.4451920000000 1.0
C      1  0.4892070000000  0.5126730000000  0.4339430000000 1.0
C      1  0.4637280000000  0.4162040000000  0.5046100000000 1.0
C      1  0.5156420000000  0.5950510000000  0.5072620000000 1.0
C      1  0.5977380000000  0.4824730000000  0.4712320000000 1.0
C      1  0.4508910000000  0.4779560000000  0.4716720000000 1.0
C      1  0.4325530000000  0.4425190000000  0.5354500000000 1.0
C      1  0.4653140000000  0.4058740000000  0.4617110000000 1.0
C      1  0.4757110000000  0.5815440000000  0.5699610000000 1.0
C      1  0.4170450000000  0.5237970000000  0.4695240000000 1.0
C      1  0.5749060000000  0.4398110000000  0.4940490000000 1.0
C      1  0.4552420000000  0.5254590000000  0.5097510000000 1.0
C      1  0.5610860000000  0.5645660000000  0.4361090000000 1.0
C      1  0.4403430000000  0.5376880000000  0.4273380000000 1.0
C      1  0.5412320000000  0.5274790000000  0.4814050000000 1.0
C      1  0.4738450000000  0.4584530000000  0.5680470000000 1.0
C      1  0.4463920000000  0.5773580000000  0.5556510000000 1.0
C      1  0.5894280000000  0.4537320000000  0.4709000000000 1.0
C      1  0.4751540000000  0.4428560000000  0.4983430000000 1.0
C      1  0.5309680000000  0.4603350000000  0.5220920000000 1.0
C      1  0.4019010000000  0.5125250000000  0.5408700000000 1.0
C      1  0.4955950000000  0.4697600000000  0.4639060000000 1.0
C      1  0.5169660000000  0.4708390000000  0.5442960000000 1.0
C      1  0.5664050000000  0.4752080000000  0.5614250000000 1.0
C      1  0.5175420000000  0.5004370000000  0.5843750000000 1.0
C      1  0.4516120000000  0.4735370000000  0.4272540000000 1.0
C      1  0.5098110000000  0.6018340000000  0.4788870000000 1.0
C      1  0.5321240000000  0.4097600000000  0.4947150000000 1.0
C      1  0.4723780000000  0.5286100000000  0.4557550000000 1.0
C      1  0.4175380000000  0.4714850000000  0.4557960000000 1.0
C      1  0.5346460000000  0.5567710000000  0.4246850000000 1.0
C      1  0.5439060000000  0.5586060000000  0.5300870000000 1.0
C      1  0.4623600000000  0.4595040000000  0.5178760000000 1.0
C      1  0.5346990000000  0.5401650000000  0.5746900000000 1.0
C      1  0.5704340000000  0.5645210000000  0.4644920000000 1.0
C      1  0.4901490000000  0.5465690000000  0.4780610000000 1.0
C      1  0.5824340000000  0.4687120000000  0.5360090000000 1.0
C      1  0.4525580000000  0.4209260000000  0.5351910000000 1.0
C      1  0.5709770000000  0.4494630000000  0.4485770000000 1.0
C      1  0.4860860000000  0.3999830000000  0.4820920000000 1.0
C      1  0.5729850000000  0.4876940000000  0.5146870000000 1.0
C      1  0.4957260000000  0.4978620000000  0.4783060000000 1.0
C      1  0.5712170000000  0.5029470000000  0.4201130000000 1.0
C      1  0.4351810000000  0.5256060000000  0.5668980000000 1.0
C      1  0.4721960000000  0.5077460000000  0.5940030000000 1.0
C      1  0.4707440000000  0.4332840000000  0.4485470000000 1.0
C      1  0.5231990000000  0.5577860000000  0.5528670000000 1.0
C      1  0.4804680000000  0.4970680000000  0.5375210000000 1.0
C      1  0.4431560000000  0.5674400000000  0.4687830000000 1.0
C      1  0.5172490000000  0.4214560000000  0.5712530000000 1.0
C      1  0.5040000000000  0.4363320000000  0.5910990000000 1.0
C      1  0.4266310000000  0.4670360000000  0.5508210000000 1.0
C      1  0.4851590000000  0.4685270000000  0.5406650000000 1.0
C      1  0.4195290000000  0.4856990000000  0.5065680000000 1.0
C      1  0.4915960000000  0.5900900000000  0.5230720000000 1.0
C      1  0.4471090000000  0.4447750000000  0.4335120000000 1.0
C      1  0.5457740000000  0.4355600000000  0.5330200000000 1.0
C      1  0.4806330000000  0.4815770000000  0.4297470000000 1.0
C      1  0.4508990000000  0.5305980000000  0.4027880000000 1.0
C      1  0.4426420000000  0.4085630000000  0.4813380000000 1.0
C      1  0.5448090000000  0.4815950000000  0.5053450000000 1.0
C      1  0.5152000000000  0.5839070000000  0.5638290000000 1.0
C      1  0.4791810000000  0.5496240000000  0.5669950000000 1.0
C      1  0.4977430000000  0.4611000000000  0.4158620000000 1.0
C      1  0.5120590000000  0.5093830000000  0.4532130000000 1.0
C      1  0.5029410000000  0.5096190000000  0.5066070000000 1.0
C      1  0.5296410000000  0.4125860000000  0.5234060000000 1.0
C      1  0.4474310000000  0.5022520000000  0.5793010000000 1.0
C      1  0.5424060000000  0.4348660000000  0.5637880000000 1.0
C      1  0.4510570000000  0.5473500000000  0.5570240000000 1.0
C      1  0.4090250000000  0.5036580000000  0.4876410000000 1.0
C      1  0.5157420000000  0.5291950000000  0.5962610000000 1.0
C      1  0.5350190000000  0.5970290000000  0.4639990000000 1.0
C      1  0.5576400000000  0.5065310000000  0.4466590000000 1.0
C      1  0.4233280000000  0.4931040000000  0.5347300000000 1.0
C      1  0.4718910000000  0.4545040000000  0.4709420000000 1.0
END
