TITL C-951338-5626-397 -2.13027549596067e-06 125000 -1105.67889231883 0 0 177 (C1) n - 1
REM
REM in /home/bkarasulu/work/CARBON/AIRSS/Generating-Clusters/EDIP-Nigel-Params/with-SteepDescent/Only-C1/SD-CG/HFTN-CG
REM
REM
REM
REM
REM
REM ./C.cell (11c1c37f851c82e70ff6c80c92926a4b)
REM
REM compiler GCC version 9.2.1 20190827 (Red Hat 9.2.1-1)
REM options -cpp -mtune=generic -march=x86-64 -g -O0 -fpre-include=/usr/include/finclude/math-vector-fortran.h
REM seed -2044356472 -1132866597 -303291553 -1244415878 1798410862 -1813055092 1512601314 1949861430 2063288289 -1829622016 -467036323 -1432344878 1494675975 -1244122015 1195239395 429333301 -1247213469 477329378 1497729597 -71285486 -1172323810 -1745307208 951800435 1106513045 -2086224845 -552527506 -1428414689 -588740902 -304981365 3949159 -1402509532 1590730534 -1188733365
REM
CELL 1.54180   50.00000   50.00000   50.00000   90.00000   90.00000   90.00000
LATT -1
SFAC C  
C      1  0.5409300000000  0.5235070000000  0.4675760000000 1.0
C      1  0.4897190000000  0.5926080000000  0.5620510000000 1.0
C      1  0.4382160000000  0.4633020000000  0.4661780000000 1.0
C      1  0.3960340000000  0.5166220000000  0.5268710000000 1.0
C      1  0.5321850000000  0.4274310000000  0.4329830000000 1.0
C      1  0.4201690000000  0.5709160000000  0.5247850000000 1.0
C      1  0.4368160000000  0.5577850000000  0.4523760000000 1.0
C      1  0.4134940000000  0.4553340000000  0.4535470000000 1.0
C      1  0.5462730000000  0.4500650000000  0.4166800000000 1.0
C      1  0.6057070000000  0.4743220000000  0.4714580000000 1.0
C      1  0.5291160000000  0.4638910000000  0.5920640000000 1.0
C      1  0.5459950000000  0.5898660000000  0.4704900000000 1.0
C      1  0.5368980000000  0.5505820000000  0.5219310000000 1.0
C      1  0.3909680000000  0.4713810000000  0.4623560000000 1.0
C      1  0.5987670000000  0.4495700000000  0.4551900000000 1.0
C      1  0.5599460000000  0.4532880000000  0.4613780000000 1.0
C      1  0.3905590000000  0.4930450000000  0.5085450000000 1.0
C      1  0.4570840000000  0.5209050000000  0.4747150000000 1.0
C      1  0.5002750000000  0.5350750000000  0.4366140000000 1.0
C      1  0.5080050000000  0.4647190000000  0.4349870000000 1.0
C      1  0.4339590000000  0.5410150000000  0.6021910000000 1.0
C      1  0.4377770000000  0.5852350000000  0.5076700000000 1.0
C      1  0.4904800000000  0.5560760000000  0.4138470000000 1.0
C      1  0.4506210000000  0.5597040000000  0.5900580000000 1.0
C      1  0.4889600000000  0.4898460000000  0.3927890000000 1.0
C      1  0.4369160000000  0.4856310000000  0.5542760000000 1.0
C      1  0.4443060000000  0.5454140000000  0.4886450000000 1.0
C      1  0.4999600000000  0.4953870000000  0.5531760000000 1.0
C      1  0.4198420000000  0.4341840000000  0.4325940000000 1.0
C      1  0.4455750000000  0.5687640000000  0.5636380000000 1.0
C      1  0.4954520000000  0.3959020000000  0.5297140000000 1.0
C      1  0.5366290000000  0.5973940000000  0.5491260000000 1.0
C      1  0.4338170000000  0.4120340000000  0.4453440000000 1.0
C      1  0.5713950000000  0.4887540000000  0.5818430000000 1.0
C      1  0.5468010000000  0.5720110000000  0.5658680000000 1.0
C      1  0.4302710000000  0.4789480000000  0.4883510000000 1.0
C      1  0.5340750000000  0.4377460000000  0.5219010000000 1.0
C      1  0.5586990000000  0.5571940000000  0.5414680000000 1.0
C      1  0.5938310000000  0.5342700000000  0.5308570000000 1.0
C      1  0.4634630000000  0.5496580000000  0.5127340000000 1.0
C      1  0.5766880000000  0.4105490000000  0.4871280000000 1.0
C      1  0.5568180000000  0.4627940000000  0.5842670000000 1.0
C      1  0.5884110000000  0.4572340000000  0.4281230000000 1.0
C      1  0.3909380000000  0.4685500000000  0.5495200000000 1.0
C      1  0.5493640000000  0.5983980000000  0.5214390000000 1.0
C      1  0.4629320000000  0.4922000000000  0.4058270000000 1.0
C      1  0.5290430000000  0.4796010000000  0.4905310000000 1.0
C      1  0.4151610000000  0.4653430000000  0.5631190000000 1.0
C      1  0.6043230000000  0.4948820000000  0.4493300000000 1.0
C      1  0.5097950000000  0.4427090000000  0.5935980000000 1.0
C      1  0.5055870000000  0.4448500000000  0.5134370000000 1.0
C      1  0.5803420000000  0.5402530000000  0.4431760000000 1.0
C      1  0.5592920000000  0.4672860000000  0.4897400000000 1.0
C      1  0.5539350000000  0.4824630000000  0.5313050000000 1.0
C      1  0.5583650000000  0.4452900000000  0.5602350000000 1.0
C      1  0.5130120000000  0.4241440000000  0.5693330000000 1.0
C      1  0.4617360000000  0.5593740000000  0.4361560000000 1.0
C      1  0.4778230000000  0.5580990000000  0.5953390000000 1.0
C      1  0.4137870000000  0.5363230000000  0.4922400000000 1.0
C      1  0.5906500000000  0.4856420000000  0.4249650000000 1.0
C      1  0.4507670000000  0.4706760000000  0.5323610000000 1.0
C      1  0.5735250000000  0.5814090000000  0.4761370000000 1.0
C      1  0.4991060000000  0.5169470000000  0.3839290000000 1.0
C      1  0.4948960000000  0.5077660000000  0.5986680000000 1.0
C      1  0.5036920000000  0.4175980000000  0.4294060000000 1.0
C      1  0.5371520000000  0.5364830000000  0.6038790000000 1.0
C      1  0.5370770000000  0.5698120000000  0.4212420000000 1.0
C      1  0.5728230000000  0.4429510000000  0.4100500000000 1.0
C      1  0.4906000000000  0.4761580000000  0.4558510000000 1.0
C      1  0.4790260000000  0.5370760000000  0.3925060000000 1.0
C      1  0.4032570000000  0.4911240000000  0.4808290000000 1.0
C      1  0.5207660000000  0.5123440000000  0.4249520000000 1.0
C      1  0.5560540000000  0.5145420000000  0.4905010000000 1.0
C      1  0.5588520000000  0.5484120000000  0.4625880000000 1.0
C      1  0.4535490000000  0.4339840000000  0.5657090000000 1.0
C      1  0.5873000000000  0.4953960000000  0.5575210000000 1.0
C      1  0.4500140000000  0.4979180000000  0.5798190000000 1.0
C      1  0.4161910000000  0.5308310000000  0.5571120000000 1.0
C      1  0.4908010000000  0.5029090000000  0.5254900000000 1.0
C      1  0.4970070000000  0.3970360000000  0.4801900000000 1.0
C      1  0.5418530000000  0.4191790000000  0.5611560000000 1.0
C      1  0.4948780000000  0.4455660000000  0.5421720000000 1.0
C      1  0.5012310000000  0.5935820000000  0.4403210000000 1.0
C      1  0.4272740000000  0.5177130000000  0.4209540000000 1.0
C      1  0.4875300000000  0.5921090000000  0.4650530000000 1.0
C      1  0.4072870000000  0.5189880000000  0.4694180000000 1.0
C      1  0.4669540000000  0.5286210000000  0.4386580000000 1.0
C      1  0.4563870000000  0.5203540000000  0.4100980000000 1.0
C      1  0.5716300000000  0.5780730000000  0.5240290000000 1.0
C      1  0.4860410000000  0.4032720000000  0.4504440000000 1.0
C      1  0.5363260000000  0.4744840000000  0.4525920000000 1.0
C      1  0.4764100000000  0.5371930000000  0.5626320000000 1.0
C      1  0.5418350000000  0.4290160000000  0.4603640000000 1.0
C      1  0.4382540000000  0.4758730000000  0.4056090000000 1.0
C      1  0.5238880000000  0.5126740000000  0.5907730000000 1.0
C      1  0.3921580000000  0.5560430000000  0.4950080000000 1.0
C      1  0.4835200000000  0.4823500000000  0.6114660000000 1.0
C      1  0.5394710000000  0.5219760000000  0.5146860000000 1.0
C      1  0.5257990000000  0.3931500000000  0.4908780000000 1.0
C      1  0.4275240000000  0.4298400000000  0.5145840000000 1.0
C      1  0.4265870000000  0.4604950000000  0.5138630000000 1.0
C      1  0.5040330000000  0.4989940000000  0.4684850000000 1.0
C      1  0.4411500000000  0.4465940000000  0.4139300000000 1.0
C      1  0.5445820000000  0.4037530000000  0.5372090000000 1.0
C      1  0.5701450000000  0.5028260000000  0.4121620000000 1.0
C      1  0.4769380000000  0.3958940000000  0.5053080000000 1.0
C      1  0.5702560000000  0.5317610000000  0.4164810000000 1.0
C      1  0.5486000000000  0.5101670000000  0.5404640000000 1.0
C      1  0.4294980000000  0.5211100000000  0.5834450000000 1.0
C      1  0.5918510000000  0.4248160000000  0.4678880000000 1.0
C      1  0.5152070000000  0.5050440000000  0.5057910000000 1.0
C      1  0.4609060000000  0.4211600000000  0.4528550000000 1.0
C      1  0.5840360000000  0.4479420000000  0.5426940000000 1.0
C      1  0.5121100000000  0.4668810000000  0.5573910000000 1.0
C      1  0.4661170000000  0.4493400000000  0.5448990000000 1.0
C      1  0.4596750000000  0.5936460000000  0.4644460000000 1.0
C      1  0.4844640000000  0.4557640000000  0.5984600000000 1.0
C      1  0.4647880000000  0.4082750000000  0.5679130000000 1.0
C      1  0.4632540000000  0.4673900000000  0.4513580000000 1.0
C      1  0.5952130000000  0.5202780000000  0.4598640000000 1.0
C      1  0.5488720000000  0.4060920000000  0.4766550000000 1.0
C      1  0.5104920000000  0.5600080000000  0.5304500000000 1.0
C      1  0.5066210000000  0.5420720000000  0.5555580000000 1.0
C      1  0.3984040000000  0.4689710000000  0.5224420000000 1.0
C      1  0.4984650000000  0.5897430000000  0.4935630000000 1.0
C      1  0.5310920000000  0.5212780000000  0.3891560000000 1.0
C      1  0.5048790000000  0.5425280000000  0.4848990000000 1.0
C      1  0.5104030000000  0.5544760000000  0.4587640000000 1.0
C      1  0.4872880000000  0.5211320000000  0.4767870000000 1.0
C      1  0.4239220000000  0.5300040000000  0.4478940000000 1.0
C      1  0.4980190000000  0.5759540000000  0.5857090000000 1.0
C      1  0.5801970000000  0.5355960000000  0.5925860000000 1.0
C      1  0.4644740000000  0.4316470000000  0.4821260000000 1.0
C      1  0.5575860000000  0.4400230000000  0.5031380000000 1.0
C      1  0.4647150000000  0.4444330000000  0.4332490000000 1.0
C      1  0.5197960000000  0.5583980000000  0.5767450000000 1.0
C      1  0.5224270000000  0.5148950000000  0.5600520000000 1.0
C      1  0.5449190000000  0.5441960000000  0.4070030000000 1.0
C      1  0.4828080000000  0.6077570000000  0.5100950000000 1.0
C      1  0.5595830000000  0.5544850000000  0.5931010000000 1.0
C      1  0.3839670000000  0.5415140000000  0.5174740000000 1.0
C      1  0.5819330000000  0.4326540000000  0.5185590000000 1.0
C      1  0.5388780000000  0.4600920000000  0.5424740000000 1.0
C      1  0.5371650000000  0.5670950000000  0.4519950000000 1.0
C      1  0.5881360000000  0.4843040000000  0.4958150000000 1.0
C      1  0.4623490000000  0.5281490000000  0.5342570000000 1.0
C      1  0.4510380000000  0.4983490000000  0.4936900000000 1.0
C      1  0.5233030000000  0.3949420000000  0.5203870000000 1.0
C      1  0.5937740000000  0.5406210000000  0.5040380000000 1.0
C      1  0.5093830000000  0.5799090000000  0.4168100000000 1.0
C      1  0.5496070000000  0.4956740000000  0.3916960000000 1.0
C      1  0.4917640000000  0.4425580000000  0.4217560000000 1.0
C      1  0.5830660000000  0.4768680000000  0.5333300000000 1.0
C      1  0.4167220000000  0.4919090000000  0.4152880000000 1.0
C      1  0.4632500000000  0.5874860000000  0.5503950000000 1.0
C      1  0.4549460000000  0.4800880000000  0.6034190000000 1.0
C      1  0.5409650000000  0.5038960000000  0.4454520000000 1.0
C      1  0.5765540000000  0.5233180000000  0.5506430000000 1.0
C      1  0.5304810000000  0.5938810000000  0.4957270000000 1.0
C      1  0.4922960000000  0.5599760000000  0.5053710000000 1.0
C      1  0.5341720000000  0.4711250000000  0.3985530000000 1.0
C      1  0.4604830000000  0.5958410000000  0.5225680000000 1.0
C      1  0.5114670000000  0.4846720000000  0.4120820000000 1.0
C      1  0.4910780000000  0.4054960000000  0.5578910000000 1.0
C      1  0.4217060000000  0.5600840000000  0.5509210000000 1.0
C      1  0.5671510000000  0.5116440000000  0.5991400000000 1.0
C      1  0.4240970000000  0.4361880000000  0.5626760000000 1.0
C      1  0.4784380000000  0.5085040000000  0.5736490000000 1.0
C      1  0.4366100000000  0.5861650000000  0.4782040000000 1.0
C      1  0.5858150000000  0.5165170000000  0.4882980000000 1.0
C      1  0.4330500000000  0.5134320000000  0.5383320000000 1.0
C      1  0.4166560000000  0.4213550000000  0.5391750000000 1.0
C      1  0.4671900000000  0.4885930000000  0.5154100000000 1.0
C      1  0.5098950000000  0.5899670000000  0.5400110000000 1.0
C      1  0.4519130000000  0.4159890000000  0.5036040000000 1.0
C      1  0.4927130000000  0.4341840000000  0.4897390000000 1.0
C      1  0.5769320000000  0.5643500000000  0.4989950000000 1.0
END
