TITL C-951345-2650-526 4.3208846685008e-07 125000 -201.495550627537 0 0 34 (C1) n - 1
REM
REM in /home/bkarasulu/work/CARBON/AIRSS/Generating-Clusters/EDIP-Nigel-Params/with-SteepDescent/Only-C1/SD-CG/HFTN-CG
REM
REM
REM
REM
REM
REM ./C.cell (11c1c37f851c82e70ff6c80c92926a4b)
REM
REM compiler GCC version 9.2.1 20190827 (Red Hat 9.2.1-1)
REM options -cpp -mtune=generic -march=x86-64 -g -O0 -fpre-include=/usr/include/finclude/math-vector-fortran.h
REM seed -1869104196 -1757779080 791419664 433132397 1133045096 -547421753 122380945 -2022848151 1811611580 -308895969 -1727422192 -1894590852 649297966 2037071017 927574393 1286170512 380287061 -551511688 2131159351 425695502 1604866230 160769000 2101337999 -127750961 -225455736 -1258029814 -15459456 1311830103 -55243538 408313632 33459898 2121054274 -650841728
REM
CELL 1.54180   50.00000   50.00000   50.00000   90.00000   90.00000   90.00000
LATT -1
SFAC C  
C      1  0.4837700000000  0.5233740000000  0.4519670000000 1.0
C      1  0.4893960000000  0.4584650000000  0.5358270000000 1.0
C      1  0.5111540000000  0.5704690000000  0.5021990000000 1.0
C      1  0.4821030000000  0.5263670000000  0.5352010000000 1.0
C      1  0.5169840000000  0.4357150000000  0.4966860000000 1.0
C      1  0.4406950000000  0.4964790000000  0.5065190000000 1.0
C      1  0.5384590000000  0.5158090000000  0.5307490000000 1.0
C      1  0.5479440000000  0.4718620000000  0.5083180000000 1.0
C      1  0.4909550000000  0.5000990000000  0.5241530000000 1.0
C      1  0.5324560000000  0.4870580000000  0.5288740000000 1.0
C      1  0.4641630000000  0.5690260000000  0.5175850000000 1.0
C      1  0.4493530000000  0.4690350000000  0.5059060000000 1.0
C      1  0.5251960000000  0.5085380000000  0.4845030000000 1.0
C      1  0.4777130000000  0.4536690000000  0.4635270000000 1.0
C      1  0.4971660000000  0.5037310000000  0.4947880000000 1.0
C      1  0.4988640000000  0.5395250000000  0.5530990000000 1.0
C      1  0.4963260000000  0.4418270000000  0.5143340000000 1.0
C      1  0.5223010000000  0.5221110000000  0.4583380000000 1.0
C      1  0.5051150000000  0.4827800000000  0.4383720000000 1.0
C      1  0.5404250000000  0.4820790000000  0.4817330000000 1.0
C      1  0.4501670000000  0.5170910000000  0.4895000000000 1.0
C      1  0.4841720000000  0.5729040000000  0.4990260000000 1.0
C      1  0.4673890000000  0.4789840000000  0.5291780000000 1.0
C      1  0.5322830000000  0.5542450000000  0.5028370000000 1.0
C      1  0.5116920000000  0.4750420000000  0.5453180000000 1.0
C      1  0.5056450000000  0.5106480000000  0.4377780000000 1.0
C      1  0.5394220000000  0.5273680000000  0.5038680000000 1.0
C      1  0.4593060000000  0.4587430000000  0.4820920000000 1.0
C      1  0.5423300000000  0.4434720000000  0.5071260000000 1.0
C      1  0.5257310000000  0.4555990000000  0.4736360000000 1.0
C      1  0.4767700000000  0.5157850000000  0.4787220000000 1.0
C      1  0.5028880000000  0.4605590000000  0.4546890000000 1.0
C      1  0.4676840000000  0.5408490000000  0.5140360000000 1.0
C      1  0.5239840000000  0.5306900000000  0.5495150000000 1.0
END
