TITL C-950524-1808-83 3.09601222967773e-06 125000 -958.502314717705 0 0 152 (C1) n - 1
REM
REM in /home/bkarasulu/work/CARBON/AIRSS/Generating-Clusters/EDIP-Nigel-Params/with-SteepDescent/Only-C1/SD-CG/HFTN-CG
REM
REM
REM
REM
REM
REM ./C.cell (11c1c37f851c82e70ff6c80c92926a4b)
REM
REM compiler GCC version 9.2.1 20190827 (Red Hat 9.2.1-1)
REM options -cpp -mtune=generic -march=x86-64 -g -O0 -fpre-include=/usr/include/finclude/math-vector-fortran.h
REM seed -382237923 184394857 79434965 -781754119 -541587363 1930747930 -1036011448 -1961020948 401520091 -61400982 -1546818576 -1236028394 -941955803 1916458581 -1982104994 1972042939 -1085494337 384496288 1895332911 1979326815 -383256180 -898062145 -332379987 97508089 -403834642 995746253 -1932107370 1795458603 -1261853805 -1366458378 -1112089161 -2005188694 1223234473
REM
CELL 1.54180   50.00000   50.00000   50.00000   90.00000   90.00000   90.00000
LATT -1
SFAC C  
C      1  0.5144940000000  0.4098980000000  0.5227990000000 1.0
C      1  0.5059120000000  0.4865670000000  0.4962830000000 1.0
C      1  0.4654130000000  0.4430280000000  0.4842050000000 1.0
C      1  0.4093890000000  0.5228780000000  0.5258130000000 1.0
C      1  0.4736740000000  0.5398670000000  0.4491330000000 1.0
C      1  0.4253510000000  0.5494220000000  0.5266640000000 1.0
C      1  0.4316880000000  0.5365510000000  0.4849090000000 1.0
C      1  0.4902870000000  0.4708150000000  0.3945020000000 1.0
C      1  0.5600730000000  0.5283440000000  0.5541060000000 1.0
C      1  0.5948760000000  0.4676430000000  0.5561210000000 1.0
C      1  0.5744300000000  0.5159210000000  0.4501780000000 1.0
C      1  0.4425210000000  0.4641550000000  0.4895210000000 1.0
C      1  0.4653820000000  0.4929410000000  0.4330140000000 1.0
C      1  0.4768090000000  0.5450690000000  0.3921050000000 1.0
C      1  0.4829680000000  0.5984050000000  0.4711630000000 1.0
C      1  0.4553300000000  0.5152020000000  0.4929660000000 1.0
C      1  0.5759050000000  0.4471060000000  0.5548610000000 1.0
C      1  0.6056960000000  0.5240140000000  0.5048630000000 1.0
C      1  0.5142840000000  0.5147290000000  0.4305720000000 1.0
C      1  0.5161110000000  0.4722930000000  0.5920300000000 1.0
C      1  0.4032630000000  0.5063960000000  0.5006300000000 1.0
C      1  0.5491940000000  0.4499090000000  0.5631960000000 1.0
C      1  0.4908720000000  0.4038330000000  0.5044030000000 1.0
C      1  0.3994070000000  0.4633070000000  0.5283270000000 1.0
C      1  0.4995550000000  0.4868060000000  0.4673910000000 1.0
C      1  0.4822200000000  0.5118920000000  0.5948450000000 1.0
C      1  0.4951290000000  0.5567280000000  0.5849700000000 1.0
C      1  0.4864150000000  0.5430700000000  0.5402040000000 1.0
C      1  0.5661970000000  0.5088750000000  0.4227160000000 1.0
C      1  0.5074800000000  0.5218750000000  0.5353790000000 1.0
C      1  0.5216740000000  0.5431470000000  0.4232020000000 1.0
C      1  0.5517700000000  0.5255600000000  0.5108550000000 1.0
C      1  0.5076830000000  0.4589850000000  0.5017200000000 1.0
C      1  0.6035110000000  0.4820380000000  0.4796770000000 1.0
C      1  0.4692740000000  0.5822580000000  0.5163830000000 1.0
C      1  0.5440270000000  0.5487920000000  0.5681660000000 1.0
C      1  0.4229050000000  0.5678280000000  0.5048870000000 1.0
C      1  0.5449020000000  0.4653870000000  0.5878430000000 1.0
C      1  0.4804530000000  0.4859370000000  0.5396140000000 1.0
C      1  0.4013020000000  0.4353320000000  0.5274660000000 1.0
C      1  0.5897810000000  0.4824620000000  0.5794710000000 1.0
C      1  0.4282300000000  0.5487600000000  0.4574990000000 1.0
C      1  0.5277120000000  0.6002410000000  0.5318360000000 1.0
C      1  0.6024930000000  0.5110170000000  0.5314830000000 1.0
C      1  0.4420250000000  0.5022770000000  0.5207260000000 1.0
C      1  0.4523110000000  0.4250620000000  0.5619740000000 1.0
C      1  0.4415560000000  0.4718870000000  0.5176760000000 1.0
C      1  0.5624240000000  0.4889310000000  0.5834090000000 1.0
C      1  0.5506030000000  0.5002810000000  0.5577430000000 1.0
C      1  0.4707150000000  0.4881780000000  0.4604110000000 1.0
C      1  0.4367450000000  0.5041540000000  0.4301190000000 1.0
C      1  0.4900930000000  0.4205340000000  0.4291440000000 1.0
C      1  0.5874220000000  0.5336130000000  0.5448560000000 1.0
C      1  0.5355220000000  0.5785150000000  0.4868170000000 1.0
C      1  0.4347330000000  0.4935170000000  0.5876890000000 1.0
C      1  0.5705000000000  0.4648290000000  0.4489150000000 1.0
C      1  0.4542930000000  0.5064060000000  0.5505620000000 1.0
C      1  0.5690050000000  0.4385540000000  0.4628480000000 1.0
C      1  0.5177180000000  0.5733280000000  0.5437830000000 1.0
C      1  0.4690750000000  0.4347850000000  0.5367820000000 1.0
C      1  0.4824070000000  0.5170290000000  0.4261830000000 1.0
C      1  0.4566480000000  0.5755200000000  0.4238040000000 1.0
C      1  0.4100420000000  0.5069200000000  0.5507950000000 1.0
C      1  0.5197040000000  0.5027440000000  0.5595070000000 1.0
C      1  0.5499550000000  0.5773490000000  0.5651380000000 1.0
C      1  0.4235650000000  0.4686080000000  0.5755090000000 1.0
C      1  0.4091910000000  0.5183580000000  0.4731990000000 1.0
C      1  0.5119690000000  0.5108140000000  0.5887550000000 1.0
C      1  0.5280240000000  0.5798230000000  0.4571340000000 1.0
C      1  0.4258800000000  0.4173670000000  0.4790070000000 1.0
C      1  0.5273790000000  0.4471710000000  0.4394100000000 1.0
C      1  0.4502900000000  0.5531000000000  0.4049970000000 1.0
C      1  0.4561480000000  0.5864390000000  0.4714140000000 1.0
C      1  0.4304980000000  0.4087160000000  0.5535380000000 1.0
C      1  0.4365300000000  0.5309710000000  0.4187300000000 1.0
C      1  0.5307500000000  0.4131450000000  0.4782450000000 1.0
C      1  0.4858750000000  0.4027810000000  0.4531430000000 1.0
C      1  0.5432150000000  0.4266830000000  0.4554680000000 1.0
C      1  0.5763830000000  0.4862410000000  0.4681530000000 1.0
C      1  0.4954520000000  0.4433620000000  0.4788470000000 1.0
C      1  0.4904840000000  0.4269400000000  0.5684200000000 1.0
C      1  0.6024910000000  0.4677720000000  0.5064750000000 1.0
C      1  0.4188050000000  0.4134540000000  0.5287640000000 1.0
C      1  0.4119350000000  0.4781620000000  0.5498830000000 1.0
C      1  0.4849600000000  0.5281640000000  0.4736970000000 1.0
C      1  0.4780230000000  0.5539350000000  0.5138500000000 1.0
C      1  0.4448160000000  0.4477180000000  0.5806070000000 1.0
C      1  0.5065790000000  0.4761040000000  0.5544470000000 1.0
C      1  0.4531210000000  0.5630200000000  0.4511720000000 1.0
C      1  0.5202460000000  0.5403940000000  0.5847940000000 1.0
C      1  0.6026880000000  0.5537380000000  0.4632000000000 1.0
C      1  0.5015340000000  0.4572940000000  0.4517910000000 1.0
C      1  0.4563040000000  0.4034010000000  0.4594350000000 1.0
C      1  0.5220330000000  0.6008410000000  0.5027200000000 1.0
C      1  0.5013340000000  0.4134430000000  0.4776920000000 1.0
C      1  0.4655630000000  0.4629700000000  0.5299520000000 1.0
C      1  0.5468610000000  0.4955880000000  0.5100240000000 1.0
C      1  0.4897300000000  0.4963450000000  0.3822030000000 1.0
C      1  0.5562750000000  0.5932330000000  0.5406030000000 1.0
C      1  0.5258960000000  0.4525240000000  0.5446640000000 1.0
C      1  0.5335040000000  0.4535720000000  0.5148280000000 1.0
C      1  0.3934620000000  0.4601270000000  0.4808600000000 1.0
C      1  0.5103180000000  0.4274990000000  0.5464470000000 1.0
C      1  0.4369750000000  0.4087440000000  0.5057830000000 1.0
C      1  0.5612100000000  0.4751360000000  0.4924180000000 1.0
C      1  0.5912560000000  0.5593830000000  0.5308200000000 1.0
C      1  0.4472750000000  0.4907990000000  0.4755110000000 1.0
C      1  0.4449640000000  0.5855300000000  0.4990870000000 1.0
C      1  0.5790860000000  0.5378340000000  0.5016320000000 1.0
C      1  0.4245760000000  0.4980550000000  0.4570100000000 1.0
C      1  0.4871100000000  0.5813580000000  0.4237880000000 1.0
C      1  0.5191040000000  0.4366950000000  0.4128750000000 1.0
C      1  0.4189730000000  0.4479140000000  0.4791950000000 1.0
C      1  0.6143510000000  0.5096540000000  0.4797060000000 1.0
C      1  0.5251420000000  0.5501890000000  0.4966840000000 1.0
C      1  0.4247630000000  0.5162050000000  0.5732120000000 1.0
C      1  0.4941190000000  0.4505090000000  0.5877060000000 1.0
C      1  0.4535940000000  0.4325680000000  0.4567090000000 1.0
C      1  0.4632690000000  0.5806110000000  0.5462790000000 1.0
C      1  0.5685410000000  0.4433930000000  0.4923180000000 1.0
C      1  0.5361210000000  0.4804770000000  0.3951720000000 1.0
C      1  0.4928610000000  0.6024710000000  0.4987390000000 1.0
C      1  0.4652350000000  0.4204150000000  0.5091900000000 1.0
C      1  0.5765810000000  0.5544400000000  0.4769480000000 1.0
C      1  0.4997480000000  0.5858080000000  0.4506990000000 1.0
C      1  0.4634710000000  0.4899010000000  0.5902110000000 1.0
C      1  0.6034530000000  0.5258060000000  0.4560070000000 1.0
C      1  0.5106790000000  0.5127730000000  0.4604140000000 1.0
C      1  0.4913140000000  0.5026610000000  0.5160620000000 1.0
C      1  0.4770500000000  0.5164380000000  0.3969140000000 1.0
C      1  0.4678920000000  0.4615520000000  0.5928600000000 1.0
C      1  0.4630620000000  0.5353950000000  0.5574650000000 1.0
C      1  0.5409980000000  0.4938760000000  0.4203670000000 1.0
C      1  0.5392600000000  0.5564970000000  0.4431310000000 1.0
C      1  0.4997200000000  0.5594000000000  0.4080930000000 1.0
C      1  0.5907760000000  0.4828320000000  0.5305910000000 1.0
C      1  0.5389670000000  0.4219790000000  0.5063580000000 1.0
C      1  0.4434670000000  0.5571230000000  0.5496860000000 1.0
C      1  0.5651590000000  0.5786360000000  0.4914330000000 1.0
C      1  0.5447620000000  0.4705190000000  0.4378100000000 1.0
C      1  0.5287670000000  0.5434960000000  0.5269660000000 1.0
C      1  0.4777830000000  0.4670000000000  0.4218800000000 1.0
C      1  0.5573290000000  0.5397980000000  0.4594560000000 1.0
C      1  0.4957310000000  0.5488870000000  0.4913140000000 1.0
C      1  0.5583850000000  0.4814480000000  0.5334690000000 1.0
C      1  0.5694060000000  0.5759050000000  0.5209070000000 1.0
C      1  0.5169750000000  0.4591200000000  0.3932650000000 1.0
C      1  0.5945810000000  0.4406650000000  0.5044080000000 1.0
C      1  0.4723840000000  0.5379920000000  0.5860870000000 1.0
C      1  0.4682640000000  0.4395440000000  0.4302130000000 1.0
C      1  0.3960800000000  0.4775240000000  0.5029740000000 1.0
C      1  0.4917860000000  0.5755370000000  0.5612490000000 1.0
END
