TITL C-951335-1172-15 -2.84765598907161e-06 125000 -1169.00659566824 0 0 187 (C1) n - 1
REM
REM in /home/bkarasulu/work/CARBON/AIRSS/Generating-Clusters/EDIP-Nigel-Params/with-SteepDescent/Only-C1/SD-CG/HFTN-CG
REM
REM
REM
REM
REM
REM ./C.cell (11c1c37f851c82e70ff6c80c92926a4b)
REM
REM compiler GCC version 9.2.1 20190827 (Red Hat 9.2.1-1)
REM options -cpp -mtune=generic -march=x86-64 -g -O0 -fpre-include=/usr/include/finclude/math-vector-fortran.h
REM seed -1434075863 1973878693 -1742595611 1578899619 202477646 1321244672 25815923 -1711595890 1013553703 1617074286 50783632 -1716118631 890040630 -924336158 1690343193 -732947497 -1299811954 1310002597 -1715070672 -2043094445 753793062 -57333846 1791435236 82429756 -760960446 375227213 -1641779760 178911008 -1936808530 -1767749015 -104697181 1846627131 -2015976323
REM
CELL 1.54180   50.00000   50.00000   50.00000   90.00000   90.00000   90.00000
LATT -1
SFAC C  
C      1  0.4976830000000  0.5623540000000  0.5318220000000 1.0
C      1  0.5185050000000  0.4728290000000  0.4973950000000 1.0
C      1  0.4427320000000  0.4709510000000  0.4109630000000 1.0
C      1  0.3957420000000  0.4939030000000  0.4579680000000 1.0
C      1  0.4669590000000  0.4550310000000  0.4058000000000 1.0
C      1  0.5537360000000  0.5281620000000  0.5096600000000 1.0
C      1  0.4220400000000  0.5541860000000  0.5912700000000 1.0
C      1  0.4794570000000  0.5121260000000  0.4944450000000 1.0
C      1  0.5370070000000  0.4170430000000  0.5673910000000 1.0
C      1  0.4460710000000  0.4205120000000  0.4484670000000 1.0
C      1  0.5188210000000  0.6048910000000  0.4578560000000 1.0
C      1  0.5683660000000  0.5961490000000  0.4657410000000 1.0
C      1  0.5019470000000  0.3877480000000  0.5198290000000 1.0
C      1  0.5515550000000  0.5595280000000  0.4257840000000 1.0
C      1  0.4163940000000  0.4228950000000  0.4945530000000 1.0
C      1  0.5915950000000  0.5155690000000  0.5667670000000 1.0
C      1  0.4868140000000  0.5647390000000  0.4744780000000 1.0
C      1  0.5229910000000  0.5586590000000  0.4191310000000 1.0
C      1  0.5502980000000  0.4175760000000  0.4499710000000 1.0
C      1  0.4235920000000  0.4431260000000  0.4504320000000 1.0
C      1  0.5061970000000  0.4922470000000  0.5909620000000 1.0
C      1  0.5621240000000  0.5081760000000  0.4124880000000 1.0
C      1  0.3813820000000  0.4917530000000  0.5006920000000 1.0
C      1  0.5174380000000  0.5203940000000  0.4407540000000 1.0
C      1  0.4617860000000  0.4385010000000  0.4907350000000 1.0
C      1  0.5126270000000  0.5742590000000  0.4588040000000 1.0
C      1  0.4695280000000  0.4881820000000  0.5134870000000 1.0
C      1  0.4276940000000  0.5166610000000  0.4215780000000 1.0
C      1  0.4694610000000  0.5106300000000  0.4664530000000 1.0
C      1  0.4279980000000  0.4690520000000  0.4359460000000 1.0
C      1  0.4717950000000  0.5422370000000  0.4587150000000 1.0
C      1  0.4813700000000  0.6126550000000  0.4885030000000 1.0
C      1  0.4974520000000  0.6205090000000  0.4672990000000 1.0
C      1  0.5412350000000  0.4535660000000  0.6044950000000 1.0
C      1  0.5151690000000  0.5343320000000  0.6004720000000 1.0
C      1  0.5014900000000  0.5305730000000  0.5726670000000 1.0
C      1  0.5458590000000  0.5320680000000  0.5972700000000 1.0
C      1  0.5603560000000  0.4824410000000  0.5076810000000 1.0
C      1  0.5288170000000  0.4289420000000  0.4092240000000 1.0
C      1  0.5748580000000  0.4933120000000  0.5748630000000 1.0
C      1  0.5391740000000  0.4080830000000  0.4967600000000 1.0
C      1  0.5533790000000  0.6134660000000  0.5199070000000 1.0
C      1  0.5350020000000  0.4625220000000  0.5594510000000 1.0
C      1  0.4196030000000  0.4859640000000  0.5289760000000 1.0
C      1  0.5085470000000  0.5219480000000  0.4943120000000 1.0
C      1  0.3845620000000  0.5200430000000  0.4632300000000 1.0
C      1  0.5703470000000  0.4294730000000  0.4315020000000 1.0
C      1  0.5539020000000  0.3984670000000  0.5192320000000 1.0
C      1  0.4776080000000  0.4264840000000  0.5703770000000 1.0
C      1  0.5164400000000  0.5377780000000  0.4009310000000 1.0
C      1  0.6091250000000  0.4341720000000  0.4611900000000 1.0
C      1  0.4433990000000  0.5432430000000  0.4212670000000 1.0
C      1  0.5391710000000  0.5072090000000  0.5536970000000 1.0
C      1  0.4607380000000  0.5933260000000  0.4788770000000 1.0
C      1  0.5384440000000  0.5762210000000  0.5764910000000 1.0
C      1  0.5370660000000  0.6007230000000  0.5004180000000 1.0
C      1  0.4433280000000  0.4990800000000  0.4033540000000 1.0
C      1  0.5914980000000  0.4746290000000  0.4401910000000 1.0
C      1  0.5057100000000  0.4493000000000  0.3774010000000 1.0
C      1  0.4094570000000  0.4466100000000  0.5454890000000 1.0
C      1  0.4375240000000  0.4917560000000  0.5510480000000 1.0
C      1  0.4564530000000  0.4608710000000  0.4738800000000 1.0
C      1  0.5302790000000  0.5925170000000  0.5551190000000 1.0
C      1  0.4222490000000  0.4968880000000  0.4464060000000 1.0
C      1  0.4731950000000  0.4608990000000  0.5318310000000 1.0
C      1  0.4949190000000  0.6068410000000  0.5125260000000 1.0
C      1  0.4592980000000  0.4769720000000  0.5891870000000 1.0
C      1  0.4891740000000  0.5357330000000  0.4358280000000 1.0
C      1  0.5071850000000  0.5159320000000  0.6212970000000 1.0
C      1  0.5643920000000  0.4709840000000  0.5579220000000 1.0
C      1  0.4697800000000  0.4622270000000  0.4443070000000 1.0
C      1  0.4457700000000  0.5580270000000  0.4477110000000 1.0
C      1  0.5214790000000  0.4918730000000  0.6266030000000 1.0
C      1  0.5783620000000  0.5226090000000  0.4971380000000 1.0
C      1  0.4818460000000  0.5467490000000  0.5536500000000 1.0
C      1  0.5754840000000  0.5073250000000  0.4716630000000 1.0
C      1  0.5764640000000  0.5268690000000  0.4502880000000 1.0
C      1  0.4886210000000  0.4027780000000  0.5587410000000 1.0
C      1  0.5046010000000  0.4592040000000  0.4756500000000 1.0
C      1  0.5468080000000  0.5544230000000  0.5189560000000 1.0
C      1  0.5902960000000  0.5711480000000  0.5083360000000 1.0
C      1  0.4810210000000  0.5877150000000  0.4318460000000 1.0
C      1  0.4696950000000  0.5103590000000  0.3988160000000 1.0
C      1  0.4962640000000  0.5925560000000  0.5375840000000 1.0
C      1  0.5537530000000  0.5292090000000  0.4314770000000 1.0
C      1  0.5148210000000  0.4904750000000  0.4397190000000 1.0
C      1  0.3776470000000  0.4911540000000  0.5497510000000 1.0
C      1  0.5972770000000  0.4878830000000  0.4663550000000 1.0
C      1  0.4660390000000  0.5897750000000  0.5490980000000 1.0
C      1  0.4713190000000  0.5363360000000  0.4117050000000 1.0
C      1  0.5430200000000  0.4811230000000  0.6112960000000 1.0
C      1  0.4507090000000  0.4669540000000  0.5626540000000 1.0
C      1  0.4631280000000  0.5352780000000  0.5069730000000 1.0
C      1  0.4499970000000  0.5522630000000  0.5916600000000 1.0
C      1  0.4869570000000  0.4700670000000  0.5952470000000 1.0
C      1  0.4965510000000  0.4441810000000  0.5851370000000 1.0
C      1  0.4426920000000  0.5848530000000  0.5294850000000 1.0
C      1  0.5167410000000  0.4013850000000  0.5529250000000 1.0
C      1  0.4898050000000  0.4356160000000  0.4888960000000 1.0
C      1  0.5847210000000  0.5915890000000  0.4890990000000 1.0
C      1  0.5246610000000  0.4151960000000  0.4344950000000 1.0
C      1  0.4074190000000  0.5380350000000  0.4965170000000 1.0
C      1  0.5475810000000  0.4968570000000  0.4746570000000 1.0
C      1  0.5404210000000  0.4779460000000  0.4501520000000 1.0
C      1  0.5364870000000  0.5590130000000  0.4702760000000 1.0
C      1  0.5925520000000  0.4319120000000  0.4821210000000 1.0
C      1  0.4352450000000  0.5275080000000  0.4915380000000 1.0
C      1  0.4080560000000  0.4463020000000  0.4760740000000 1.0
C      1  0.4666140000000  0.5665080000000  0.5699890000000 1.0
C      1  0.5261940000000  0.5330650000000  0.5575450000000 1.0
C      1  0.4462990000000  0.4149190000000  0.5338570000000 1.0
C      1  0.5602640000000  0.4229320000000  0.5485040000000 1.0
C      1  0.3969110000000  0.4750410000000  0.4810050000000 1.0
C      1  0.4418450000000  0.5817430000000  0.4997630000000 1.0
C      1  0.4174740000000  0.5682310000000  0.4894490000000 1.0
C      1  0.4876680000000  0.4669750000000  0.3884520000000 1.0
C      1  0.5790890000000  0.4472870000000  0.5513150000000 1.0
C      1  0.5856880000000  0.5515280000000  0.4617530000000 1.0
C      1  0.5141710000000  0.4251440000000  0.3857060000000 1.0
C      1  0.3880830000000  0.4659250000000  0.5614180000000 1.0
C      1  0.4997410000000  0.4493460000000  0.5299350000000 1.0
C      1  0.4141080000000  0.5346340000000  0.5723830000000 1.0
C      1  0.4148480000000  0.4210700000000  0.5252730000000 1.0
C      1  0.5437500000000  0.4988990000000  0.3917020000000 1.0
C      1  0.5178610000000  0.5113220000000  0.3907630000000 1.0
C      1  0.5511430000000  0.5018090000000  0.5904970000000 1.0
C      1  0.4994060000000  0.4202230000000  0.4482920000000 1.0
C      1  0.4880290000000  0.5545700000000  0.5033430000000 1.0
C      1  0.4244840000000  0.4619010000000  0.5129800000000 1.0
C      1  0.4634890000000  0.3979780000000  0.4736790000000 1.0
C      1  0.3758230000000  0.5181810000000  0.4898240000000 1.0
C      1  0.5067310000000  0.5827040000000  0.4215420000000 1.0
C      1  0.4453560000000  0.5027210000000  0.5957220000000 1.0
C      1  0.5945970000000  0.4451770000000  0.4398470000000 1.0
C      1  0.5969990000000  0.4804260000000  0.5179020000000 1.0
C      1  0.5386610000000  0.5709960000000  0.4969650000000 1.0
C      1  0.4206940000000  0.5717820000000  0.5412810000000 1.0
C      1  0.5119360000000  0.3975490000000  0.4944950000000 1.0
C      1  0.6215900000000  0.5192840000000  0.4960220000000 1.0
C      1  0.4918630000000  0.4805410000000  0.4559940000000 1.0
C      1  0.5417920000000  0.4573810000000  0.5076550000000 1.0
C      1  0.4401280000000  0.5043470000000  0.4730150000000 1.0
C      1  0.5235550000000  0.5500460000000  0.5350550000000 1.0
C      1  0.5865280000000  0.4314700000000  0.5088020000000 1.0
C      1  0.3987600000000  0.5423620000000  0.4541830000000 1.0
C      1  0.6016030000000  0.5240260000000  0.5419190000000 1.0
C      1  0.5194190000000  0.4994820000000  0.5089440000000 1.0
C      1  0.4120300000000  0.5455310000000  0.5459260000000 1.0
C      1  0.5196560000000  0.4873410000000  0.5636240000000 1.0
C      1  0.3992190000000  0.4865860000000  0.5809340000000 1.0
C      1  0.5442260000000  0.5042880000000  0.5221420000000 1.0
C      1  0.5807190000000  0.4061220000000  0.5203430000000 1.0
C      1  0.6116480000000  0.5062630000000  0.5211970000000 1.0
C      1  0.3998960000000  0.5301520000000  0.5250230000000 1.0
C      1  0.4616350000000  0.5030450000000  0.5388800000000 1.0
C      1  0.5286210000000  0.5253950000000  0.4702260000000 1.0
C      1  0.5433450000000  0.6114270000000  0.4733260000000 1.0
C      1  0.5304610000000  0.4489750000000  0.4615130000000 1.0
C      1  0.4227010000000  0.5051360000000  0.5756110000000 1.0
C      1  0.4932100000000  0.4953330000000  0.3919310000000 1.0
C      1  0.5278290000000  0.4490720000000  0.5335690000000 1.0
C      1  0.4526090000000  0.4430100000000  0.5183980000000 1.0
C      1  0.4758780000000  0.3946740000000  0.5332110000000 1.0
C      1  0.5779710000000  0.5505290000000  0.5575070000000 1.0
C      1  0.4920690000000  0.4099970000000  0.4753000000000 1.0
C      1  0.4183230000000  0.5612590000000  0.4606210000000 1.0
C      1  0.4582420000000  0.5856380000000  0.4483870000000 1.0
C      1  0.5597600000000  0.4653690000000  0.4022070000000 1.0
C      1  0.5564160000000  0.4376360000000  0.4070660000000 1.0
C      1  0.5571600000000  0.5549300000000  0.5801200000000 1.0
C      1  0.5612380000000  0.5685570000000  0.4544810000000 1.0
C      1  0.4488490000000  0.4226880000000  0.5627490000000 1.0
C      1  0.4450890000000  0.4806520000000  0.4928190000000 1.0
C      1  0.5272340000000  0.4427690000000  0.5813980000000 1.0
C      1  0.4358470000000  0.4042070000000  0.4816760000000 1.0
C      1  0.5699010000000  0.5685940000000  0.5324060000000 1.0
C      1  0.3939990000000  0.5000030000000  0.5269250000000 1.0
C      1  0.4588970000000  0.5268950000000  0.6006600000000 1.0
C      1  0.4736240000000  0.4315770000000  0.4359460000000 1.0
C      1  0.5494540000000  0.4344130000000  0.4848960000000 1.0
C      1  0.5952790000000  0.4521610000000  0.5272010000000 1.0
C      1  0.5556500000000  0.5950030000000  0.5403920000000 1.0
C      1  0.5645450000000  0.4810870000000  0.4273110000000 1.0
C      1  0.4314150000000  0.4453340000000  0.5658490000000 1.0
C      1  0.4623500000000  0.5309380000000  0.5364970000000 1.0
C      1  0.6213400000000  0.5002720000000  0.4749180000000 1.0
C      1  0.5962750000000  0.5462420000000  0.4905320000000 1.0
END
