TITL C-950523-3027-265 -3.30882986330885e-06 125000 -639.845967417025 0 0 103 (C1) n - 1
REM
REM in /home/bkarasulu/work/CARBON/AIRSS/Generating-Clusters/EDIP-Nigel-Params/with-SteepDescent/Only-C1/SD-CG/HFTN-CG
REM
REM
REM
REM
REM
REM ./C.cell (11c1c37f851c82e70ff6c80c92926a4b)
REM
REM compiler GCC version 9.2.1 20190827 (Red Hat 9.2.1-1)
REM options -cpp -mtune=generic -march=x86-64 -g -O0 -fpre-include=/usr/include/finclude/math-vector-fortran.h
REM seed 1832389614 -64606927 -287699456 -600705616 -1857471887 1570725338 244908959 1407185906 374349465 1254230336 -65149961 -277932059 -1171649513 -1191546712 -2077088922 -771326927 -1383430116 -98325112 -823023087 -7144039 -1604722465 744479140 1137445744 -1153342579 186623515 -167552448 -2083814721 -1292141098 1751536665 -1943145270 1208513819 -1352482132 -463867946
REM
CELL 1.54180   50.00000   50.00000   50.00000   90.00000   90.00000   90.00000
LATT -1
SFAC C  
C      1  0.5429650000000  0.5564970000000  0.4689790000000 1.0
C      1  0.4897300000000  0.5139740000000  0.4531680000000 1.0
C      1  0.4944030000000  0.4873540000000  0.4259360000000 1.0
C      1  0.5025100000000  0.5842060000000  0.4714550000000 1.0
C      1  0.4811870000000  0.5970730000000  0.4863260000000 1.0
C      1  0.5341070000000  0.4863020000000  0.4556530000000 1.0
C      1  0.4452740000000  0.5074550000000  0.5339440000000 1.0
C      1  0.4883400000000  0.5373980000000  0.4159400000000 1.0
C      1  0.5151500000000  0.4553080000000  0.5940270000000 1.0
C      1  0.5099370000000  0.5500630000000  0.5060630000000 1.0
C      1  0.5903270000000  0.4610690000000  0.4954980000000 1.0
C      1  0.4599050000000  0.4268660000000  0.4707540000000 1.0
C      1  0.4899060000000  0.4660550000000  0.4732730000000 1.0
C      1  0.5263410000000  0.5408320000000  0.4479130000000 1.0
C      1  0.5094960000000  0.5535230000000  0.5378160000000 1.0
C      1  0.5561080000000  0.4277320000000  0.4986760000000 1.0
C      1  0.5412720000000  0.4813850000000  0.5621300000000 1.0
C      1  0.4329800000000  0.5500270000000  0.5498240000000 1.0
C      1  0.5918010000000  0.4979240000000  0.4602860000000 1.0
C      1  0.5594370000000  0.4989380000000  0.4899310000000 1.0
C      1  0.5146700000000  0.5224950000000  0.4965100000000 1.0
C      1  0.5249570000000  0.5789790000000  0.5442040000000 1.0
C      1  0.5766260000000  0.5361180000000  0.5052520000000 1.0
C      1  0.4864170000000  0.5871210000000  0.5127850000000 1.0
C      1  0.5237560000000  0.5705440000000  0.4884130000000 1.0
C      1  0.4531900000000  0.4443190000000  0.5290850000000 1.0
C      1  0.5603770000000  0.4400470000000  0.5258600000000 1.0
C      1  0.4653960000000  0.4621970000000  0.4314260000000 1.0
C      1  0.5824820000000  0.4771750000000  0.4434800000000 1.0
C      1  0.5068170000000  0.5139640000000  0.4125850000000 1.0
C      1  0.5268340000000  0.4895170000000  0.5281760000000 1.0
C      1  0.5396020000000  0.5129710000000  0.5110040000000 1.0
C      1  0.5365610000000  0.5908670000000  0.5078960000000 1.0
C      1  0.5019250000000  0.5549260000000  0.4359100000000 1.0
C      1  0.4224180000000  0.5537920000000  0.4994730000000 1.0
C      1  0.5222070000000  0.4307480000000  0.4643320000000 1.0
C      1  0.4741980000000  0.4584700000000  0.5654440000000 1.0
C      1  0.4422140000000  0.5740730000000  0.4993700000000 1.0
C      1  0.4246470000000  0.5290960000000  0.4549660000000 1.0
C      1  0.4450340000000  0.4626630000000  0.5682110000000 1.0
C      1  0.5511810000000  0.5279640000000  0.5505880000000 1.0
C      1  0.4808210000000  0.4096010000000  0.5093760000000 1.0
C      1  0.5345730000000  0.4357170000000  0.5907930000000 1.0
C      1  0.4671510000000  0.5079750000000  0.4902530000000 1.0
C      1  0.5665900000000  0.4496580000000  0.4808940000000 1.0
C      1  0.5519270000000  0.5742390000000  0.5295310000000 1.0
C      1  0.4488990000000  0.4422030000000  0.4471870000000 1.0
C      1  0.5762860000000  0.4907330000000  0.5298500000000 1.0
C      1  0.4241230000000  0.5265130000000  0.5371390000000 1.0
C      1  0.5048960000000  0.4502620000000  0.4541130000000 1.0
C      1  0.5570310000000  0.5444760000000  0.5259880000000 1.0
C      1  0.4711110000000  0.5377900000000  0.4652790000000 1.0
C      1  0.4988380000000  0.4991760000000  0.5804750000000 1.0
C      1  0.5972130000000  0.4898020000000  0.4882080000000 1.0
C      1  0.4558880000000  0.4979070000000  0.5581480000000 1.0
C      1  0.5907270000000  0.5092910000000  0.5116100000000 1.0
C      1  0.4456880000000  0.4943650000000  0.5068570000000 1.0
C      1  0.4065310000000  0.4726880000000  0.5047160000000 1.0
C      1  0.5569380000000  0.4870240000000  0.4354730000000 1.0
C      1  0.4488570000000  0.5392430000000  0.4460160000000 1.0
C      1  0.5342400000000  0.5279130000000  0.4214700000000 1.0
C      1  0.4171630000000  0.5013330000000  0.4962310000000 1.0
C      1  0.5505580000000  0.4232010000000  0.5736040000000 1.0
C      1  0.4582700000000  0.5616090000000  0.5452700000000 1.0
C      1  0.4563310000000  0.5849890000000  0.4764630000000 1.0
C      1  0.5233760000000  0.4824490000000  0.5852760000000 1.0
C      1  0.4126520000000  0.5293500000000  0.5103850000000 1.0
C      1  0.5587680000000  0.5130280000000  0.4238030000000 1.0
C      1  0.5106950000000  0.5986190000000  0.5253850000000 1.0
C      1  0.4249030000000  0.4507350000000  0.4903850000000 1.0
C      1  0.5810270000000  0.4617150000000  0.5239110000000 1.0
C      1  0.4743410000000  0.4474710000000  0.4897100000000 1.0
C      1  0.4505290000000  0.4615310000000  0.5045220000000 1.0
C      1  0.5453410000000  0.4717950000000  0.4837780000000 1.0
C      1  0.4300760000000  0.4509180000000  0.5462270000000 1.0
C      1  0.4905780000000  0.5099600000000  0.5083280000000 1.0
C      1  0.5224460000000  0.5304570000000  0.5515010000000 1.0
C      1  0.4110130000000  0.4658470000000  0.5316310000000 1.0
C      1  0.5159920000000  0.4705370000000  0.4376260000000 1.0
C      1  0.4967070000000  0.4905060000000  0.5295910000000 1.0
C      1  0.5289830000000  0.4668270000000  0.5098780000000 1.0
C      1  0.5051620000000  0.5268880000000  0.5741900000000 1.0
C      1  0.4516210000000  0.4868620000000  0.4330500000000 1.0
C      1  0.5614210000000  0.5002440000000  0.5529620000000 1.0
C      1  0.4831060000000  0.5658740000000  0.4557910000000 1.0
C      1  0.5665180000000  0.5403540000000  0.4774480000000 1.0
C      1  0.4836670000000  0.5514040000000  0.5545010000000 1.0
C      1  0.5283090000000  0.4178110000000  0.4888840000000 1.0
C      1  0.4181590000000  0.5048100000000  0.4664950000000 1.0
C      1  0.5745030000000  0.5209630000000  0.4574330000000 1.0
C      1  0.5053210000000  0.4508810000000  0.5121050000000 1.0
C      1  0.4382320000000  0.4198300000000  0.4912330000000 1.0
C      1  0.4602720000000  0.5779000000000  0.5219400000000 1.0
C      1  0.5060240000000  0.4227550000000  0.5090060000000 1.0
C      1  0.4319440000000  0.4837380000000  0.4533870000000 1.0
C      1  0.5594120000000  0.4243080000000  0.5486100000000 1.0
C      1  0.4540050000000  0.4165430000000  0.5166010000000 1.0
C      1  0.4886540000000  0.4491850000000  0.5873810000000 1.0
C      1  0.4828530000000  0.4864680000000  0.5576460000000 1.0
C      1  0.4739710000000  0.4899360000000  0.4646090000000 1.0
C      1  0.4607340000000  0.5327190000000  0.4213740000000 1.0
C      1  0.4278870000000  0.4569880000000  0.4614660000000 1.0
C      1  0.5174620000000  0.5160550000000  0.4644450000000 1.0
END
