TITL C-951336-9012-63 -6.10905451414304e-07 125000 -290.37764391164 0 0 48 (C1) n - 1
REM
REM in /home/bkarasulu/work/CARBON/AIRSS/Generating-Clusters/EDIP-Nigel-Params/with-SteepDescent/Only-C1/SD-CG/HFTN-CG
REM
REM
REM
REM
REM
REM ./C.cell (11c1c37f851c82e70ff6c80c92926a4b)
REM
REM compiler GCC version 9.2.1 20190827 (Red Hat 9.2.1-1)
REM options -cpp -mtune=generic -march=x86-64 -g -O0 -fpre-include=/usr/include/finclude/math-vector-fortran.h
REM seed -1725535396 536182272 -1979591473 -126885194 -1646092810 -1674695743 -78048572 -1278856694 805193887 1126410743 -1156810769 -1927016266 -861215061 1998107657 -2064103062 1988308609 -869138175 1983665801 -757452782 -84607219 -1075633802 674497430 1263079261 -1387861114 877816270 -1277541295 -1191980874 972864289 -927503935 315025228 807297894 -1444321100 -1626582750
REM
CELL 1.54180   50.00000   50.00000   50.00000   90.00000   90.00000   90.00000
LATT -1
SFAC C  
C      1  0.4970950000000  0.4424880000000  0.4669290000000 1.0
C      1  0.5452260000000  0.4504520000000  0.4678500000000 1.0
C      1  0.5483650000000  0.5427950000000  0.5267940000000 1.0
C      1  0.4328460000000  0.4680750000000  0.4989740000000 1.0
C      1  0.5486190000000  0.4929650000000  0.5309780000000 1.0
C      1  0.5461150000000  0.5437370000000  0.4989440000000 1.0
C      1  0.4745400000000  0.5214820000000  0.4805910000000 1.0
C      1  0.5231270000000  0.5263370000000  0.4908240000000 1.0
C      1  0.4562090000000  0.5550250000000  0.5097600000000 1.0
C      1  0.5181320000000  0.5205940000000  0.5571090000000 1.0
C      1  0.4723810000000  0.5132800000000  0.5106750000000 1.0
C      1  0.4454390000000  0.4628390000000  0.5243490000000 1.0
C      1  0.4531360000000  0.5424770000000  0.4832020000000 1.0
C      1  0.4870400000000  0.4636280000000  0.5082610000000 1.0
C      1  0.5440360000000  0.5202240000000  0.5435160000000 1.0
C      1  0.5008070000000  0.5353680000000  0.4733550000000 1.0
C      1  0.4742440000000  0.4830840000000  0.4584290000000 1.0
C      1  0.4695480000000  0.4481050000000  0.5256350000000 1.0
C      1  0.5778690000000  0.4859380000000  0.4924790000000 1.0
C      1  0.4908820000000  0.4860790000000  0.5512100000000 1.0
C      1  0.5267940000000  0.4934480000000  0.4532910000000 1.0
C      1  0.5046560000000  0.4533930000000  0.4399510000000 1.0
C      1  0.5274110000000  0.4864990000000  0.5095290000000 1.0
C      1  0.4931870000000  0.4914800000000  0.5211200000000 1.0
C      1  0.5078710000000  0.5328500000000  0.4464130000000 1.0
C      1  0.4260180000000  0.4958560000000  0.4972170000000 1.0
C      1  0.5318170000000  0.4655780000000  0.4452670000000 1.0
C      1  0.5220920000000  0.4401750000000  0.4839950000000 1.0
C      1  0.4851070000000  0.4735630000000  0.4340010000000 1.0
C      1  0.4521630000000  0.5007560000000  0.4561540000000 1.0
C      1  0.5657640000000  0.5083940000000  0.4783870000000 1.0
C      1  0.4807780000000  0.5671850000000  0.5158930000000 1.0
C      1  0.4965640000000  0.5372200000000  0.5463410000000 1.0
C      1  0.4328210000000  0.5120340000000  0.4740220000000 1.0
C      1  0.4655330000000  0.4987460000000  0.5586020000000 1.0
C      1  0.4998470000000  0.5624020000000  0.5344930000000 1.0
C      1  0.5665910000000  0.4627060000000  0.4818350000000 1.0
C      1  0.5115220000000  0.4955130000000  0.5678180000000 1.0
C      1  0.5367820000000  0.5014980000000  0.4804220000000 1.0
C      1  0.5211050000000  0.5130370000000  0.4337780000000 1.0
C      1  0.5704660000000  0.5343980000000  0.4878770000000 1.0
C      1  0.4397330000000  0.5082350000000  0.5206350000000 1.0
C      1  0.4481420000000  0.5360990000000  0.5317170000000 1.0
C      1  0.5742970000000  0.4894470000000  0.5201110000000 1.0
C      1  0.4691960000000  0.5285580000000  0.5521100000000 1.0
C      1  0.4428210000000  0.4875240000000  0.5415100000000 1.0
C      1  0.5169560000000  0.4560590000000  0.5086530000000 1.0
C      1  0.4783140000000  0.4623740000000  0.4789950000000 1.0
END
