TITL C-950526-5686-601 4.52476861834594e-07 125000 -1189.70272039182 0 0 191 (C1) n - 1
REM
REM in /home/bkarasulu/work/CARBON/AIRSS/Generating-Clusters/EDIP-Nigel-Params/with-SteepDescent/Only-C1/SD-CG/HFTN-CG
REM
REM
REM
REM
REM
REM ./C.cell (11c1c37f851c82e70ff6c80c92926a4b)
REM
REM compiler GCC version 9.2.1 20190827 (Red Hat 9.2.1-1)
REM options -cpp -mtune=generic -march=x86-64 -g -O0 -fpre-include=/usr/include/finclude/math-vector-fortran.h
REM seed -2060230721 677820736 1380304415 -1127280122 -1011181362 1278859413 -256745678 -1774036605 1862535767 1109988790 2129264933 -1758316247 -1626995166 551112978 -2065450043 -1983458988 763473183 1056623212 660852933 -1995009782 -222315 -2091084655 1366674322 386108751 -717439689 1709479017 -2096637603 447280342 2117887399 -859131636 -1580942691 -444606717 1581316854
REM
CELL 1.54180   50.00000   50.00000   50.00000   90.00000   90.00000   90.00000
LATT -1
SFAC C  
C      1  0.3996830000000  0.4666270000000  0.5241530000000 1.0
C      1  0.4932690000000  0.5404150000000  0.6061270000000 1.0
C      1  0.4479180000000  0.5958210000000  0.5656800000000 1.0
C      1  0.5714460000000  0.5561440000000  0.4388090000000 1.0
C      1  0.6024770000000  0.5476340000000  0.4396080000000 1.0
C      1  0.4210440000000  0.5634710000000  0.4565900000000 1.0
C      1  0.5146010000000  0.6089150000000  0.4627560000000 1.0
C      1  0.4134650000000  0.4952760000000  0.5643240000000 1.0
C      1  0.4782460000000  0.5804580000000  0.4945840000000 1.0
C      1  0.5386970000000  0.6080500000000  0.4772480000000 1.0
C      1  0.4406520000000  0.6010860000000  0.4761460000000 1.0
C      1  0.4648750000000  0.5090190000000  0.4501610000000 1.0
C      1  0.5489470000000  0.4959830000000  0.5825800000000 1.0
C      1  0.5179650000000  0.5546150000000  0.4497530000000 1.0
C      1  0.5304690000000  0.4743860000000  0.5666930000000 1.0
C      1  0.4290820000000  0.4310010000000  0.5558090000000 1.0
C      1  0.5126760000000  0.3908450000000  0.5187480000000 1.0
C      1  0.5043990000000  0.4342540000000  0.5157650000000 1.0
C      1  0.4586090000000  0.4291700000000  0.5520450000000 1.0
C      1  0.6070390000000  0.5016050000000  0.5028860000000 1.0
C      1  0.5640560000000  0.5765840000000  0.5609090000000 1.0
C      1  0.5618170000000  0.4781420000000  0.5231220000000 1.0
C      1  0.4415130000000  0.5716630000000  0.5503870000000 1.0
C      1  0.3987700000000  0.4655510000000  0.4934380000000 1.0
C      1  0.5476360000000  0.5183860000000  0.5529360000000 1.0
C      1  0.4618060000000  0.5834990000000  0.4313420000000 1.0
C      1  0.4172340000000  0.4972330000000  0.4278720000000 1.0
C      1  0.5557300000000  0.5374270000000  0.4928670000000 1.0
C      1  0.4186890000000  0.5552930000000  0.5118460000000 1.0
C      1  0.3785440000000  0.5181720000000  0.5023470000000 1.0
C      1  0.5742900000000  0.4813320000000  0.4420880000000 1.0
C      1  0.4904710000000  0.4731030000000  0.4964710000000 1.0
C      1  0.5615530000000  0.4210810000000  0.4484880000000 1.0
C      1  0.5783150000000  0.5092590000000  0.5818920000000 1.0
C      1  0.4484030000000  0.4480410000000  0.5075710000000 1.0
C      1  0.4417610000000  0.4622700000000  0.5924540000000 1.0
C      1  0.6087260000000  0.5473210000000  0.4698970000000 1.0
C      1  0.5903700000000  0.5682390000000  0.4820760000000 1.0
C      1  0.4912890000000  0.6102720000000  0.4798640000000 1.0
C      1  0.5548990000000  0.5825750000000  0.5143230000000 1.0
C      1  0.5087930000000  0.6012340000000  0.5453630000000 1.0
C      1  0.5822060000000  0.5247060000000  0.5369290000000 1.0
C      1  0.5489820000000  0.4519900000000  0.5208410000000 1.0
C      1  0.4721770000000  0.5565540000000  0.4767080000000 1.0
C      1  0.4956710000000  0.6269430000000  0.5027910000000 1.0
C      1  0.4977710000000  0.5822040000000  0.5641030000000 1.0
C      1  0.5088370000000  0.5665520000000  0.4033210000000 1.0
C      1  0.5414220000000  0.5618230000000  0.4750970000000 1.0
C      1  0.3864810000000  0.5172570000000  0.5288940000000 1.0
C      1  0.5683600000000  0.4658190000000  0.4171150000000 1.0
C      1  0.5162580000000  0.4845290000000  0.5415830000000 1.0
C      1  0.5114070000000  0.5082620000000  0.3881070000000 1.0
C      1  0.4608930000000  0.4359520000000  0.4822960000000 1.0
C      1  0.4802970000000  0.4856280000000  0.5707780000000 1.0
C      1  0.5205030000000  0.4583050000000  0.4396910000000 1.0
C      1  0.5314480000000  0.4956780000000  0.4788390000000 1.0
C      1  0.3910590000000  0.4805260000000  0.4690050000000 1.0
C      1  0.4589770000000  0.5644380000000  0.4082600000000 1.0
C      1  0.5745190000000  0.4834000000000  0.4946500000000 1.0
C      1  0.6035610000000  0.5183270000000  0.4310760000000 1.0
C      1  0.5258840000000  0.4127790000000  0.5629160000000 1.0
C      1  0.5242840000000  0.5738840000000  0.4262810000000 1.0
C      1  0.4387440000000  0.5195820000000  0.4616130000000 1.0
C      1  0.5998190000000  0.5174760000000  0.4772390000000 1.0
C      1  0.5823200000000  0.4764890000000  0.5470430000000 1.0
C      1  0.4081150000000  0.5394990000000  0.5354040000000 1.0
C      1  0.4660230000000  0.4485420000000  0.5977570000000 1.0
C      1  0.4447870000000  0.5436840000000  0.4802860000000 1.0
C      1  0.6009300000000  0.4733130000000  0.4549360000000 1.0
C      1  0.4885660000000  0.5246790000000  0.3965030000000 1.0
C      1  0.4801280000000  0.3980640000000  0.4412660000000 1.0
C      1  0.5218460000000  0.4126860000000  0.4229710000000 1.0
C      1  0.5674590000000  0.5717920000000  0.4628230000000 1.0
C      1  0.5471220000000  0.4481170000000  0.4726100000000 1.0
C      1  0.4589560000000  0.4946370000000  0.4087620000000 1.0
C      1  0.4303500000000  0.3994370000000  0.5093040000000 1.0
C      1  0.5188960000000  0.5605120000000  0.5252490000000 1.0
C      1  0.5115310000000  0.4757500000000  0.3842030000000 1.0
C      1  0.4865750000000  0.5115370000000  0.4688570000000 1.0
C      1  0.4721480000000  0.5427630000000  0.5232930000000 1.0
C      1  0.5753340000000  0.5089040000000  0.4304950000000 1.0
C      1  0.5765060000000  0.5370300000000  0.5864080000000 1.0
C      1  0.5290570000000  0.5279850000000  0.4438390000000 1.0
C      1  0.4990040000000  0.5043490000000  0.5560920000000 1.0
C      1  0.4089600000000  0.4390760000000  0.4851480000000 1.0
C      1  0.5342050000000  0.5577300000000  0.5935520000000 1.0
C      1  0.5548350000000  0.4161890000000  0.5607910000000 1.0
C      1  0.5327310000000  0.4397730000000  0.4180360000000 1.0
C      1  0.5558950000000  0.4781450000000  0.4694090000000 1.0
C      1  0.4415130000000  0.4743310000000  0.4996750000000 1.0
C      1  0.5891930000000  0.5708080000000  0.5498730000000 1.0
C      1  0.4518860000000  0.5243680000000  0.5928710000000 1.0
C      1  0.4260920000000  0.5385670000000  0.4412260000000 1.0
C      1  0.4718670000000  0.5880230000000  0.5791410000000 1.0
C      1  0.5906760000000  0.5510290000000  0.5301810000000 1.0
C      1  0.4922160000000  0.4591330000000  0.5253310000000 1.0
C      1  0.4891760000000  0.5703220000000  0.5224970000000 1.0
C      1  0.4280500000000  0.5155920000000  0.5438430000000 1.0
C      1  0.4736050000000  0.5304830000000  0.4312590000000 1.0
C      1  0.5060480000000  0.4626480000000  0.5799070000000 1.0
C      1  0.5110820000000  0.6001150000000  0.4351550000000 1.0
C      1  0.4775910000000  0.4332520000000  0.4070120000000 1.0
C      1  0.4667400000000  0.5550630000000  0.5501170000000 1.0
C      1  0.5945690000000  0.4337120000000  0.5372070000000 1.0
C      1  0.5329930000000  0.3988760000000  0.4971920000000 1.0
C      1  0.4233470000000  0.4295550000000  0.5100790000000 1.0
C      1  0.4613230000000  0.6173100000000  0.5176840000000 1.0
C      1  0.4891640000000  0.6144050000000  0.5279360000000 1.0
C      1  0.5184480000000  0.4748960000000  0.4935290000000 1.0
C      1  0.5044030000000  0.4334480000000  0.5702100000000 1.0
C      1  0.4491820000000  0.4294460000000  0.4194200000000 1.0
C      1  0.5596770000000  0.5284050000000  0.4460590000000 1.0
C      1  0.5697070000000  0.5213220000000  0.4732550000000 1.0
C      1  0.4865840000000  0.5521310000000  0.4508940000000 1.0
C      1  0.4394420000000  0.5869190000000  0.4517330000000 1.0
C      1  0.4330330000000  0.4342050000000  0.4649670000000 1.0
C      1  0.5342730000000  0.4643020000000  0.6187240000000 1.0
C      1  0.4516830000000  0.4994160000000  0.5040430000000 1.0
C      1  0.5469630000000  0.4774650000000  0.4000610000000 1.0
C      1  0.4255020000000  0.5286080000000  0.5802090000000 1.0
C      1  0.4109290000000  0.4400830000000  0.5350730000000 1.0
C      1  0.4445200000000  0.5374640000000  0.4182230000000 1.0
C      1  0.4902600000000  0.5211910000000  0.5164970000000 1.0
C      1  0.4719670000000  0.5442700000000  0.5870970000000 1.0
C      1  0.5202150000000  0.4005820000000  0.4708650000000 1.0
C      1  0.4812030000000  0.4548550000000  0.4732180000000 1.0
C      1  0.5135850000000  0.5054290000000  0.4561900000000 1.0
C      1  0.6120370000000  0.5012790000000  0.4547010000000 1.0
C      1  0.4509310000000  0.4034360000000  0.4360620000000 1.0
C      1  0.4808790000000  0.4807610000000  0.4199500000000 1.0
C      1  0.4018540000000  0.5075980000000  0.4614810000000 1.0
C      1  0.5797450000000  0.4320030000000  0.5650570000000 1.0
C      1  0.4866070000000  0.4621100000000  0.3976760000000 1.0
C      1  0.5356550000000  0.5169120000000  0.5032830000000 1.0
C      1  0.4366360000000  0.4498520000000  0.4380890000000 1.0
C      1  0.5646180000000  0.4277240000000  0.5251420000000 1.0
C      1  0.5461580000000  0.4901530000000  0.6119570000000 1.0
C      1  0.4358180000000  0.5095570000000  0.4091870000000 1.0
C      1  0.3920430000000  0.4634410000000  0.4467650000000 1.0
C      1  0.4940500000000  0.4214850000000  0.4304600000000 1.0
C      1  0.3925060000000  0.4901780000000  0.5414870000000 1.0
C      1  0.4530150000000  0.5039380000000  0.5331100000000 1.0
C      1  0.5895420000000  0.5041330000000  0.5555630000000 1.0
C      1  0.5370440000000  0.4032380000000  0.4469990000000 1.0
C      1  0.5188480000000  0.5339880000000  0.5961530000000 1.0
C      1  0.4336330000000  0.4731490000000  0.5675150000000 1.0
C      1  0.5955630000000  0.4604940000000  0.4832420000000 1.0
C      1  0.5745280000000  0.5600510000000  0.5071040000000 1.0
C      1  0.4876900000000  0.4082130000000  0.5153190000000 1.0
C      1  0.5141790000000  0.5346560000000  0.5100020000000 1.0
C      1  0.5197420000000  0.3914110000000  0.5459920000000 1.0
C      1  0.4445180000000  0.3896970000000  0.5312940000000 1.0
C      1  0.4657650000000  0.4998780000000  0.5916520000000 1.0
C      1  0.5436160000000  0.5864430000000  0.5412070000000 1.0
C      1  0.5192690000000  0.5251200000000  0.5667420000000 1.0
C      1  0.4142340000000  0.4680800000000  0.4302060000000 1.0
C      1  0.4835900000000  0.6012270000000  0.4289900000000 1.0
C      1  0.5549940000000  0.4552080000000  0.5979610000000 1.0
C      1  0.5358590000000  0.5847080000000  0.4930190000000 1.0
C      1  0.4455330000000  0.3920970000000  0.4851220000000 1.0
C      1  0.5407030000000  0.4998320000000  0.5290280000000 1.0
C      1  0.6147530000000  0.4721730000000  0.5067560000000 1.0
C      1  0.4644000000000  0.4531960000000  0.5340200000000 1.0
C      1  0.4912210000000  0.3945570000000  0.4681800000000 1.0
C      1  0.4799070000000  0.5016110000000  0.4961120000000 1.0
C      1  0.4851660000000  0.5538680000000  0.3957010000000 1.0
C      1  0.4675580000000  0.5692760000000  0.6003340000000 1.0
C      1  0.4575590000000  0.4784960000000  0.5501820000000 1.0
C      1  0.4516990000000  0.5942160000000  0.5021960000000 1.0
C      1  0.4190650000000  0.5538480000000  0.5627280000000 1.0
C      1  0.4723340000000  0.4065730000000  0.4879080000000 1.0
C      1  0.5166950000000  0.5573000000000  0.5585490000000 1.0
C      1  0.4668570000000  0.4050050000000  0.5372950000000 1.0
C      1  0.5621050000000  0.4371850000000  0.4218410000000 1.0
C      1  0.5290610000000  0.4983120000000  0.4110490000000 1.0
C      1  0.4335250000000  0.4044690000000  0.4603810000000 1.0
C      1  0.5104800000000  0.4857250000000  0.4322840000000 1.0
C      1  0.6059300000000  0.4616640000000  0.5343790000000 1.0
C      1  0.5713710000000  0.4590850000000  0.5728670000000 1.0
C      1  0.3910280000000  0.5285060000000  0.4798240000000 1.0
C      1  0.4067110000000  0.5537830000000  0.4840730000000 1.0
C      1  0.4984730000000  0.4434720000000  0.4519620000000 1.0
C      1  0.5532260000000  0.5708390000000  0.4206800000000 1.0
C      1  0.4342880000000  0.5776760000000  0.5210600000000 1.0
C      1  0.4755470000000  0.4305710000000  0.5765490000000 1.0
C      1  0.5721930000000  0.4301220000000  0.4788140000000 1.0
C      1  0.5062910000000  0.4636360000000  0.6091330000000 1.0
C      1  0.5294970000000  0.4481650000000  0.4995530000000 1.0
C      1  0.4828740000000  0.4526910000000  0.6204620000000 1.0
C      1  0.5566100000000  0.5544710000000  0.5773140000000 1.0
C      1  0.5613990000000  0.4106850000000  0.5006600000000 1.0
END
