TITL C-951346-9544-96 8.6648567024583e-07 125000 -477.60891001509 0 0 77 (C1) n - 1
REM
REM in /home/bkarasulu/work/CARBON/AIRSS/Generating-Clusters/EDIP-Nigel-Params/with-SteepDescent/Only-C1/SD-CG/HFTN-CG
REM
REM
REM
REM
REM
REM ./C.cell (11c1c37f851c82e70ff6c80c92926a4b)
REM
REM compiler GCC version 9.2.1 20190827 (Red Hat 9.2.1-1)
REM options -cpp -mtune=generic -march=x86-64 -g -O0 -fpre-include=/usr/include/finclude/math-vector-fortran.h
REM seed 1240791209 179597200 -486017622 1242889457 -1951181376 103327482 960732147 1371423571 -1313950157 -1505008372 -1890952445 -1926815287 1304955651 1031047112 -811497177 -51361948 1813791061 1931212050 1025185605 -380425187 -1407251264 -667671141 625546202 -1711031550 2062829319 -522400962 1536964105 -604201146 1951237151 246187892 -728184140 -720346476 -1181101125
REM
CELL 1.54180   50.00000   50.00000   50.00000   90.00000   90.00000   90.00000
LATT -1
SFAC C  
C      1  0.5005440000000  0.4296420000000  0.5227730000000 1.0
C      1  0.5296400000000  0.4768430000000  0.5782890000000 1.0
C      1  0.4767680000000  0.4831720000000  0.4786050000000 1.0
C      1  0.5743000000000  0.5092500000000  0.4815780000000 1.0
C      1  0.5617170000000  0.5469640000000  0.5307020000000 1.0
C      1  0.4565890000000  0.5430880000000  0.5588940000000 1.0
C      1  0.4718410000000  0.4434550000000  0.4449400000000 1.0
C      1  0.4668750000000  0.5183940000000  0.4284510000000 1.0
C      1  0.4361060000000  0.5197990000000  0.4671100000000 1.0
C      1  0.4856550000000  0.4698110000000  0.5791440000000 1.0
C      1  0.4464050000000  0.5015390000000  0.5389670000000 1.0
C      1  0.4957520000000  0.4870280000000  0.4165540000000 1.0
C      1  0.5181220000000  0.5299120000000  0.4324090000000 1.0
C      1  0.5157870000000  0.4743610000000  0.5243190000000 1.0
C      1  0.5803810000000  0.5028990000000  0.5084960000000 1.0
C      1  0.4458230000000  0.5470610000000  0.5055350000000 1.0
C      1  0.5310990000000  0.5164070000000  0.4990340000000 1.0
C      1  0.4290310000000  0.4739970000000  0.5050210000000 1.0
C      1  0.4816940000000  0.5718140000000  0.5301320000000 1.0
C      1  0.4230060000000  0.4966040000000  0.4588410000000 1.0
C      1  0.5358720000000  0.4267100000000  0.4750590000000 1.0
C      1  0.5289950000000  0.4853770000000  0.4525920000000 1.0
C      1  0.4447520000000  0.5198940000000  0.4955660000000 1.0
C      1  0.4883380000000  0.4763510000000  0.5358910000000 1.0
C      1  0.5236470000000  0.5208330000000  0.5510800000000 1.0
C      1  0.4399840000000  0.4757030000000  0.4681990000000 1.0
C      1  0.5206240000000  0.5637970000000  0.5051120000000 1.0
C      1  0.4340250000000  0.4575230000000  0.5289650000000 1.0
C      1  0.4910940000000  0.4122040000000  0.4762540000000 1.0
C      1  0.5359450000000  0.5148350000000  0.4496900000000 1.0
C      1  0.4569020000000  0.4691480000000  0.4435160000000 1.0
C      1  0.4902530000000  0.4954700000000  0.5694070000000 1.0
C      1  0.5512810000000  0.5627830000000  0.5063840000000 1.0
C      1  0.4537690000000  0.5344380000000  0.4483540000000 1.0
C      1  0.5247620000000  0.5694090000000  0.5508150000000 1.0
C      1  0.4425150000000  0.4741080000000  0.5510790000000 1.0
C      1  0.5131070000000  0.4231490000000  0.4594900000000 1.0
C      1  0.4770070000000  0.4489010000000  0.5206390000000 1.0
C      1  0.4737210000000  0.4911460000000  0.4352980000000 1.0
C      1  0.4762410000000  0.5034230000000  0.5272740000000 1.0
C      1  0.4397060000000  0.5226130000000  0.5571390000000 1.0
C      1  0.5243740000000  0.4872860000000  0.4984170000000 1.0
C      1  0.4686180000000  0.4319150000000  0.4723940000000 1.0
C      1  0.5492560000000  0.4702180000000  0.4912310000000 1.0
C      1  0.5170450000000  0.5033320000000  0.5735530000000 1.0
C      1  0.5558380000000  0.4616650000000  0.5380270000000 1.0
C      1  0.4690400000000  0.5626360000000  0.5045850000000 1.0
C      1  0.5019740000000  0.4442620000000  0.4410630000000 1.0
C      1  0.5597260000000  0.5533130000000  0.4796910000000 1.0
C      1  0.4977370000000  0.5277740000000  0.5353170000000 1.0
C      1  0.4818300000000  0.5499190000000  0.5496570000000 1.0
C      1  0.4619210000000  0.4614280000000  0.5672930000000 1.0
C      1  0.5541360000000  0.4731930000000  0.4623820000000 1.0
C      1  0.5418210000000  0.4424700000000  0.4971230000000 1.0
C      1  0.4291830000000  0.5018340000000  0.5138300000000 1.0
C      1  0.5172890000000  0.5577110000000  0.4327920000000 1.0
C      1  0.5165140000000  0.4694150000000  0.4290250000000 1.0
C      1  0.4717600000000  0.4552900000000  0.4913950000000 1.0
C      1  0.5408810000000  0.5458260000000  0.5528120000000 1.0
C      1  0.5532170000000  0.4717560000000  0.5638760000000 1.0
C      1  0.5025400000000  0.5158820000000  0.4129660000000 1.0
C      1  0.5085530000000  0.5724060000000  0.4785980000000 1.0
C      1  0.5523420000000  0.5715920000000  0.4598500000000 1.0
C      1  0.4522740000000  0.4360620000000  0.5299690000000 1.0
C      1  0.5103280000000  0.5792040000000  0.5284270000000 1.0
C      1  0.5074700000000  0.4834630000000  0.4748190000000 1.0
C      1  0.5672050000000  0.4771860000000  0.5143640000000 1.0
C      1  0.5782360000000  0.5241900000000  0.5265510000000 1.0
C      1  0.4658990000000  0.5583570000000  0.4567790000000 1.0
C      1  0.4714680000000  0.5062040000000  0.4977030000000 1.0
C      1  0.5272140000000  0.4458860000000  0.5239750000000 1.0
C      1  0.5499280000000  0.5243050000000  0.4763930000000 1.0
C      1  0.4985640000000  0.4096730000000  0.5034110000000 1.0
C      1  0.5101510000000  0.4562010000000  0.5825570000000 1.0
C      1  0.4795840000000  0.5694160000000  0.4784020000000 1.0
C      1  0.5250980000000  0.5735090000000  0.4543130000000 1.0
C      1  0.5113100000000  0.5353660000000  0.5088670000000 1.0
END
