TITL C-951337-3020-132 -3.76832769632036e-06 125000 -1199.08525234724 0 0 191 (C1) n - 1
REM
REM in /home/bkarasulu/work/CARBON/AIRSS/Generating-Clusters/EDIP-Nigel-Params/with-SteepDescent/Only-C1/SD-CG/HFTN-CG
REM
REM
REM
REM
REM
REM ./C.cell (11c1c37f851c82e70ff6c80c92926a4b)
REM
REM compiler GCC version 9.2.1 20190827 (Red Hat 9.2.1-1)
REM options -cpp -mtune=generic -march=x86-64 -g -O0 -fpre-include=/usr/include/finclude/math-vector-fortran.h
REM seed -73182 1514965475 1980411599 -1675446077 -903621803 -2020485996 2011451803 2106601091 1388044450 -948119350 272611739 -1040885317 150919988 -409787614 1344472093 -526004239 1792096564 -1474698389 58433304 681929879 921507444 1965548769 1575140646 -1882841427 -870930673 2071999131 -1445613670 -2020283449 924477809 -259105094 1899398731 1845001724 -530791349
REM
CELL 1.54180   50.00000   50.00000   50.00000   90.00000   90.00000   90.00000
LATT -1
SFAC C  
C      1  0.4815870000000  0.5403670000000  0.5310400000000 1.0
C      1  0.5170680000000  0.5192530000000  0.6066720000000 1.0
C      1  0.6034140000000  0.5497930000000  0.4905170000000 1.0
C      1  0.4349650000000  0.5839730000000  0.5436960000000 1.0
C      1  0.4672580000000  0.5008300000000  0.6085090000000 1.0
C      1  0.5174620000000  0.5458730000000  0.4937960000000 1.0
C      1  0.4768100000000  0.5190860000000  0.5111630000000 1.0
C      1  0.5459550000000  0.5372900000000  0.4876010000000 1.0
C      1  0.4696580000000  0.3966450000000  0.4612670000000 1.0
C      1  0.4481420000000  0.5145180000000  0.5053630000000 1.0
C      1  0.4347990000000  0.4692140000000  0.5250800000000 1.0
C      1  0.5414900000000  0.5005450000000  0.6040230000000 1.0
C      1  0.4842490000000  0.5787280000000  0.5646510000000 1.0
C      1  0.5469780000000  0.3959270000000  0.5253140000000 1.0
C      1  0.4022150000000  0.5522140000000  0.4785780000000 1.0
C      1  0.3904070000000  0.5178470000000  0.5100730000000 1.0
C      1  0.4144710000000  0.4271240000000  0.5364020000000 1.0
C      1  0.4644760000000  0.5550170000000  0.4728240000000 1.0
C      1  0.4642830000000  0.4969460000000  0.3939150000000 1.0
C      1  0.4422750000000  0.4839230000000  0.4085550000000 1.0
C      1  0.4851380000000  0.6171860000000  0.4411650000000 1.0
C      1  0.5371460000000  0.4886420000000  0.4932030000000 1.0
C      1  0.4054340000000  0.5182120000000  0.5693490000000 1.0
C      1  0.4954590000000  0.3845390000000  0.5276420000000 1.0
C      1  0.5249730000000  0.5129120000000  0.4489690000000 1.0
C      1  0.5207350000000  0.4190940000000  0.5558310000000 1.0
C      1  0.5060120000000  0.4890880000000  0.4906970000000 1.0
C      1  0.5074200000000  0.4740730000000  0.6191090000000 1.0
C      1  0.4797530000000  0.5319450000000  0.4329480000000 1.0
C      1  0.5522520000000  0.5873360000000  0.4695640000000 1.0
C      1  0.5405420000000  0.4546960000000  0.5845130000000 1.0
C      1  0.4823640000000  0.4311130000000  0.4292750000000 1.0
C      1  0.4069300000000  0.4606810000000  0.4921510000000 1.0
C      1  0.4278280000000  0.4800590000000  0.5903360000000 1.0
C      1  0.4488970000000  0.5244710000000  0.6000650000000 1.0
C      1  0.5351290000000  0.5474960000000  0.5367730000000 1.0
C      1  0.5177800000000  0.4591770000000  0.5210700000000 1.0
C      1  0.5416580000000  0.6020880000000  0.5113920000000 1.0
C      1  0.5764850000000  0.4694460000000  0.4258940000000 1.0
C      1  0.5166220000000  0.6188870000000  0.4752240000000 1.0
C      1  0.5927890000000  0.4887920000000  0.4913300000000 1.0
C      1  0.4493240000000  0.4559790000000  0.4021440000000 1.0
C      1  0.4095670000000  0.4680130000000  0.5687450000000 1.0
C      1  0.4740570000000  0.6101100000000  0.5291620000000 1.0
C      1  0.4778160000000  0.4722230000000  0.3842520000000 1.0
C      1  0.5229260000000  0.3823460000000  0.5215520000000 1.0
C      1  0.4502510000000  0.5875190000000  0.4596030000000 1.0
C      1  0.4720760000000  0.6093740000000  0.4992060000000 1.0
C      1  0.5694660000000  0.4963480000000  0.4205000000000 1.0
C      1  0.5676370000000  0.4312210000000  0.5525950000000 1.0
C      1  0.5442270000000  0.4625650000000  0.5097810000000 1.0
C      1  0.5910200000000  0.5383210000000  0.4415000000000 1.0
C      1  0.5979840000000  0.4455190000000  0.5240460000000 1.0
C      1  0.5124000000000  0.5021890000000  0.5379570000000 1.0
C      1  0.4074700000000  0.5620450000000  0.5052060000000 1.0
C      1  0.4519000000000  0.5053280000000  0.4548400000000 1.0
C      1  0.4841840000000  0.5488180000000  0.3984900000000 1.0
C      1  0.5969630000000  0.4605860000000  0.4985040000000 1.0
C      1  0.5819980000000  0.4906510000000  0.5349410000000 1.0
C      1  0.5508790000000  0.5129920000000  0.5056820000000 1.0
C      1  0.6027780000000  0.4554310000000  0.5512710000000 1.0
C      1  0.4602710000000  0.5338660000000  0.5533800000000 1.0
C      1  0.4761840000000  0.3797590000000  0.4824440000000 1.0
C      1  0.4961900000000  0.5000110000000  0.6162930000000 1.0
C      1  0.4700600000000  0.5938370000000  0.4386850000000 1.0
C      1  0.4989530000000  0.5239070000000  0.4554150000000 1.0
C      1  0.3924230000000  0.4432960000000  0.4750680000000 1.0
C      1  0.4564710000000  0.4248250000000  0.5969570000000 1.0
C      1  0.4821710000000  0.5740160000000  0.4201020000000 1.0
C      1  0.5595570000000  0.5647610000000  0.5273880000000 1.0
C      1  0.5530320000000  0.4336560000000  0.4137300000000 1.0
C      1  0.5223060000000  0.5690950000000  0.4521550000000 1.0
C      1  0.5127380000000  0.5563090000000  0.3934900000000 1.0
C      1  0.4659510000000  0.4662730000000  0.5208670000000 1.0
C      1  0.4508630000000  0.5062940000000  0.5569450000000 1.0
C      1  0.4672530000000  0.4676760000000  0.4911680000000 1.0
C      1  0.4823480000000  0.3988260000000  0.5613550000000 1.0
C      1  0.4605910000000  0.4134700000000  0.5240260000000 1.0
C      1  0.5056730000000  0.4331580000000  0.5238190000000 1.0
C      1  0.4312960000000  0.4159470000000  0.4870010000000 1.0
C      1  0.4171800000000  0.4841420000000  0.4793080000000 1.0
C      1  0.5117070000000  0.5584860000000  0.5201650000000 1.0
C      1  0.5730520000000  0.4421260000000  0.4326820000000 1.0
C      1  0.5482180000000  0.5020610000000  0.4005230000000 1.0
C      1  0.4856130000000  0.5114450000000  0.4096100000000 1.0
C      1  0.5548010000000  0.5901980000000  0.5438480000000 1.0
C      1  0.4384310000000  0.4357340000000  0.4479700000000 1.0
C      1  0.3948930000000  0.4933290000000  0.5567000000000 1.0
C      1  0.4492930000000  0.5932540000000  0.4890710000000 1.0
C      1  0.5029940000000  0.6098050000000  0.5370610000000 1.0
C      1  0.5080020000000  0.5365370000000  0.5816840000000 1.0
C      1  0.5006750000000  0.4213980000000  0.4946020000000 1.0
C      1  0.5451840000000  0.5516110000000  0.4442500000000 1.0
C      1  0.3986660000000  0.5421830000000  0.5245130000000 1.0
C      1  0.3983810000000  0.4938420000000  0.5272630000000 1.0
C      1  0.5689780000000  0.4343080000000  0.4627340000000 1.0
C      1  0.5230200000000  0.4512650000000  0.4490910000000 1.0
C      1  0.4988190000000  0.5140440000000  0.5616030000000 1.0
C      1  0.4728620000000  0.4234490000000  0.5740240000000 1.0
C      1  0.5480880000000  0.5271140000000  0.4579120000000 1.0
C      1  0.5368920000000  0.5183320000000  0.5309070000000 1.0
C      1  0.5853820000000  0.5057820000000  0.5593760000000 1.0
C      1  0.5774010000000  0.4889820000000  0.5808300000000 1.0
C      1  0.4564300000000  0.4218350000000  0.4694970000000 1.0
C      1  0.5699390000000  0.5032440000000  0.6045690000000 1.0
C      1  0.5184700000000  0.4347930000000  0.5798630000000 1.0
C      1  0.4307000000000  0.4969850000000  0.4344290000000 1.0
C      1  0.4878660000000  0.4977420000000  0.4677490000000 1.0
C      1  0.4649940000000  0.4487150000000  0.6093470000000 1.0
C      1  0.4332730000000  0.4211090000000  0.5158410000000 1.0
C      1  0.4129120000000  0.5224450000000  0.4295900000000 1.0
C      1  0.4843870000000  0.5573190000000  0.5847820000000 1.0
C      1  0.4915610000000  0.4949820000000  0.5154010000000 1.0
C      1  0.5138810000000  0.5924150000000  0.5151990000000 1.0
C      1  0.4911520000000  0.4460210000000  0.5811260000000 1.0
C      1  0.5653570000000  0.4075350000000  0.5060680000000 1.0
C      1  0.4885460000000  0.4665620000000  0.5586080000000 1.0
C      1  0.5496110000000  0.4534510000000  0.3938590000000 1.0
C      1  0.5271400000000  0.4070520000000  0.4732600000000 1.0
C      1  0.5104500000000  0.5814710000000  0.4112440000000 1.0
C      1  0.4771920000000  0.4938220000000  0.5661060000000 1.0
C      1  0.5633460000000  0.5681430000000  0.4931120000000 1.0
C      1  0.5700910000000  0.5597840000000  0.4305110000000 1.0
C      1  0.5741560000000  0.5136970000000  0.4455920000000 1.0
C      1  0.4083220000000  0.4841770000000  0.4512380000000 1.0
C      1  0.4310940000000  0.5080360000000  0.5810140000000 1.0
C      1  0.4538920000000  0.5358940000000  0.4501980000000 1.0
C      1  0.4607450000000  0.3923730000000  0.5447650000000 1.0
C      1  0.3931590000000  0.5109440000000  0.4535760000000 1.0
C      1  0.4288290000000  0.5817960000000  0.5121060000000 1.0
C      1  0.5764030000000  0.5334220000000  0.5593130000000 1.0
C      1  0.5273530000000  0.5942620000000  0.4334790000000 1.0
C      1  0.4821010000000  0.3985750000000  0.5039740000000 1.0
C      1  0.5921470000000  0.4435630000000  0.4770210000000 1.0
C      1  0.3963500000000  0.4665910000000  0.5172620000000 1.0
C      1  0.5417720000000  0.4720550000000  0.5601160000000 1.0
C      1  0.4562180000000  0.5473410000000  0.5800920000000 1.0
C      1  0.5127240000000  0.6178060000000  0.4460310000000 1.0
C      1  0.5161100000000  0.4738110000000  0.5461600000000 1.0
C      1  0.4283630000000  0.5463530000000  0.4377000000000 1.0
C      1  0.4989810000000  0.6008520000000  0.4905480000000 1.0
C      1  0.4645630000000  0.5842690000000  0.5408270000000 1.0
C      1  0.4280020000000  0.5621700000000  0.5626420000000 1.0
C      1  0.5616520000000  0.4654840000000  0.5374500000000 1.0
C      1  0.5889240000000  0.4190960000000  0.5180720000000 1.0
C      1  0.5836590000000  0.5493440000000  0.5361150000000 1.0
C      1  0.5488230000000  0.5305350000000  0.3906250000000 1.0
C      1  0.4793170000000  0.4414000000000  0.4787240000000 1.0
C      1  0.5500530000000  0.4811940000000  0.4661570000000 1.0
C      1  0.5189770000000  0.4047760000000  0.4448550000000 1.0
C      1  0.5003630000000  0.5512160000000  0.4704810000000 1.0
C      1  0.5958670000000  0.5333660000000  0.5140330000000 1.0
C      1  0.5339670000000  0.4766130000000  0.3893620000000 1.0
C      1  0.4491840000000  0.5508810000000  0.4996040000000 1.0
C      1  0.5567640000000  0.4091650000000  0.4775670000000 1.0
C      1  0.5337500000000  0.5525630000000  0.5677400000000 1.0
C      1  0.4127080000000  0.4266790000000  0.4644760000000 1.0
C      1  0.4136020000000  0.5627290000000  0.4552690000000 1.0
C      1  0.5077060000000  0.5957880000000  0.5625620000000 1.0
C      1  0.5348370000000  0.5832530000000  0.5653280000000 1.0
C      1  0.5336450000000  0.4729070000000  0.6087390000000 1.0
C      1  0.4533690000000  0.4745940000000  0.6045480000000 1.0
C      1  0.3973750000000  0.5237860000000  0.4807220000000 1.0
C      1  0.4767970000000  0.4391930000000  0.5329610000000 1.0
C      1  0.5298110000000  0.4869380000000  0.4367920000000 1.0
C      1  0.5284080000000  0.5416280000000  0.3753310000000 1.0
C      1  0.4918630000000  0.4502030000000  0.4523030000000 1.0
C      1  0.4532250000000  0.4354820000000  0.4226160000000 1.0
C      1  0.5451580000000  0.4510540000000  0.4712880000000 1.0
C      1  0.5615710000000  0.5913950000000  0.4385760000000 1.0
C      1  0.5679780000000  0.4412960000000  0.5808910000000 1.0
C      1  0.4464650000000  0.4926410000000  0.4826130000000 1.0
C      1  0.5919260000000  0.5747580000000  0.4921140000000 1.0
C      1  0.5591690000000  0.5439370000000  0.5790770000000 1.0
C      1  0.5441020000000  0.6117700000000  0.4836820000000 1.0
C      1  0.5810840000000  0.5071380000000  0.5108710000000 1.0
C      1  0.5008370000000  0.4862500000000  0.4227190000000 1.0
C      1  0.4099270000000  0.5413990000000  0.5517350000000 1.0
C      1  0.4249820000000  0.4513510000000  0.5476150000000 1.0
C      1  0.5040490000000  0.4668050000000  0.3991330000000 1.0
C      1  0.4846260000000  0.4774130000000  0.4457220000000 1.0
C      1  0.5039620000000  0.4378720000000  0.4088110000000 1.0
C      1  0.5891070000000  0.4613630000000  0.5768310000000 1.0
C      1  0.6065690000000  0.5409200000000  0.4643780000000 1.0
C      1  0.5271820000000  0.4298120000000  0.4278850000000 1.0
C      1  0.5639940000000  0.5503260000000  0.4039170000000 1.0
C      1  0.4890110000000  0.4036460000000  0.4400760000000 1.0
C      1  0.4679120000000  0.5626470000000  0.5202800000000 1.0
C      1  0.5860260000000  0.4930790000000  0.4639530000000 1.0
C      1  0.5471250000000  0.4105740000000  0.5497930000000 1.0
C      1  0.4369160000000  0.4993060000000  0.5302540000000 1.0
END
