TITL C-951346-9544-583 -3.78452864726305e-06 125000 -371.329134235273 0 0 61 (C1) n - 1
REM
REM in /home/bkarasulu/work/CARBON/AIRSS/Generating-Clusters/EDIP-Nigel-Params/with-SteepDescent/Only-C1/SD-CG/HFTN-CG
REM
REM
REM
REM
REM
REM ./C.cell (11c1c37f851c82e70ff6c80c92926a4b)
REM
REM compiler GCC version 9.2.1 20190827 (Red Hat 9.2.1-1)
REM options -cpp -mtune=generic -march=x86-64 -g -O0 -fpre-include=/usr/include/finclude/math-vector-fortran.h
REM seed 1017516910 -578285187 -1226905448 1522669882 -1052248199 1530470342 728495350 1559678945 295193673 245820244 -1447220272 852514823 -2061002038 -1250560186 1499151000 2008422859 1293224104 1653177265 370939121 -1654759024 -1817967125 -884119138 -567643359 747910212 -853255323 646304911 -254944782 -1539624338 -1920997636 -152610500 -958144468 1254112777 1765426498
REM
CELL 1.54180   50.00000   50.00000   50.00000   90.00000   90.00000   90.00000
LATT -1
SFAC C  
C      1  0.4448760000000  0.5338990000000  0.5511960000000 1.0
C      1  0.5227220000000  0.4774620000000  0.4391970000000 1.0
C      1  0.4433650000000  0.5392950000000  0.5228990000000 1.0
C      1  0.5272600000000  0.4373450000000  0.4625530000000 1.0
C      1  0.5268540000000  0.4964040000000  0.5686010000000 1.0
C      1  0.5554470000000  0.4515090000000  0.4841110000000 1.0
C      1  0.4866930000000  0.5570740000000  0.5330080000000 1.0
C      1  0.4631980000000  0.5592670000000  0.5147470000000 1.0
C      1  0.4381960000000  0.4898620000000  0.5095110000000 1.0
C      1  0.4703040000000  0.4504370000000  0.5104610000000 1.0
C      1  0.5134270000000  0.4484260000000  0.4377530000000 1.0
C      1  0.5647690000000  0.5035660000000  0.4777500000000 1.0
C      1  0.4478200000000  0.4917710000000  0.5387720000000 1.0
C      1  0.5652220000000  0.4743280000000  0.5262210000000 1.0
C      1  0.5619000000000  0.4765490000000  0.4744540000000 1.0
C      1  0.5121660000000  0.5679470000000  0.5229880000000 1.0
C      1  0.5116010000000  0.4523820000000  0.4819140000000 1.0
C      1  0.5315420000000  0.5493510000000  0.4783130000000 1.0
C      1  0.5051780000000  0.5634030000000  0.4528210000000 1.0
C      1  0.5022870000000  0.4157580000000  0.5130850000000 1.0
C      1  0.4732510000000  0.5076060000000  0.5295030000000 1.0
C      1  0.4449960000000  0.5191000000000  0.4988780000000 1.0
C      1  0.5106390000000  0.4801650000000  0.4685930000000 1.0
C      1  0.4526750000000  0.4679650000000  0.4946800000000 1.0
C      1  0.4399250000000  0.4869320000000  0.4502070000000 1.0
C      1  0.4692980000000  0.5580300000000  0.4859650000000 1.0
C      1  0.5596340000000  0.4503570000000  0.5129350000000 1.0
C      1  0.5203410000000  0.4703090000000  0.5605650000000 1.0
C      1  0.5156440000000  0.5259420000000  0.4731920000000 1.0
C      1  0.4590590000000  0.5276110000000  0.5739970000000 1.0
C      1  0.5057650000000  0.5090310000000  0.5821600000000 1.0
C      1  0.5096740000000  0.5804470000000  0.4976090000000 1.0
C      1  0.4820060000000  0.4908660000000  0.4708700000000 1.0
C      1  0.5451120000000  0.4319000000000  0.5277130000000 1.0
C      1  0.5189280000000  0.5207090000000  0.5317920000000 1.0
C      1  0.4871810000000  0.5268370000000  0.5716610000000 1.0
C      1  0.4766890000000  0.5148330000000  0.4912520000000 1.0
C      1  0.5043540000000  0.4515130000000  0.5470580000000 1.0
C      1  0.4589500000000  0.5029030000000  0.4356410000000 1.0
C      1  0.5103760000000  0.5228610000000  0.4246730000000 1.0
C      1  0.5172590000000  0.4979430000000  0.5116000000000 1.0
C      1  0.4593080000000  0.4703960000000  0.4649820000000 1.0
C      1  0.5422880000000  0.5150030000000  0.5493410000000 1.0
C      1  0.4691270000000  0.5272520000000  0.4496090000000 1.0
C      1  0.4522780000000  0.5418100000000  0.4684490000000 1.0
C      1  0.5341080000000  0.5469570000000  0.5271580000000 1.0
C      1  0.4556010000000  0.4683200000000  0.5524570000000 1.0
C      1  0.4805090000000  0.4834880000000  0.4270790000000 1.0
C      1  0.5175950000000  0.4304990000000  0.5316240000000 1.0
C      1  0.5621510000000  0.5021530000000  0.5291100000000 1.0
C      1  0.4913540000000  0.4356700000000  0.4961570000000 1.0
C      1  0.4921720000000  0.5737750000000  0.4764350000000 1.0
C      1  0.4913080000000  0.5288380000000  0.5428470000000 1.0
C      1  0.5269620000000  0.5006110000000  0.4835240000000 1.0
C      1  0.5494420000000  0.5443860000000  0.5018600000000 1.0
C      1  0.4991030000000  0.5339560000000  0.4486890000000 1.0
C      1  0.4772470000000  0.4585560000000  0.5375650000000 1.0
C      1  0.4838320000000  0.4562190000000  0.4390210000000 1.0
C      1  0.5626550000000  0.5173930000000  0.5030870000000 1.0
C      1  0.4893040000000  0.4897130000000  0.5089550000000 1.0
C      1  0.5070720000000  0.4951060000000  0.4211470000000 1.0
END
