TITL C-951336-9012-15 -2.40851481807215e-06 125000 -438.394492213465 0 0 71 (C1) n - 1
REM
REM in /home/bkarasulu/work/CARBON/AIRSS/Generating-Clusters/EDIP-Nigel-Params/with-SteepDescent/Only-C1/SD-CG/HFTN-CG
REM
REM
REM
REM
REM
REM ./C.cell (11c1c37f851c82e70ff6c80c92926a4b)
REM
REM compiler GCC version 9.2.1 20190827 (Red Hat 9.2.1-1)
REM options -cpp -mtune=generic -march=x86-64 -g -O0 -fpre-include=/usr/include/finclude/math-vector-fortran.h
REM seed 1257387160 1743585657 -1419843332 -854367964 -1280206476 14518707 512449158 -1649384897 -836784828 -1778707811 955791257 1438093354 1237265535 -813860694 -1055029958 1184156001 -1811946903 744635919 441128064 -1682173341 1922638377 350111857 -864026219 -1382916987 -252152749 1335102482 -587058124 2121324435 -879389741 468225023 1058959111 -1741720397 -773832466
REM
CELL 1.54180   50.00000   50.00000   50.00000   90.00000   90.00000   90.00000
LATT -1
SFAC C  
C      1  0.5361780000000  0.4380750000000  0.5248930000000 1.0
C      1  0.4841300000000  0.4147190000000  0.4809200000000 1.0
C      1  0.4339640000000  0.4674170000000  0.4951030000000 1.0
C      1  0.5159150000000  0.5008510000000  0.4852050000000 1.0
C      1  0.5537790000000  0.4614550000000  0.5192220000000 1.0
C      1  0.5236720000000  0.5389990000000  0.4387440000000 1.0
C      1  0.5217040000000  0.4465800000000  0.5490360000000 1.0
C      1  0.5105080000000  0.4231850000000  0.4832550000000 1.0
C      1  0.4439900000000  0.5270730000000  0.5359740000000 1.0
C      1  0.4819350000000  0.5628980000000  0.5420580000000 1.0
C      1  0.4795560000000  0.5180850000000  0.5113540000000 1.0
C      1  0.4779000000000  0.4447640000000  0.5207690000000 1.0
C      1  0.4635340000000  0.4922270000000  0.5166270000000 1.0
C      1  0.5626700000000  0.4717180000000  0.5460250000000 1.0
C      1  0.4827200000000  0.4619990000000  0.4395020000000 1.0
C      1  0.4810740000000  0.5312540000000  0.4586690000000 1.0
C      1  0.4327960000000  0.4879910000000  0.4737690000000 1.0
C      1  0.4688630000000  0.4876330000000  0.4358840000000 1.0
C      1  0.5030050000000  0.5534400000000  0.4566650000000 1.0
C      1  0.5217940000000  0.4945330000000  0.5586440000000 1.0
C      1  0.5739040000000  0.5430720000000  0.5159240000000 1.0
C      1  0.5580470000000  0.5538890000000  0.4943140000000 1.0
C      1  0.5658600000000  0.4901030000000  0.4789400000000 1.0
C      1  0.5186950000000  0.4507600000000  0.4741520000000 1.0
C      1  0.5750750000000  0.4977930000000  0.5505680000000 1.0
C      1  0.5755980000000  0.5086660000000  0.4987260000000 1.0
C      1  0.4381410000000  0.5553580000000  0.4603230000000 1.0
C      1  0.4925370000000  0.5833270000000  0.5251850000000 1.0
C      1  0.5366960000000  0.4698540000000  0.5608840000000 1.0
C      1  0.4961810000000  0.4954970000000  0.5699220000000 1.0
C      1  0.5473570000000  0.4494160000000  0.4745300000000 1.0
C      1  0.5575800000000  0.5443010000000  0.5404830000000 1.0
C      1  0.4646310000000  0.5557500000000  0.4536240000000 1.0
C      1  0.4794140000000  0.4729820000000  0.5611270000000 1.0
C      1  0.5638180000000  0.4635830000000  0.4915420000000 1.0
C      1  0.4813490000000  0.4692310000000  0.5050590000000 1.0
C      1  0.4236300000000  0.5373230000000  0.4734110000000 1.0
C      1  0.4481060000000  0.4417620000000  0.4960960000000 1.0
C      1  0.5464710000000  0.5272630000000  0.4528290000000 1.0
C      1  0.5267980000000  0.5170330000000  0.5094490000000 1.0
C      1  0.4435250000000  0.4872630000000  0.4480340000000 1.0
C      1  0.5306130000000  0.4818990000000  0.4393430000000 1.0
C      1  0.5084410000000  0.4727170000000  0.4931110000000 1.0
C      1  0.4225320000000  0.4787160000000  0.5201480000000 1.0
C      1  0.5577890000000  0.5197300000000  0.5552660000000 1.0
C      1  0.4655810000000  0.4427330000000  0.4504550000000 1.0
C      1  0.4914510000000  0.4498050000000  0.5468130000000 1.0
C      1  0.5098820000000  0.5175400000000  0.4231530000000 1.0
C      1  0.4264770000000  0.5130960000000  0.4862620000000 1.0
C      1  0.4576250000000  0.5520730000000  0.5279460000000 1.0
C      1  0.5304420000000  0.5487450000000  0.5036110000000 1.0
C      1  0.4319010000000  0.4703140000000  0.5458120000000 1.0
C      1  0.4892660000000  0.5147240000000  0.4829960000000 1.0
C      1  0.4610650000000  0.4284320000000  0.4738620000000 1.0
C      1  0.4277710000000  0.5084290000000  0.5154390000000 1.0
C      1  0.5105680000000  0.5630890000000  0.4847660000000 1.0
C      1  0.4546650000000  0.5135370000000  0.5597310000000 1.0
C      1  0.4817960000000  0.5205840000000  0.5684840000000 1.0
C      1  0.5543930000000  0.5056660000000  0.5193240000000 1.0
C      1  0.5235780000000  0.4197550000000  0.5075360000000 1.0
C      1  0.4567210000000  0.4859620000000  0.5473510000000 1.0
C      1  0.4869620000000  0.5728080000000  0.4992000000000 1.0
C      1  0.5118050000000  0.4600250000000  0.4463710000000 1.0
C      1  0.4663660000000  0.5524260000000  0.5007950000000 1.0
C      1  0.5248140000000  0.4949940000000  0.4151170000000 1.0
C      1  0.4831350000000  0.5137630000000  0.4346560000000 1.0
C      1  0.5615950000000  0.5446860000000  0.4685320000000 1.0
C      1  0.5047650000000  0.5432510000000  0.5478900000000 1.0
C      1  0.5301660000000  0.5556520000000  0.5339270000000 1.0
C      1  0.5401450000000  0.4994850000000  0.4631410000000 1.0
C      1  0.5045880000000  0.5162400000000  0.5315200000000 1.0
END
