TITL C-950528-5794-559 1.16097047639577e-07 125000 -183.069524796907 0 0 31 (C1) n - 1
REM
REM in /home/bkarasulu/work/CARBON/AIRSS/Generating-Clusters/EDIP-Nigel-Params/with-SteepDescent/Only-C1/SD-CG/HFTN-CG
REM
REM
REM
REM
REM
REM ./C.cell (11c1c37f851c82e70ff6c80c92926a4b)
REM
REM compiler GCC version 9.2.1 20190827 (Red Hat 9.2.1-1)
REM options -cpp -mtune=generic -march=x86-64 -g -O0 -fpre-include=/usr/include/finclude/math-vector-fortran.h
REM seed 725143664 275803242 839693498 928053135 1692553739 2083983473 -1668643578 -456905324 1350463854 939007043 -1062265420 -563329467 883676503 -700809663 -987296631 155561235 861150185 -955030926 531635288 -977334478 -224310342 -730513642 -372951985 779836693 1159231314 864855703 871238332 -2036039090 -1423141052 -700163832 244218249 -1364238939 -1897392611
REM
CELL 1.54180   50.00000   50.00000   50.00000   90.00000   90.00000   90.00000
LATT -1
SFAC C  
C      1  0.4850730000000  0.4806610000000  0.4827610000000 1.0
C      1  0.4632440000000  0.5243620000000  0.4914850000000 1.0
C      1  0.4333030000000  0.4889910000000  0.5056130000000 1.0
C      1  0.5688400000000  0.5145140000000  0.4982370000000 1.0
C      1  0.4437070000000  0.5151740000000  0.5079310000000 1.0
C      1  0.4348370000000  0.4788480000000  0.4790430000000 1.0
C      1  0.5356440000000  0.5043220000000  0.5377720000000 1.0
C      1  0.5092740000000  0.5418870000000  0.4498250000000 1.0
C      1  0.5401070000000  0.5636970000000  0.4548320000000 1.0
C      1  0.5059160000000  0.5393540000000  0.5508350000000 1.0
C      1  0.5034280000000  0.4706020000000  0.4627770000000 1.0
C      1  0.4592830000000  0.4640500000000  0.4800550000000 1.0
C      1  0.4460590000000  0.4669260000000  0.5224700000000 1.0
C      1  0.4659420000000  0.4763900000000  0.5436680000000 1.0
C      1  0.5591450000000  0.5569500000000  0.4733520000000 1.0
C      1  0.4949900000000  0.5138410000000  0.5533170000000 1.0
C      1  0.5190040000000  0.4931110000000  0.4565080000000 1.0
C      1  0.5132190000000  0.5670420000000  0.4608460000000 1.0
C      1  0.5286550000000  0.4920990000000  0.5139420000000 1.0
C      1  0.5307330000000  0.5271500000000  0.5523000000000 1.0
C      1  0.4999730000000  0.4806710000000  0.5130010000000 1.0
C      1  0.5715100000000  0.5395080000000  0.4891580000000 1.0
C      1  0.4841140000000  0.4351190000000  0.5093430000000 1.0
C      1  0.5055010000000  0.5177700000000  0.4647190000000 1.0
C      1  0.4826630000000  0.4981330000000  0.5322860000000 1.0
C      1  0.4849530000000  0.4556880000000  0.5500490000000 1.0
C      1  0.4800220000000  0.5092730000000  0.4752130000000 1.0
C      1  0.5445190000000  0.4897370000000  0.4667610000000 1.0
C      1  0.4585700000000  0.4457630000000  0.5030600000000 1.0
C      1  0.5492250000000  0.4955030000000  0.4935670000000 1.0
C      1  0.4985460000000  0.4528650000000  0.5252720000000 1.0
END
