TITL C-951334-9093-169 -2.20088800315852e-06 125000 -722.773523378842 0 0 118 (C1) n - 1
REM
REM in /home/bkarasulu/work/CARBON/AIRSS/Generating-Clusters/EDIP-Nigel-Params/with-SteepDescent/Only-C1/SD-CG/HFTN-CG
REM
REM
REM
REM
REM
REM ./C.cell (11c1c37f851c82e70ff6c80c92926a4b)
REM
REM compiler GCC version 9.2.1 20190827 (Red Hat 9.2.1-1)
REM options -cpp -mtune=generic -march=x86-64 -g -O0 -fpre-include=/usr/include/finclude/math-vector-fortran.h
REM seed 1363208135 -2111696189 -1645621317 -1352155956 -844277170 -343290524 -606102269 161999535 2040442000 1198458937 -1280287565 1708868038 1428830860 1470411961 1454656848 -1695129641 1951970456 20674298 863006333 1280402799 6088876 2124577963 2086634239 1512185315 86407759 -1602719760 1001855503 -1671506659 -670030096 1522790753 -1305281016 791110071 1430847803
REM
CELL 1.54180   50.00000   50.00000   50.00000   90.00000   90.00000   90.00000
LATT -1
SFAC C  
C      1  0.5178480000000  0.4734980000000  0.4417640000000 1.0
C      1  0.4294680000000  0.5874000000000  0.4639330000000 1.0
C      1  0.4954920000000  0.4364540000000  0.5572200000000 1.0
C      1  0.4529880000000  0.5401010000000  0.4681280000000 1.0
C      1  0.4224500000000  0.5039130000000  0.4492380000000 1.0
C      1  0.5639490000000  0.4347220000000  0.5224700000000 1.0
C      1  0.4891380000000  0.4817620000000  0.4488910000000 1.0
C      1  0.5306040000000  0.3995520000000  0.5043260000000 1.0
C      1  0.4760200000000  0.4120660000000  0.5080840000000 1.0
C      1  0.4347710000000  0.4503090000000  0.4474280000000 1.0
C      1  0.5063680000000  0.4142210000000  0.5170300000000 1.0
C      1  0.5653240000000  0.4590950000000  0.5590740000000 1.0
C      1  0.5407420000000  0.5834540000000  0.4794560000000 1.0
C      1  0.4753710000000  0.4756510000000  0.4226330000000 1.0
C      1  0.5431550000000  0.4418590000000  0.5023370000000 1.0
C      1  0.4318640000000  0.4712580000000  0.5513030000000 1.0
C      1  0.4776880000000  0.4294940000000  0.4469500000000 1.0
C      1  0.5397840000000  0.4109410000000  0.5510890000000 1.0
C      1  0.4259010000000  0.4762480000000  0.4850950000000 1.0
C      1  0.5726020000000  0.4707510000000  0.4389600000000 1.0
C      1  0.5860940000000  0.4504260000000  0.5096920000000 1.0
C      1  0.4833910000000  0.5239720000000  0.5546150000000 1.0
C      1  0.4582970000000  0.4304840000000  0.4911960000000 1.0
C      1  0.4989320000000  0.5812860000000  0.4979370000000 1.0
C      1  0.5823680000000  0.4676290000000  0.5350980000000 1.0
C      1  0.5323650000000  0.5369230000000  0.4791860000000 1.0
C      1  0.4770190000000  0.4654470000000  0.4724960000000 1.0
C      1  0.5600060000000  0.5244210000000  0.4873560000000 1.0
C      1  0.5395020000000  0.4947300000000  0.4651410000000 1.0
C      1  0.5422370000000  0.4835850000000  0.4932600000000 1.0
C      1  0.4717560000000  0.4831520000000  0.5799910000000 1.0
C      1  0.4881140000000  0.5755570000000  0.5475010000000 1.0
C      1  0.5167890000000  0.5835580000000  0.5461130000000 1.0
C      1  0.5163190000000  0.5621320000000  0.4398070000000 1.0
C      1  0.5114440000000  0.4570250000000  0.5429960000000 1.0
C      1  0.4817940000000  0.5058150000000  0.5279720000000 1.0
C      1  0.4657590000000  0.4805650000000  0.5178660000000 1.0
C      1  0.4979820000000  0.4600330000000  0.4957910000000 1.0
C      1  0.4334960000000  0.5170060000000  0.4271920000000 1.0
C      1  0.4732100000000  0.5666960000000  0.4730590000000 1.0
C      1  0.4083610000000  0.5049780000000  0.5221160000000 1.0
C      1  0.4696120000000  0.5155980000000  0.4801790000000 1.0
C      1  0.4967210000000  0.4315030000000  0.4690770000000 1.0
C      1  0.5458460000000  0.5288930000000  0.5663370000000 1.0
C      1  0.4678380000000  0.4350480000000  0.5453420000000 1.0
C      1  0.5133370000000  0.4848590000000  0.4994870000000 1.0
C      1  0.4579650000000  0.4843700000000  0.4891950000000 1.0
C      1  0.4638030000000  0.5551290000000  0.5700460000000 1.0
C      1  0.5779070000000  0.4967820000000  0.5269890000000 1.0
C      1  0.5469760000000  0.5738100000000  0.5078100000000 1.0
C      1  0.4632330000000  0.4099640000000  0.5332800000000 1.0
C      1  0.5592720000000  0.4464040000000  0.4337850000000 1.0
C      1  0.5577260000000  0.4806120000000  0.5745560000000 1.0
C      1  0.4827510000000  0.5328740000000  0.4351770000000 1.0
C      1  0.4607020000000  0.5503250000000  0.5124260000000 1.0
C      1  0.5744660000000  0.4633510000000  0.4862130000000 1.0
C      1  0.4115850000000  0.5187840000000  0.4725060000000 1.0
C      1  0.4888590000000  0.5593130000000  0.4480170000000 1.0
C      1  0.5247930000000  0.5481520000000  0.5713700000000 1.0
C      1  0.4801770000000  0.5891550000000  0.5214490000000 1.0
C      1  0.5148430000000  0.4511800000000  0.4210270000000 1.0
C      1  0.5163620000000  0.5983910000000  0.4819020000000 1.0
C      1  0.5343120000000  0.4333030000000  0.4345280000000 1.0
C      1  0.5630440000000  0.5498080000000  0.4429670000000 1.0
C      1  0.5621630000000  0.4969910000000  0.4278170000000 1.0
C      1  0.4844870000000  0.4459250000000  0.4217060000000 1.0
C      1  0.5521630000000  0.4341420000000  0.5628070000000 1.0
C      1  0.5047870000000  0.5359350000000  0.4141030000000 1.0
C      1  0.5099570000000  0.4115280000000  0.5473270000000 1.0
C      1  0.5115820000000  0.5089900000000  0.4065480000000 1.0
C      1  0.4093920000000  0.4829440000000  0.5394200000000 1.0
C      1  0.4846660000000  0.5108660000000  0.5836210000000 1.0
C      1  0.5882990000000  0.5358080000000  0.4790760000000 1.0
C      1  0.4812070000000  0.5284420000000  0.5056540000000 1.0
C      1  0.5657310000000  0.5532190000000  0.5197980000000 1.0
C      1  0.5095870000000  0.4972640000000  0.5248130000000 1.0
C      1  0.4992350000000  0.4694840000000  0.5774280000000 1.0
C      1  0.5537540000000  0.5058110000000  0.5109200000000 1.0
C      1  0.4521740000000  0.4321580000000  0.4607290000000 1.0
C      1  0.5393240000000  0.5012300000000  0.5741940000000 1.0
C      1  0.5654160000000  0.5355230000000  0.5444980000000 1.0
C      1  0.4216680000000  0.5291270000000  0.5298900000000 1.0
C      1  0.4602090000000  0.5317350000000  0.5900800000000 1.0
C      1  0.4559660000000  0.5888320000000  0.4674620000000 1.0
C      1  0.4378780000000  0.4411260000000  0.5095380000000 1.0
C      1  0.4885360000000  0.4926360000000  0.4042030000000 1.0
C      1  0.4240520000000  0.4748180000000  0.4558800000000 1.0
C      1  0.4519130000000  0.5351890000000  0.4375790000000 1.0
C      1  0.4906560000000  0.5116150000000  0.4570410000000 1.0
C      1  0.5420180000000  0.4179770000000  0.4831740000000 1.0
C      1  0.4091350000000  0.4988770000000  0.4935980000000 1.0
C      1  0.5385120000000  0.5596580000000  0.4595580000000 1.0
C      1  0.5238310000000  0.4242140000000  0.4608860000000 1.0
C      1  0.5195220000000  0.5161400000000  0.4642040000000 1.0
C      1  0.5313780000000  0.4970010000000  0.4263770000000 1.0
C      1  0.4549390000000  0.5786960000000  0.5144970000000 1.0
C      1  0.4157580000000  0.4519680000000  0.4970070000000 1.0
C      1  0.4301860000000  0.5491460000000  0.5096170000000 1.0
C      1  0.5147340000000  0.5400860000000  0.5057400000000 1.0
C      1  0.4125550000000  0.5670090000000  0.4675630000000 1.0
C      1  0.5196210000000  0.5688440000000  0.5169200000000 1.0
C      1  0.5140510000000  0.4949560000000  0.5864680000000 1.0
C      1  0.5276350000000  0.5205150000000  0.5270370000000 1.0
C      1  0.5883400000000  0.5486340000000  0.5039370000000 1.0
C      1  0.4249570000000  0.5440860000000  0.4796790000000 1.0
C      1  0.5878510000000  0.4707220000000  0.4625640000000 1.0
C      1  0.5506390000000  0.3994010000000  0.5262260000000 1.0
C      1  0.5881450000000  0.5532490000000  0.4564470000000 1.0
C      1  0.4374850000000  0.5622410000000  0.5615850000000 1.0
C      1  0.4475380000000  0.4909010000000  0.5659500000000 1.0
C      1  0.5725230000000  0.5215680000000  0.4399430000000 1.0
C      1  0.4374560000000  0.5168000000000  0.5765120000000 1.0
C      1  0.5326430000000  0.5748500000000  0.5677270000000 1.0
C      1  0.5149210000000  0.4434460000000  0.5156450000000 1.0
C      1  0.5069460000000  0.5412240000000  0.5491580000000 1.0
C      1  0.4509280000000  0.4572400000000  0.5320480000000 1.0
C      1  0.5864510000000  0.5167340000000  0.5446070000000 1.0
C      1  0.4256090000000  0.5367010000000  0.5577390000000 1.0
END
