TITL C-950530-3293-559 -5.50993442249652e-06 125000 -985.229930847077 0 0 159 (C1) n - 1
REM
REM in /home/bkarasulu/work/CARBON/AIRSS/Generating-Clusters/EDIP-Nigel-Params/with-SteepDescent/Only-C1/SD-CG/HFTN-CG
REM
REM
REM
REM
REM
REM ./C.cell (11c1c37f851c82e70ff6c80c92926a4b)
REM
REM compiler GCC version 9.2.1 20190827 (Red Hat 9.2.1-1)
REM options -cpp -mtune=generic -march=x86-64 -g -O0 -fpre-include=/usr/include/finclude/math-vector-fortran.h
REM seed -1806826225 1476540156 262938018 533104209 -1132537583 1674866505 -1652156176 130725789 -1746789155 -909928508 -2108095432 -1920218199 -574260430 1042366444 2108271631 -466982296 2034459681 1811566428 1230000107 -51642934 2087369625 1776047972 549568461 -1028343543 -2060222480 -970657384 -1827816975 -305327318 -1352895558 -317644368 1598681792 1984913373 1871838280
REM
CELL 1.54180   50.00000   50.00000   50.00000   90.00000   90.00000   90.00000
LATT -1
SFAC C  
C      1  0.4731270000000  0.6029530000000  0.5605860000000 1.0
C      1  0.4833960000000  0.4617760000000  0.5391570000000 1.0
C      1  0.5730230000000  0.5817580000000  0.5046130000000 1.0
C      1  0.4643180000000  0.5883240000000  0.4199420000000 1.0
C      1  0.4319540000000  0.4372380000000  0.5017690000000 1.0
C      1  0.4626610000000  0.4411430000000  0.5910040000000 1.0
C      1  0.4909550000000  0.4873700000000  0.3956900000000 1.0
C      1  0.5655480000000  0.4692070000000  0.5045900000000 1.0
C      1  0.5056490000000  0.6064660000000  0.4932820000000 1.0
C      1  0.5818860000000  0.4697380000000  0.4596840000000 1.0
C      1  0.4283480000000  0.4514520000000  0.5514670000000 1.0
C      1  0.5479150000000  0.4660210000000  0.4062850000000 1.0
C      1  0.4614590000000  0.5760020000000  0.5584100000000 1.0
C      1  0.5344350000000  0.5258370000000  0.4762530000000 1.0
C      1  0.4973990000000  0.4612680000000  0.4080720000000 1.0
C      1  0.4431630000000  0.4690230000000  0.4273740000000 1.0
C      1  0.4407010000000  0.5109980000000  0.5670880000000 1.0
C      1  0.5495850000000  0.4929600000000  0.5830200000000 1.0
C      1  0.3940630000000  0.5452140000000  0.5569200000000 1.0
C      1  0.4643080000000  0.5247220000000  0.4068900000000 1.0
C      1  0.4626100000000  0.4453500000000  0.4694010000000 1.0
C      1  0.5119780000000  0.4275800000000  0.5804950000000 1.0
C      1  0.6006540000000  0.4819920000000  0.4804390000000 1.0
C      1  0.4856710000000  0.4889630000000  0.5809280000000 1.0
C      1  0.5757180000000  0.5283890000000  0.5556040000000 1.0
C      1  0.5379270000000  0.5134330000000  0.4069720000000 1.0
C      1  0.4729750000000  0.5129080000000  0.5470590000000 1.0
C      1  0.4774170000000  0.4199910000000  0.4340140000000 1.0
C      1  0.5067880000000  0.5904610000000  0.4429990000000 1.0
C      1  0.4955880000000  0.4660700000000  0.5660320000000 1.0
C      1  0.5240200000000  0.4680670000000  0.5580860000000 1.0
C      1  0.5569860000000  0.4941560000000  0.5195150000000 1.0
C      1  0.5669260000000  0.5654410000000  0.4802070000000 1.0
C      1  0.5751630000000  0.5448340000000  0.4520370000000 1.0
C      1  0.5236730000000  0.4636540000000  0.4227510000000 1.0
C      1  0.4060010000000  0.5276100000000  0.4774220000000 1.0
C      1  0.5330260000000  0.5557900000000  0.5735280000000 1.0
C      1  0.5679710000000  0.5007850000000  0.5610470000000 1.0
C      1  0.5074920000000  0.4583960000000  0.4856270000000 1.0
C      1  0.4743210000000  0.5650860000000  0.5330300000000 1.0
C      1  0.5405180000000  0.4361310000000  0.5829790000000 1.0
C      1  0.5570860000000  0.4919730000000  0.4146690000000 1.0
C      1  0.4324830000000  0.5777110000000  0.5502190000000 1.0
C      1  0.5599870000000  0.4202250000000  0.5699780000000 1.0
C      1  0.4717890000000  0.5011400000000  0.4953980000000 1.0
C      1  0.5034700000000  0.4134250000000  0.4440570000000 1.0
C      1  0.5882560000000  0.4120900000000  0.5300220000000 1.0
C      1  0.5803060000000  0.4387010000000  0.4594060000000 1.0
C      1  0.4644940000000  0.5544610000000  0.5801010000000 1.0
C      1  0.4282350000000  0.5834300000000  0.5217660000000 1.0
C      1  0.4337660000000  0.5527790000000  0.4407810000000 1.0
C      1  0.5795850000000  0.4095130000000  0.5033380000000 1.0
C      1  0.5410200000000  0.5498010000000  0.5184780000000 1.0
C      1  0.6026010000000  0.4701150000000  0.5069150000000 1.0
C      1  0.4684400000000  0.3842850000000  0.5149210000000 1.0
C      1  0.4545010000000  0.4661640000000  0.4523770000000 1.0
C      1  0.4138210000000  0.5518020000000  0.4621610000000 1.0
C      1  0.6046300000000  0.4886750000000  0.5295590000000 1.0
C      1  0.4683640000000  0.5359490000000  0.5272130000000 1.0
C      1  0.5733790000000  0.5184900000000  0.5063880000000 1.0
C      1  0.4857770000000  0.3914900000000  0.5604430000000 1.0
C      1  0.4644890000000  0.5898430000000  0.5139800000000 1.0
C      1  0.5784910000000  0.5166050000000  0.4568470000000 1.0
C      1  0.4138080000000  0.4746330000000  0.5414290000000 1.0
C      1  0.4490320000000  0.4496200000000  0.4074830000000 1.0
C      1  0.5535350000000  0.5390960000000  0.4946170000000 1.0
C      1  0.4882370000000  0.4283280000000  0.5119330000000 1.0
C      1  0.5396450000000  0.4152250000000  0.4756410000000 1.0
C      1  0.5437330000000  0.5419700000000  0.4088490000000 1.0
C      1  0.4644570000000  0.6014410000000  0.4622640000000 1.0
C      1  0.5273020000000  0.4483090000000  0.5319540000000 1.0
C      1  0.4598080000000  0.5273950000000  0.5003450000000 1.0
C      1  0.4553750000000  0.4816330000000  0.5081090000000 1.0
C      1  0.5042030000000  0.5685370000000  0.5345250000000 1.0
C      1  0.5042800000000  0.5637760000000  0.4558230000000 1.0
C      1  0.4097900000000  0.5756220000000  0.4767950000000 1.0
C      1  0.5521450000000  0.4449170000000  0.5165500000000 1.0
C      1  0.4890400000000  0.5639810000000  0.4795700000000 1.0
C      1  0.4447790000000  0.5793840000000  0.4385700000000 1.0
C      1  0.5142350000000  0.4202340000000  0.5312810000000 1.0
C      1  0.4755390000000  0.4417370000000  0.4142880000000 1.0
C      1  0.5900700000000  0.5306290000000  0.5291710000000 1.0
C      1  0.4912180000000  0.4393700000000  0.4700920000000 1.0
C      1  0.4885350000000  0.4342090000000  0.5953010000000 1.0
C      1  0.4130370000000  0.4783110000000  0.4629900000000 1.0
C      1  0.5058470000000  0.5228730000000  0.4381010000000 1.0
C      1  0.5145150000000  0.5416690000000  0.5274440000000 1.0
C      1  0.4653540000000  0.4845450000000  0.5358120000000 1.0
C      1  0.4395760000000  0.5296300000000  0.4235640000000 1.0
C      1  0.5052270000000  0.4808720000000  0.4665950000000 1.0
C      1  0.4684130000000  0.3982990000000  0.5400390000000 1.0
C      1  0.5294880000000  0.6024720000000  0.4786900000000 1.0
C      1  0.4211800000000  0.5022880000000  0.4766760000000 1.0
C      1  0.5513320000000  0.4335150000000  0.4562230000000 1.0
C      1  0.5074480000000  0.5204560000000  0.5489640000000 1.0
C      1  0.4583900000000  0.4514780000000  0.4985890000000 1.0
C      1  0.4055070000000  0.5383240000000  0.5057860000000 1.0
C      1  0.5199680000000  0.5788320000000  0.5594060000000 1.0
C      1  0.4657320000000  0.4276780000000  0.5354960000000 1.0
C      1  0.5507880000000  0.4170810000000  0.5034520000000 1.0
C      1  0.3979310000000  0.5221980000000  0.5407670000000 1.0
C      1  0.5385050000000  0.5938260000000  0.5415140000000 1.0
C      1  0.5197500000000  0.5595910000000  0.4036140000000 1.0
C      1  0.5813560000000  0.4266030000000  0.5531760000000 1.0
C      1  0.4361370000000  0.4320600000000  0.5312500000000 1.0
C      1  0.4095510000000  0.4564830000000  0.4931740000000 1.0
C      1  0.5103600000000  0.5098500000000  0.3959940000000 1.0
C      1  0.5066840000000  0.6055360000000  0.5228470000000 1.0
C      1  0.4355310000000  0.4122040000000  0.4843070000000 1.0
C      1  0.4719090000000  0.5417810000000  0.4770980000000 1.0
C      1  0.5496990000000  0.5772560000000  0.5203700000000 1.0
C      1  0.5243280000000  0.5862180000000  0.4185990000000 1.0
C      1  0.5859960000000  0.4810430000000  0.5501270000000 1.0
C      1  0.4283900000000  0.5217550000000  0.5174180000000 1.0
C      1  0.5484800000000  0.5857040000000  0.4656120000000 1.0
C      1  0.3993840000000  0.4711600000000  0.5162800000000 1.0
C      1  0.5254220000000  0.4929490000000  0.5157450000000 1.0
C      1  0.5572970000000  0.4727470000000  0.4759070000000 1.0
C      1  0.5494830000000  0.5812230000000  0.4357080000000 1.0
C      1  0.4822420000000  0.4917470000000  0.6083790000000 1.0
C      1  0.4954560000000  0.5329960000000  0.4091770000000 1.0
C      1  0.4886660000000  0.5417760000000  0.5869750000000 1.0
C      1  0.4497240000000  0.4202210000000  0.4603040000000 1.0
C      1  0.5276370000000  0.4968360000000  0.5450580000000 1.0
C      1  0.5269660000000  0.5098930000000  0.5928670000000 1.0
C      1  0.4115430000000  0.5677810000000  0.5036410000000 1.0
C      1  0.6139560000000  0.5155750000000  0.5285080000000 1.0
C      1  0.4485550000000  0.3909130000000  0.4968660000000 1.0
C      1  0.4651360000000  0.4991470000000  0.3944970000000 1.0
C      1  0.5073150000000  0.4091710000000  0.5585720000000 1.0
C      1  0.5404040000000  0.4970090000000  0.4663730000000 1.0
C      1  0.4786660000000  0.6095720000000  0.5334160000000 1.0
C      1  0.5096120000000  0.4668850000000  0.5146840000000 1.0
C      1  0.5375160000000  0.4385690000000  0.4313670000000 1.0
C      1  0.5129740000000  0.4025230000000  0.4697040000000 1.0
C      1  0.5748310000000  0.4928040000000  0.4391310000000 1.0
C      1  0.4422530000000  0.4500090000000  0.5758130000000 1.0
C      1  0.4801300000000  0.5910910000000  0.4863650000000 1.0
C      1  0.5913400000000  0.5102180000000  0.4823760000000 1.0
C      1  0.4806570000000  0.6042040000000  0.4375250000000 1.0
C      1  0.4156270000000  0.5014300000000  0.5540050000000 1.0
C      1  0.5215000000000  0.4910100000000  0.4413320000000 1.0
C      1  0.4203840000000  0.5540170000000  0.5615660000000 1.0
C      1  0.4810370000000  0.4966830000000  0.4695330000000 1.0
C      1  0.4176100000000  0.4818010000000  0.4331650000000 1.0
C      1  0.5507200000000  0.5515430000000  0.4361500000000 1.0
C      1  0.4274270000000  0.4944680000000  0.5044500000000 1.0
C      1  0.5332380000000  0.4012030000000  0.5197970000000 1.0
C      1  0.5907830000000  0.4243260000000  0.4817920000000 1.0
C      1  0.4890090000000  0.4056330000000  0.4904400000000 1.0
C      1  0.5806760000000  0.4539870000000  0.5496090000000 1.0
C      1  0.5254310000000  0.5421610000000  0.4523520000000 1.0
C      1  0.5094160000000  0.4959530000000  0.6108300000000 1.0
C      1  0.5588750000000  0.5491460000000  0.5644540000000 1.0
C      1  0.4825960000000  0.5219960000000  0.4575240000000 1.0
C      1  0.4397270000000  0.5383280000000  0.5769410000000 1.0
C      1  0.4203490000000  0.5089830000000  0.4254960000000 1.0
C      1  0.5139070000000  0.5324790000000  0.5766340000000 1.0
C      1  0.5470560000000  0.4641310000000  0.5891200000000 1.0
END
