TITL C-951343-2256-160 9.41268583278032e-09 125000 -149.785970675665 0 0 26 (C1) n - 1
REM
REM in /home/bkarasulu/work/CARBON/AIRSS/Generating-Clusters/EDIP-Nigel-Params/with-SteepDescent/Only-C1/SD-CG/HFTN-CG
REM
REM
REM
REM
REM
REM ./C.cell (11c1c37f851c82e70ff6c80c92926a4b)
REM
REM compiler GCC version 9.2.1 20190827 (Red Hat 9.2.1-1)
REM options -cpp -mtune=generic -march=x86-64 -g -O0 -fpre-include=/usr/include/finclude/math-vector-fortran.h
REM seed 1906997138 754981838 -1209501626 -493673921 -1234790482 -259303066 -2025881511 1311789620 1211847097 -1443808367 2095431122 -981981540 2000504979 -2136336954 -58525658 2081780710 508788722 1831468642 -358401525 -829328456 -639391481 1879455621 1085886071 236548311 1693453539 870722040 268817190 -1035261359 908437854 374822593 776100165 -142770100 1595502799
REM
CELL 1.54180   50.00000   50.00000   50.00000   90.00000   90.00000   90.00000
LATT -1
SFAC C  
C      1  0.4871200000000  0.5090000000000  0.5169450000000 1.0
C      1  0.5117660000000  0.4201400000000  0.4649240000000 1.0
C      1  0.5150900000000  0.5482720000000  0.5277760000000 1.0
C      1  0.4878770000000  0.4245240000000  0.4532230000000 1.0
C      1  0.5480840000000  0.5201280000000  0.4793720000000 1.0
C      1  0.5014990000000  0.5291810000000  0.4657130000000 1.0
C      1  0.4544670000000  0.5327630000000  0.4723160000000 1.0
C      1  0.5410900000000  0.5082300000000  0.5216070000000 1.0
C      1  0.4712860000000  0.5538670000000  0.5298970000000 1.0
C      1  0.5611830000000  0.5272390000000  0.4575300000000 1.0
C      1  0.4637250000000  0.4696220000000  0.4957720000000 1.0
C      1  0.5026700000000  0.4649310000000  0.5172880000000 1.0
C      1  0.5398500000000  0.4829340000000  0.5329560000000 1.0
C      1  0.5215910000000  0.5294480000000  0.4846710000000 1.0
C      1  0.4952450000000  0.5648520000000  0.5351560000000 1.0
C      1  0.4743370000000  0.4988200000000  0.4902980000000 1.0
C      1  0.5275880000000  0.4591060000000  0.5291470000000 1.0
C      1  0.5161020000000  0.5235070000000  0.5134460000000 1.0
C      1  0.4983900000000  0.4445590000000  0.4703230000000 1.0
C      1  0.4767760000000  0.5169610000000  0.4660090000000 1.0
C      1  0.4590530000000  0.4719830000000  0.5243070000000 1.0
C      1  0.4847710000000  0.4827640000000  0.5322020000000 1.0
C      1  0.4644410000000  0.5280770000000  0.5219120000000 1.0
C      1  0.5614620000000  0.5125050000000  0.5027030000000 1.0
C      1  0.4474370000000  0.5252780000000  0.4984070000000 1.0
C      1  0.4870970000000  0.4513100000000  0.4961000000000 1.0
END
