TITL C-951343-2256-504 -9.55107250342536e-07 125000 -1141.24155935322 0 0 180 (C1) n - 1
REM
REM in /home/bkarasulu/work/CARBON/AIRSS/Generating-Clusters/EDIP-Nigel-Params/with-SteepDescent/Only-C1/SD-CG/HFTN-CG
REM
REM
REM
REM
REM
REM ./C.cell (11c1c37f851c82e70ff6c80c92926a4b)
REM
REM compiler GCC version 9.2.1 20190827 (Red Hat 9.2.1-1)
REM options -cpp -mtune=generic -march=x86-64 -g -O0 -fpre-include=/usr/include/finclude/math-vector-fortran.h
REM seed -67581164 -949221988 1323045573 697798365 1817410313 -1345703582 -595150961 -283801776 -966325303 -2088498129 -274750455 366511018 -1292100513 -2038950954 777839631 1599503804 832391717 -1896845090 1240677816 -914026321 1374320801 406142149 -882109039 -867430704 1344028124 -15767634 -1820507169 -422461828 -1815100424 -467366570 -1141478509 959607975 2045564761
REM
CELL 1.54180   50.00000   50.00000   50.00000   90.00000   90.00000   90.00000
LATT -1
SFAC C  
C      1  0.5650880000000  0.4289050000000  0.5535640000000 1.0
C      1  0.5130340000000  0.3883650000000  0.5410900000000 1.0
C      1  0.4845380000000  0.5041390000000  0.4789710000000 1.0
C      1  0.5947270000000  0.4995550000000  0.5540070000000 1.0
C      1  0.4115560000000  0.5396790000000  0.4293800000000 1.0
C      1  0.4751560000000  0.4726560000000  0.5885980000000 1.0
C      1  0.5149830000000  0.4273760000000  0.4734630000000 1.0
C      1  0.5017970000000  0.4807120000000  0.6030220000000 1.0
C      1  0.5794870000000  0.5515700000000  0.5143940000000 1.0
C      1  0.4808200000000  0.4812520000000  0.5593440000000 1.0
C      1  0.4929260000000  0.4315370000000  0.5706650000000 1.0
C      1  0.4337260000000  0.5901980000000  0.4603010000000 1.0
C      1  0.5596900000000  0.5302220000000  0.4063420000000 1.0
C      1  0.4476110000000  0.4092170000000  0.5290270000000 1.0
C      1  0.5002070000000  0.5038410000000  0.3960980000000 1.0
C      1  0.5272950000000  0.5480270000000  0.5290430000000 1.0
C      1  0.4452340000000  0.5268910000000  0.4581500000000 1.0
C      1  0.4588090000000  0.4124380000000  0.4670870000000 1.0
C      1  0.6086680000000  0.4308410000000  0.5334370000000 1.0
C      1  0.4764500000000  0.5042030000000  0.5068430000000 1.0
C      1  0.4497330000000  0.5629270000000  0.5764780000000 1.0
C      1  0.5869540000000  0.4615430000000  0.4243380000000 1.0
C      1  0.3879550000000  0.5471570000000  0.5095810000000 1.0
C      1  0.4763240000000  0.5756350000000  0.4432100000000 1.0
C      1  0.4747610000000  0.5272550000000  0.4614060000000 1.0
C      1  0.4304350000000  0.4186980000000  0.4696340000000 1.0
C      1  0.5003590000000  0.6133780000000  0.4769200000000 1.0
C      1  0.5721120000000  0.4986500000000  0.5155780000000 1.0
C      1  0.3848680000000  0.4726610000000  0.4982720000000 1.0
C      1  0.6122330000000  0.5178980000000  0.5667250000000 1.0
C      1  0.5195970000000  0.5668110000000  0.4265750000000 1.0
C      1  0.4757300000000  0.5479730000000  0.5151630000000 1.0
C      1  0.4472850000000  0.5046400000000  0.5093430000000 1.0
C      1  0.3953990000000  0.5013350000000  0.4975110000000 1.0
C      1  0.4538770000000  0.5647810000000  0.5274380000000 1.0
C      1  0.5493700000000  0.5034930000000  0.5631440000000 1.0
C      1  0.4106100000000  0.4408580000000  0.5411490000000 1.0
C      1  0.5493120000000  0.5579840000000  0.5495080000000 1.0
C      1  0.5448470000000  0.4039130000000  0.5072120000000 1.0
C      1  0.4531110000000  0.4089730000000  0.5570220000000 1.0
C      1  0.5201870000000  0.5606900000000  0.5024470000000 1.0
C      1  0.4262350000000  0.4488500000000  0.5666400000000 1.0
C      1  0.4819200000000  0.4683900000000  0.4630640000000 1.0
C      1  0.4486630000000  0.4878690000000  0.5925790000000 1.0
C      1  0.5412140000000  0.4997190000000  0.4358810000000 1.0
C      1  0.4438290000000  0.5866230000000  0.5083050000000 1.0
C      1  0.5596140000000  0.4560560000000  0.5131250000000 1.0
C      1  0.5000270000000  0.4785450000000  0.4137630000000 1.0
C      1  0.5835150000000  0.5163600000000  0.4642980000000 1.0
C      1  0.5094840000000  0.4856620000000  0.5564130000000 1.0
C      1  0.5163890000000  0.5477530000000  0.4517740000000 1.0
C      1  0.4703090000000  0.5088070000000  0.5533570000000 1.0
C      1  0.4693270000000  0.4610700000000  0.5401840000000 1.0
C      1  0.5271260000000  0.4549940000000  0.4764040000000 1.0
C      1  0.5557430000000  0.5058870000000  0.6009910000000 1.0
C      1  0.4883710000000  0.5539890000000  0.4641470000000 1.0
C      1  0.5840520000000  0.4236340000000  0.4861490000000 1.0
C      1  0.4917390000000  0.5604240000000  0.4941150000000 1.0
C      1  0.5781850000000  0.4828720000000  0.4084510000000 1.0
C      1  0.5232170000000  0.4754540000000  0.4331960000000 1.0
C      1  0.5180210000000  0.5970470000000  0.4592340000000 1.0
C      1  0.4742800000000  0.5202490000000  0.3943880000000 1.0
C      1  0.4478160000000  0.4309830000000  0.5752160000000 1.0
C      1  0.4233030000000  0.4371870000000  0.4923310000000 1.0
C      1  0.6068780000000  0.5419790000000  0.5524410000000 1.0
C      1  0.4444140000000  0.4592560000000  0.4974120000000 1.0
C      1  0.4359730000000  0.4863040000000  0.4883610000000 1.0
C      1  0.4129980000000  0.4948590000000  0.4441600000000 1.0
C      1  0.3879070000000  0.5195870000000  0.5199620000000 1.0
C      1  0.4648670000000  0.4871130000000  0.4441700000000 1.0
C      1  0.6039950000000  0.5404770000000  0.5052010000000 1.0
C      1  0.5372570000000  0.5505820000000  0.5826510000000 1.0
C      1  0.4687050000000  0.3953510000000  0.5145410000000 1.0
C      1  0.4274660000000  0.5272550000000  0.5504770000000 1.0
C      1  0.5094970000000  0.5526790000000  0.4020050000000 1.0
C      1  0.4612870000000  0.5591510000000  0.4218400000000 1.0
C      1  0.6000020000000  0.4729680000000  0.5086810000000 1.0
C      1  0.4021720000000  0.4903710000000  0.5653090000000 1.0
C      1  0.5713710000000  0.5121030000000  0.5435770000000 1.0
C      1  0.4561610000000  0.5171450000000  0.5885550000000 1.0
C      1  0.5129980000000  0.4992710000000  0.4741190000000 1.0
C      1  0.4478740000000  0.4823500000000  0.4092850000000 1.0
C      1  0.4006660000000  0.4704860000000  0.4365790000000 1.0
C      1  0.5578680000000  0.4992210000000  0.4624290000000 1.0
C      1  0.5348370000000  0.4667060000000  0.5034510000000 1.0
C      1  0.5237680000000  0.5892170000000  0.5140280000000 1.0
C      1  0.5119450000000  0.4735170000000  0.4610140000000 1.0
C      1  0.4277620000000  0.4774450000000  0.5738160000000 1.0
C      1  0.4845600000000  0.5263670000000  0.5915520000000 1.0
C      1  0.4301100000000  0.5471070000000  0.5281870000000 1.0
C      1  0.5935040000000  0.5143860000000  0.4945520000000 1.0
C      1  0.4802780000000  0.4332420000000  0.5435620000000 1.0
C      1  0.4865980000000  0.5221530000000  0.5275050000000 1.0
C      1  0.4850300000000  0.5130220000000  0.4366490000000 1.0
C      1  0.5596360000000  0.5649770000000  0.4715660000000 1.0
C      1  0.4389030000000  0.4968320000000  0.4596490000000 1.0
C      1  0.6279820000000  0.4969820000000  0.4681900000000 1.0
C      1  0.6208690000000  0.5417970000000  0.5278250000000 1.0
C      1  0.4503570000000  0.5115160000000  0.4098100000000 1.0
C      1  0.5630240000000  0.4577600000000  0.5436390000000 1.0
C      1  0.4065390000000  0.5643150000000  0.5238310000000 1.0
C      1  0.5542790000000  0.5881180000000  0.5444580000000 1.0
C      1  0.4361680000000  0.5726340000000  0.4816730000000 1.0
C      1  0.4739930000000  0.6166930000000  0.4677140000000 1.0
C      1  0.5375180000000  0.4169680000000  0.5572220000000 1.0
C      1  0.5582740000000  0.5022890000000  0.4121360000000 1.0
C      1  0.5213750000000  0.5255700000000  0.4049110000000 1.0
C      1  0.5108240000000  0.5832700000000  0.5505980000000 1.0
C      1  0.5164250000000  0.4568120000000  0.5237660000000 1.0
C      1  0.5154920000000  0.5211730000000  0.4354370000000 1.0
C      1  0.5805400000000  0.4542690000000  0.4925850000000 1.0
C      1  0.5213620000000  0.4411820000000  0.5718590000000 1.0
C      1  0.4437110000000  0.5022250000000  0.5407670000000 1.0
C      1  0.5374520000000  0.4502800000000  0.4278750000000 1.0
C      1  0.4824020000000  0.5946770000000  0.5471300000000 1.0
C      1  0.3986610000000  0.4512500000000  0.4863870000000 1.0
C      1  0.4796730000000  0.5491450000000  0.4001380000000 1.0
C      1  0.5965430000000  0.4713340000000  0.4501290000000 1.0
C      1  0.5253530000000  0.4106890000000  0.5300690000000 1.0
C      1  0.5382400000000  0.5114660000000  0.4821470000000 1.0
C      1  0.5770390000000  0.5453930000000  0.4546570000000 1.0
C      1  0.5166450000000  0.5216880000000  0.5310230000000 1.0
C      1  0.5621780000000  0.4441800000000  0.4446330000000 1.0
C      1  0.5034150000000  0.4192740000000  0.4456050000000 1.0
C      1  0.5743170000000  0.4069150000000  0.5096640000000 1.0
C      1  0.5703280000000  0.5744170000000  0.4986720000000 1.0
C      1  0.4764100000000  0.6040540000000  0.5196970000000 1.0
C      1  0.4711680000000  0.3951560000000  0.4863960000000 1.0
C      1  0.4287320000000  0.5420790000000  0.4791790000000 1.0
C      1  0.4244310000000  0.4249420000000  0.5199790000000 1.0
C      1  0.5321450000000  0.6025950000000  0.5548210000000 1.0
C      1  0.4723430000000  0.4424670000000  0.5884740000000 1.0
C      1  0.5485800000000  0.5746120000000  0.4277260000000 1.0
C      1  0.5336060000000  0.5243880000000  0.5983590000000 1.0
C      1  0.4361030000000  0.5310320000000  0.5045770000000 1.0
C      1  0.5918210000000  0.4704340000000  0.5517000000000 1.0
C      1  0.6056650000000  0.4994030000000  0.4512410000000 1.0
C      1  0.3989450000000  0.5180060000000  0.5500050000000 1.0
C      1  0.4160260000000  0.5904690000000  0.5171920000000 1.0
C      1  0.4595780000000  0.5974870000000  0.4535970000000 1.0
C      1  0.4378400000000  0.5375770000000  0.5768850000000 1.0
C      1  0.5149090000000  0.4322680000000  0.4215350000000 1.0
C      1  0.5854630000000  0.4149190000000  0.5364620000000 1.0
C      1  0.5637510000000  0.4187870000000  0.4641130000000 1.0
C      1  0.4182660000000  0.4494720000000  0.4308760000000 1.0
C      1  0.5507550000000  0.4788890000000  0.5924270000000 1.0
C      1  0.4606560000000  0.5756410000000  0.5538130000000 1.0
C      1  0.4673930000000  0.4388540000000  0.4212850000000 1.0
C      1  0.5477200000000  0.5881830000000  0.4548450000000 1.0
C      1  0.5432610000000  0.4965640000000  0.5065070000000 1.0
C      1  0.3843430000000  0.4636970000000  0.5263630000000 1.0
C      1  0.6114400000000  0.4586910000000  0.5333480000000 1.0
C      1  0.5708690000000  0.4681270000000  0.4658060000000 1.0
C      1  0.4740580000000  0.4191540000000  0.4426050000000 1.0
C      1  0.4410280000000  0.4651060000000  0.5287090000000 1.0
C      1  0.5542200000000  0.5941010000000  0.5147520000000 1.0
C      1  0.5769080000000  0.5429700000000  0.5431900000000 1.0
C      1  0.5278650000000  0.4629180000000  0.5502080000000 1.0
C      1  0.6168650000000  0.4954020000000  0.4940370000000 1.0
C      1  0.4964080000000  0.5395650000000  0.5692580000000 1.0
C      1  0.4055000000000  0.4821330000000  0.5358320000000 1.0
C      1  0.5069260000000  0.5101530000000  0.6005500000000 1.0
C      1  0.5260910000000  0.4632610000000  0.5963400000000 1.0
C      1  0.3993440000000  0.5290570000000  0.4777760000000 1.0
C      1  0.4906390000000  0.4276740000000  0.4937070000000 1.0
C      1  0.4728990000000  0.4525480000000  0.4872470000000 1.0
C      1  0.4926420000000  0.4492450000000  0.4089350000000 1.0
C      1  0.5355250000000  0.5468680000000  0.4778880000000 1.0
C      1  0.5018110000000  0.6086740000000  0.5055820000000 1.0
C      1  0.4441890000000  0.4566630000000  0.4210790000000 1.0
C      1  0.4406460000000  0.5355170000000  0.4289030000000 1.0
C      1  0.5121660000000  0.5628100000000  0.5733790000000 1.0
C      1  0.3991020000000  0.5208740000000  0.4470640000000 1.0
C      1  0.4886660000000  0.3834130000000  0.5298390000000 1.0
C      1  0.5023670000000  0.5889120000000  0.4351560000000 1.0
C      1  0.5203700000000  0.5123330000000  0.5582430000000 1.0
C      1  0.5028890000000  0.4309000000000  0.5222110000000 1.0
C      1  0.5645670000000  0.5496900000000  0.4279300000000 1.0
C      1  0.5386820000000  0.4097100000000  0.4789470000000 1.0
C      1  0.4179020000000  0.4264970000000  0.4461080000000 1.0
END
