TITL C-951337-3020-62 2.4503216138282e-06 125000 -655.11763649893 0 0 105 (C1) n - 1
REM
REM in /home/bkarasulu/work/CARBON/AIRSS/Generating-Clusters/EDIP-Nigel-Params/with-SteepDescent/Only-C1/SD-CG/HFTN-CG
REM
REM
REM
REM
REM
REM ./C.cell (11c1c37f851c82e70ff6c80c92926a4b)
REM
REM compiler GCC version 9.2.1 20190827 (Red Hat 9.2.1-1)
REM options -cpp -mtune=generic -march=x86-64 -g -O0 -fpre-include=/usr/include/finclude/math-vector-fortran.h
REM seed -1011803895 -573840348 701033340 1646976320 272178914 361121352 1476641194 681999441 -2099391075 462803537 1634041136 -818420297 646163130 -773261662 -522328194 -954357639 518782912 1402347287 -1633394361 -1691705853 -1691991547 797271141 543256919 170925441 -65171038 1028386807 -1012416347 -1532862928 -87849275 -724562470 843980011 1874599184 -1523764057
REM
CELL 1.54180   50.00000   50.00000   50.00000   90.00000   90.00000   90.00000
LATT -1
SFAC C  
C      1  0.5037530000000  0.4601170000000  0.5652850000000 1.0
C      1  0.4719500000000  0.5825720000000  0.4973940000000 1.0
C      1  0.5045440000000  0.4864400000000  0.5500560000000 1.0
C      1  0.4179760000000  0.5493600000000  0.5310100000000 1.0
C      1  0.4769580000000  0.4482000000000  0.5583130000000 1.0
C      1  0.4689340000000  0.5783890000000  0.5494730000000 1.0
C      1  0.4885910000000  0.5214760000000  0.4387870000000 1.0
C      1  0.4642200000000  0.4978390000000  0.4925920000000 1.0
C      1  0.4739050000000  0.4761450000000  0.5959320000000 1.0
C      1  0.4094000000000  0.4775340000000  0.5067640000000 1.0
C      1  0.5538030000000  0.4598240000000  0.5455880000000 1.0
C      1  0.4614090000000  0.5196210000000  0.4261710000000 1.0
C      1  0.4551040000000  0.4195070000000  0.4496390000000 1.0
C      1  0.4678810000000  0.5704010000000  0.4691660000000 1.0
C      1  0.4597510000000  0.4699300000000  0.4834490000000 1.0
C      1  0.4312100000000  0.5404510000000  0.4862760000000 1.0
C      1  0.5016760000000  0.5331350000000  0.4937680000000 1.0
C      1  0.5505990000000  0.5466620000000  0.5292650000000 1.0
C      1  0.4947210000000  0.4268280000000  0.5188670000000 1.0
C      1  0.4289930000000  0.4662280000000  0.5255680000000 1.0
C      1  0.5215720000000  0.4626900000000  0.4729090000000 1.0
C      1  0.4342590000000  0.4406340000000  0.4486500000000 1.0
C      1  0.5914210000000  0.5115910000000  0.5021520000000 1.0
C      1  0.5421030000000  0.4226640000000  0.4862200000000 1.0
C      1  0.5016800000000  0.4692800000000  0.5932710000000 1.0
C      1  0.4250840000000  0.4998580000000  0.4584160000000 1.0
C      1  0.5493520000000  0.4507200000000  0.4757160000000 1.0
C      1  0.5820090000000  0.4873360000000  0.4894870000000 1.0
C      1  0.5600740000000  0.5080520000000  0.5713620000000 1.0
C      1  0.5263800000000  0.5276100000000  0.5372060000000 1.0
C      1  0.4479450000000  0.4688600000000  0.4549040000000 1.0
C      1  0.5339020000000  0.5087830000000  0.4653620000000 1.0
C      1  0.5232020000000  0.4862430000000  0.5989370000000 1.0
C      1  0.4732570000000  0.4213690000000  0.4283330000000 1.0
C      1  0.5442460000000  0.4427690000000  0.4228400000000 1.0
C      1  0.4577740000000  0.4637810000000  0.5751100000000 1.0
C      1  0.5280660000000  0.4443820000000  0.5552420000000 1.0
C      1  0.4504790000000  0.4518730000000  0.5099600000000 1.0
C      1  0.4949320000000  0.4657760000000  0.4294920000000 1.0
C      1  0.5039830000000  0.5409210000000  0.5219900000000 1.0
C      1  0.4717750000000  0.4401260000000  0.5301720000000 1.0
C      1  0.4773070000000  0.5217620000000  0.4759420000000 1.0
C      1  0.5769900000000  0.5512830000000  0.4883220000000 1.0
C      1  0.5108170000000  0.5711010000000  0.5257610000000 1.0
C      1  0.5334800000000  0.5077920000000  0.5840600000000 1.0
C      1  0.4898190000000  0.4142730000000  0.4931110000000 1.0
C      1  0.4943580000000  0.4368260000000  0.4184020000000 1.0
C      1  0.5142840000000  0.4133900000000  0.4763550000000 1.0
C      1  0.5061880000000  0.5632770000000  0.5729270000000 1.0
C      1  0.5231810000000  0.4845220000000  0.4514900000000 1.0
C      1  0.5515880000000  0.5901710000000  0.5069900000000 1.0
C      1  0.5638940000000  0.4659020000000  0.4969170000000 1.0
C      1  0.5396700000000  0.5026110000000  0.5240370000000 1.0
C      1  0.5462920000000  0.5878530000000  0.4792690000000 1.0
C      1  0.5299060000000  0.5380300000000  0.4558310000000 1.0
C      1  0.5723250000000  0.5335640000000  0.5708870000000 1.0
C      1  0.4979670000000  0.5793000000000  0.5512670000000 1.0
C      1  0.5377300000000  0.4720620000000  0.4080560000000 1.0
C      1  0.4591340000000  0.5610220000000  0.5695140000000 1.0
C      1  0.4570280000000  0.5765900000000  0.5227940000000 1.0
C      1  0.4193520000000  0.4410910000000  0.4744030000000 1.0
C      1  0.4666580000000  0.4759510000000  0.4320420000000 1.0
C      1  0.5854300000000  0.5127950000000  0.5311640000000 1.0
C      1  0.5085810000000  0.4373110000000  0.4601150000000 1.0
C      1  0.5490520000000  0.5074970000000  0.4928440000000 1.0
C      1  0.5251380000000  0.5488610000000  0.4834030000000 1.0
C      1  0.5069030000000  0.5078010000000  0.4205760000000 1.0
C      1  0.5611350000000  0.4528970000000  0.4479340000000 1.0
C      1  0.4948790000000  0.5718990000000  0.4554570000000 1.0
C      1  0.5098750000000  0.4735320000000  0.5004450000000 1.0
C      1  0.4144760000000  0.5170700000000  0.4812930000000 1.0
C      1  0.4386160000000  0.5375020000000  0.5139290000000 1.0
C      1  0.4806440000000  0.4905840000000  0.5345790000000 1.0
C      1  0.5165240000000  0.5781420000000  0.4779070000000 1.0
C      1  0.4632060000000  0.4195230000000  0.4784600000000 1.0
C      1  0.5007810000000  0.5865260000000  0.5020020000000 1.0
C      1  0.4537920000000  0.4991860000000  0.5412430000000 1.0
C      1  0.5244100000000  0.4780830000000  0.5277510000000 1.0
C      1  0.4681020000000  0.5367690000000  0.5784420000000 1.0
C      1  0.4127640000000  0.4694310000000  0.4794050000000 1.0
C      1  0.5461410000000  0.4241120000000  0.5156570000000 1.0
C      1  0.5991770000000  0.5339250000000  0.4862770000000 1.0
C      1  0.5042870000000  0.5469780000000  0.4414120000000 1.0
C      1  0.4408470000000  0.5246700000000  0.4459990000000 1.0
C      1  0.5213900000000  0.4265240000000  0.5323910000000 1.0
C      1  0.5534810000000  0.5518280000000  0.4464730000000 1.0
C      1  0.5137200000000  0.5155910000000  0.5638060000000 1.0
C      1  0.5488590000000  0.4790910000000  0.4360830000000 1.0
C      1  0.4543180000000  0.5415430000000  0.4679460000000 1.0
C      1  0.5097520000000  0.4820860000000  0.4095750000000 1.0
C      1  0.5765570000000  0.5384960000000  0.5435310000000 1.0
C      1  0.5627610000000  0.4954040000000  0.5434630000000 1.0
C      1  0.4046980000000  0.5054130000000  0.5062280000000 1.0
C      1  0.4577260000000  0.4950530000000  0.4133780000000 1.0
C      1  0.5520850000000  0.5392710000000  0.4991590000000 1.0
C      1  0.5654860000000  0.5680960000000  0.4664500000000 1.0
C      1  0.4883590000000  0.4932860000000  0.5076240000000 1.0
C      1  0.5408720000000  0.5749550000000  0.5280440000000 1.0
C      1  0.5641350000000  0.4478590000000  0.5206380000000 1.0
C      1  0.5188800000000  0.4290370000000  0.4324530000000 1.0
C      1  0.4286240000000  0.5742020000000  0.5244750000000 1.0
C      1  0.4421410000000  0.5063230000000  0.5145830000000 1.0
C      1  0.4396370000000  0.4293390000000  0.4938870000000 1.0
C      1  0.4388480000000  0.4798660000000  0.5577890000000 1.0
C      1  0.4960760000000  0.5372900000000  0.5762590000000 1.0
END
