TITL C-951335-1172-207 -7.08884747406171e-07 125000 -703.47507781505 0 0 113 (C1) n - 1
REM
REM in /home/bkarasulu/work/CARBON/AIRSS/Generating-Clusters/EDIP-Nigel-Params/with-SteepDescent/Only-C1/SD-CG/HFTN-CG
REM
REM
REM
REM
REM
REM ./C.cell (11c1c37f851c82e70ff6c80c92926a4b)
REM
REM compiler GCC version 9.2.1 20190827 (Red Hat 9.2.1-1)
REM options -cpp -mtune=generic -march=x86-64 -g -O0 -fpre-include=/usr/include/finclude/math-vector-fortran.h
REM seed 842434381 866569750 -1782827543 819128508 -61437943 1720859795 -1036918231 -1599532526 -716544497 -871835626 -922016847 1237071454 -1606675207 2031692774 -835887307 1135645100 1284933246 2141075455 1142390420 -246352052 1050230581 -1364188714 1452942023 923993051 719990431 16042047 252972706 -670413774 -2015486360 480629042 -494744216 945454179 1715991027
REM
CELL 1.54180   50.00000   50.00000   50.00000   90.00000   90.00000   90.00000
LATT -1
SFAC C  
C      1  0.4983470000000  0.4313730000000  0.5626310000000 1.0
C      1  0.5295050000000  0.5590550000000  0.5656640000000 1.0
C      1  0.4252790000000  0.5523650000000  0.4588650000000 1.0
C      1  0.5731060000000  0.5542550000000  0.5084310000000 1.0
C      1  0.5006600000000  0.5636670000000  0.4268750000000 1.0
C      1  0.5080270000000  0.5101840000000  0.4748760000000 1.0
C      1  0.4853730000000  0.5076560000000  0.5184710000000 1.0
C      1  0.4774230000000  0.5014520000000  0.4441050000000 1.0
C      1  0.5094110000000  0.5099770000000  0.5328720000000 1.0
C      1  0.4292620000000  0.4338170000000  0.4934250000000 1.0
C      1  0.5062150000000  0.5462890000000  0.5767660000000 1.0
C      1  0.4482690000000  0.4725030000000  0.5119770000000 1.0
C      1  0.5424790000000  0.4814980000000  0.4994250000000 1.0
C      1  0.5760570000000  0.4453600000000  0.5327740000000 1.0
C      1  0.5795400000000  0.5117510000000  0.5279600000000 1.0
C      1  0.4704050000000  0.4867500000000  0.4173280000000 1.0
C      1  0.5612940000000  0.4904820000000  0.4366320000000 1.0
C      1  0.4828980000000  0.4418650000000  0.4398870000000 1.0
C      1  0.5747200000000  0.5324650000000  0.4522100000000 1.0
C      1  0.5533260000000  0.4765560000000  0.5286830000000 1.0
C      1  0.4126480000000  0.4539980000000  0.4827220000000 1.0
C      1  0.5451970000000  0.4265790000000  0.5007920000000 1.0
C      1  0.5385560000000  0.5351600000000  0.5034580000000 1.0
C      1  0.5284830000000  0.5617260000000  0.4903130000000 1.0
C      1  0.5276710000000  0.5825180000000  0.5497940000000 1.0
C      1  0.4552360000000  0.4403810000000  0.4509060000000 1.0
C      1  0.5840510000000  0.5523350000000  0.4710570000000 1.0
C      1  0.4841390000000  0.4716250000000  0.5459370000000 1.0
C      1  0.5172790000000  0.4958230000000  0.5579470000000 1.0
C      1  0.5654260000000  0.5746490000000  0.4697400000000 1.0
C      1  0.5839490000000  0.4925600000000  0.5494410000000 1.0
C      1  0.4532330000000  0.5811640000000  0.5316040000000 1.0
C      1  0.4594380000000  0.5239520000000  0.4552720000000 1.0
C      1  0.4818910000000  0.5309050000000  0.5760590000000 1.0
C      1  0.5165670000000  0.5972210000000  0.4992630000000 1.0
C      1  0.4512130000000  0.4247600000000  0.4761420000000 1.0
C      1  0.4486150000000  0.5696750000000  0.4674700000000 1.0
C      1  0.5380470000000  0.4175150000000  0.5488660000000 1.0
C      1  0.5906750000000  0.5052140000000  0.5031360000000 1.0
C      1  0.4957710000000  0.4780210000000  0.5849260000000 1.0
C      1  0.5682110000000  0.4427360000000  0.5043150000000 1.0
C      1  0.5175040000000  0.4725890000000  0.4310640000000 1.0
C      1  0.4168170000000  0.5394050000000  0.4852190000000 1.0
C      1  0.4814520000000  0.4136940000000  0.5446710000000 1.0
C      1  0.5650280000000  0.5062110000000  0.4621960000000 1.0
C      1  0.4733580000000  0.4138210000000  0.4931040000000 1.0
C      1  0.5412230000000  0.5103250000000  0.5682720000000 1.0
C      1  0.4865000000000  0.5534630000000  0.4957340000000 1.0
C      1  0.5923020000000  0.4680200000000  0.5381460000000 1.0
C      1  0.5839000000000  0.4905150000000  0.4803630000000 1.0
C      1  0.4719140000000  0.5525470000000  0.4582260000000 1.0
C      1  0.5014070000000  0.4158630000000  0.4827900000000 1.0
C      1  0.5047290000000  0.5875440000000  0.4742920000000 1.0
C      1  0.4238450000000  0.4754580000000  0.4675670000000 1.0
C      1  0.4139210000000  0.5090800000000  0.4853050000000 1.0
C      1  0.5372880000000  0.5104660000000  0.4846350000000 1.0
C      1  0.5686420000000  0.4632800000000  0.4373510000000 1.0
C      1  0.4066600000000  0.5017000000000  0.5135280000000 1.0
C      1  0.4357600000000  0.5321230000000  0.4366670000000 1.0
C      1  0.5105820000000  0.4429740000000  0.5091630000000 1.0
C      1  0.4907890000000  0.4645610000000  0.4212380000000 1.0
C      1  0.4749540000000  0.5656030000000  0.5433150000000 1.0
C      1  0.4830770000000  0.4498240000000  0.5824720000000 1.0
C      1  0.5580030000000  0.4369100000000  0.5553930000000 1.0
C      1  0.4452980000000  0.4423630000000  0.5167170000000 1.0
C      1  0.5445080000000  0.5669580000000  0.4497020000000 1.0
C      1  0.4523550000000  0.4887120000000  0.5717350000000 1.0
C      1  0.4569370000000  0.5662490000000  0.4963950000000 1.0
C      1  0.5161280000000  0.5742220000000  0.4503670000000 1.0
C      1  0.5355860000000  0.4957430000000  0.4240410000000 1.0
C      1  0.5168750000000  0.4678980000000  0.4950050000000 1.0
C      1  0.5300360000000  0.5244530000000  0.4270860000000 1.0
C      1  0.4333230000000  0.5474400000000  0.5565130000000 1.0
C      1  0.5519630000000  0.5424690000000  0.4359820000000 1.0
C      1  0.4843750000000  0.5217940000000  0.4926090000000 1.0
C      1  0.4601530000000  0.4606410000000  0.5651000000000 1.0
C      1  0.4783810000000  0.5009310000000  0.5784220000000 1.0
C      1  0.4359390000000  0.5474280000000  0.5068590000000 1.0
C      1  0.5539550000000  0.4592690000000  0.5749300000000 1.0
C      1  0.4523720000000  0.5142360000000  0.4831430000000 1.0
C      1  0.5036970000000  0.4809650000000  0.4718380000000 1.0
C      1  0.5056800000000  0.5365790000000  0.4168460000000 1.0
C      1  0.4436950000000  0.4769780000000  0.4208740000000 1.0
C      1  0.5260610000000  0.4053170000000  0.5020720000000 1.0
C      1  0.4350850000000  0.4612530000000  0.4425100000000 1.0
C      1  0.4498800000000  0.4834110000000  0.4823960000000 1.0
C      1  0.5548330000000  0.4532420000000  0.4593710000000 1.0
C      1  0.5066660000000  0.4512110000000  0.5403140000000 1.0
C      1  0.4266630000000  0.4856170000000  0.5278020000000 1.0
C      1  0.5549760000000  0.5754450000000  0.4969920000000 1.0
C      1  0.4709110000000  0.4269710000000  0.5194000000000 1.0
C      1  0.4792370000000  0.5234020000000  0.4114670000000 1.0
C      1  0.5697470000000  0.5383420000000  0.5340100000000 1.0
C      1  0.4563240000000  0.5430710000000  0.4152790000000 1.0
C      1  0.5627880000000  0.4887880000000  0.5705400000000 1.0
C      1  0.4969290000000  0.3908150000000  0.5389950000000 1.0
C      1  0.5296530000000  0.4700350000000  0.5480560000000 1.0
C      1  0.4746260000000  0.4817000000000  0.5210190000000 1.0
C      1  0.4632410000000  0.5434740000000  0.5574030000000 1.0
C      1  0.5061190000000  0.4302870000000  0.4555820000000 1.0
C      1  0.4296720000000  0.5635470000000  0.5313530000000 1.0
C      1  0.5219850000000  0.4013060000000  0.5314300000000 1.0
C      1  0.5135110000000  0.5840830000000  0.5252310000000 1.0
C      1  0.5648200000000  0.4660270000000  0.4850450000000 1.0
C      1  0.5252170000000  0.4542450000000  0.4538760000000 1.0
C      1  0.5436190000000  0.5366820000000  0.5512470000000 1.0
C      1  0.5222110000000  0.5349220000000  0.5289870000000 1.0
C      1  0.4715780000000  0.5645950000000  0.4301500000000 1.0
C      1  0.4171370000000  0.5227040000000  0.5540490000000 1.0
C      1  0.3991030000000  0.5227890000000  0.5315700000000 1.0
C      1  0.4982540000000  0.5592130000000  0.5244200000000 1.0
C      1  0.4743960000000  0.4774700000000  0.4650060000000 1.0
C      1  0.4359590000000  0.5009000000000  0.5505350000000 1.0
END
