TITL C-951337-3020-455 2.82537831703919e-06 125000 -540.938858875768 0 0 88 (C1) n - 1
REM
REM in /home/bkarasulu/work/CARBON/AIRSS/Generating-Clusters/EDIP-Nigel-Params/with-SteepDescent/Only-C1/SD-CG/HFTN-CG
REM
REM
REM
REM
REM
REM ./C.cell (11c1c37f851c82e70ff6c80c92926a4b)
REM
REM compiler GCC version 9.2.1 20190827 (Red Hat 9.2.1-1)
REM options -cpp -mtune=generic -march=x86-64 -g -O0 -fpre-include=/usr/include/finclude/math-vector-fortran.h
REM seed -1505893367 1010361552 -568501475 -704301915 -1533755686 1912469254 1244446091 76459049 -1046508102 1260264587 446971185 -1287868889 -298458632 -1831725934 -804128816 877418012 251082493 1020221177 1110486861 -2009993014 -1966404158 -1253540843 1417492684 -1675400652 -792029979 2113796087 1242644201 1579966367 -2021302575 137363161 -1687321035 -445893315 1208116839
REM
CELL 1.54180   50.00000   50.00000   50.00000   90.00000   90.00000   90.00000
LATT -1
SFAC C  
C      1  0.4381880000000  0.5556580000000  0.4732410000000 1.0
C      1  0.5403190000000  0.5318700000000  0.5868260000000 1.0
C      1  0.5768070000000  0.4836860000000  0.5314010000000 1.0
C      1  0.4553120000000  0.4384230000000  0.5041100000000 1.0
C      1  0.4136780000000  0.5418130000000  0.4848360000000 1.0
C      1  0.5369020000000  0.4528740000000  0.4887110000000 1.0
C      1  0.4671480000000  0.4766260000000  0.4164630000000 1.0
C      1  0.5422750000000  0.4852880000000  0.5730500000000 1.0
C      1  0.5419160000000  0.4777230000000  0.4731660000000 1.0
C      1  0.4949250000000  0.4557170000000  0.4513810000000 1.0
C      1  0.4394980000000  0.5127200000000  0.4454960000000 1.0
C      1  0.4767170000000  0.4101170000000  0.4707240000000 1.0
C      1  0.5030500000000  0.5093620000000  0.4588820000000 1.0
C      1  0.4612590000000  0.5449070000000  0.5146870000000 1.0
C      1  0.5027310000000  0.4536150000000  0.5767950000000 1.0
C      1  0.5736320000000  0.5002620000000  0.5068470000000 1.0
C      1  0.5884530000000  0.5251010000000  0.5063350000000 1.0
C      1  0.5426820000000  0.5072540000000  0.4323360000000 1.0
C      1  0.5809430000000  0.5031770000000  0.4595490000000 1.0
C      1  0.4832200000000  0.4758370000000  0.5736950000000 1.0
C      1  0.4673520000000  0.5384330000000  0.5649490000000 1.0
C      1  0.4607140000000  0.5103080000000  0.5584790000000 1.0
C      1  0.4468400000000  0.4780210000000  0.5313830000000 1.0
C      1  0.5183280000000  0.4370490000000  0.4426520000000 1.0
C      1  0.4377990000000  0.5057360000000  0.5399170000000 1.0
C      1  0.4405940000000  0.4719130000000  0.4762740000000 1.0
C      1  0.5468720000000  0.4375850000000  0.5621750000000 1.0
C      1  0.5400100000000  0.4514180000000  0.4312820000000 1.0
C      1  0.5480190000000  0.5362920000000  0.4747330000000 1.0
C      1  0.4859380000000  0.4959670000000  0.5407270000000 1.0
C      1  0.5215840000000  0.5724260000000  0.5532790000000 1.0
C      1  0.5248490000000  0.5737580000000  0.4935090000000 1.0
C      1  0.5778810000000  0.5496620000000  0.5137760000000 1.0
C      1  0.4720540000000  0.5260830000000  0.4129100000000 1.0
C      1  0.4557670000000  0.5357860000000  0.4564110000000 1.0
C      1  0.5284240000000  0.5059100000000  0.5894080000000 1.0
C      1  0.4680010000000  0.4527810000000  0.4370960000000 1.0
C      1  0.5329900000000  0.5159990000000  0.4994520000000 1.0
C      1  0.4958910000000  0.4851360000000  0.4124060000000 1.0
C      1  0.4358020000000  0.5282330000000  0.5196190000000 1.0
C      1  0.5699940000000  0.5518760000000  0.4872330000000 1.0
C      1  0.4788110000000  0.5810640000000  0.4878710000000 1.0
C      1  0.5055790000000  0.4817230000000  0.4407670000000 1.0
C      1  0.4875610000000  0.5804050000000  0.4612200000000 1.0
C      1  0.4918230000000  0.4292960000000  0.5681690000000 1.0
C      1  0.4725590000000  0.4367760000000  0.5489440000000 1.0
C      1  0.4555520000000  0.4277930000000  0.4768700000000 1.0
C      1  0.5232740000000  0.5558650000000  0.4697570000000 1.0
C      1  0.4120700000000  0.5467810000000  0.5139470000000 1.0
C      1  0.5186490000000  0.4960470000000  0.4825460000000 1.0
C      1  0.4528190000000  0.5034430000000  0.4203470000000 1.0
C      1  0.4947430000000  0.4820630000000  0.4962840000000 1.0
C      1  0.4711650000000  0.5481120000000  0.4336780000000 1.0
C      1  0.4781700000000  0.5224660000000  0.4716820000000 1.0
C      1  0.4541270000000  0.5672480000000  0.4959770000000 1.0
C      1  0.5290270000000  0.4628670000000  0.5164370000000 1.0
C      1  0.4270430000000  0.4958140000000  0.4665600000000 1.0
C      1  0.5352740000000  0.4954410000000  0.5260670000000 1.0
C      1  0.4404190000000  0.4636710000000  0.5053210000000 1.0
C      1  0.4995590000000  0.4618790000000  0.5169230000000 1.0
C      1  0.5123430000000  0.5387900000000  0.5025100000000 1.0
C      1  0.4466340000000  0.4493060000000  0.4581170000000 1.0
C      1  0.4923380000000  0.5333230000000  0.5804310000000 1.0
C      1  0.5128880000000  0.5079850000000  0.5432020000000 1.0
C      1  0.5103920000000  0.5353820000000  0.5560410000000 1.0
C      1  0.5195330000000  0.5239100000000  0.4273110000000 1.0
C      1  0.4827720000000  0.5278330000000  0.5002640000000 1.0
C      1  0.4977100000000  0.5720180000000  0.5357500000000 1.0
C      1  0.4193880000000  0.5130470000000  0.4877370000000 1.0
C      1  0.4790990000000  0.5007400000000  0.5112770000000 1.0
C      1  0.5750800000000  0.4557930000000  0.5291760000000 1.0
C      1  0.5603020000000  0.5203200000000  0.4514510000000 1.0
C      1  0.4957100000000  0.5611900000000  0.4431280000000 1.0
C      1  0.4985550000000  0.5059230000000  0.5897720000000 1.0
C      1  0.5358820000000  0.4782090000000  0.4423550000000 1.0
C      1  0.4992150000000  0.5144450000000  0.4087130000000 1.0
C      1  0.4738360000000  0.5544580000000  0.5401300000000 1.0
C      1  0.5660510000000  0.4349920000000  0.5436230000000 1.0
C      1  0.4813020000000  0.4364800000000  0.5203060000000 1.0
C      1  0.5372490000000  0.5493240000000  0.5642060000000 1.0
C      1  0.4966670000000  0.4128880000000  0.5130810000000 1.0
C      1  0.5697780000000  0.4880490000000  0.4802770000000 1.0
C      1  0.5185670000000  0.4336050000000  0.4734210000000 1.0
C      1  0.5622790000000  0.4949350000000  0.5538600000000 1.0
C      1  0.5004010000000  0.4128860000000  0.4853270000000 1.0
C      1  0.5307610000000  0.4584440000000  0.5710270000000 1.0
C      1  0.4608760000000  0.4634880000000  0.5545350000000 1.0
C      1  0.5008110000000  0.5810840000000  0.5074020000000 1.0
END
