TITL C-951334-9093-702 2.28466223833139e-07 125000 -262.529608513151 0 0 44 (C1) n - 1
REM
REM in /home/bkarasulu/work/CARBON/AIRSS/Generating-Clusters/EDIP-Nigel-Params/with-SteepDescent/Only-C1/SD-CG/HFTN-CG
REM
REM
REM
REM
REM
REM ./C.cell (11c1c37f851c82e70ff6c80c92926a4b)
REM
REM compiler GCC version 9.2.1 20190827 (Red Hat 9.2.1-1)
REM options -cpp -mtune=generic -march=x86-64 -g -O0 -fpre-include=/usr/include/finclude/math-vector-fortran.h
REM seed 623350295 -1632672446 -1834648644 -1650677609 -2016829919 211764876 1140568165 1081241834 657301574 -1676772362 1678387739 53399655 -1992052692 961476947 -39530042 -2113328306 784667880 -962270135 1877606649 1388647364 -1875579966 1573047278 1832087880 -2025690779 843253876 1356306192 -1619324259 -1556609458 -1287541077 34053390 1321016688 -1566724412 1014666949
REM
CELL 1.54180   50.00000   50.00000   50.00000   90.00000   90.00000   90.00000
LATT -1
SFAC C  
C      1  0.4757670000000  0.5584100000000  0.4639500000000 1.0
C      1  0.5158200000000  0.4693800000000  0.4766340000000 1.0
C      1  0.5229900000000  0.5234590000000  0.4735030000000 1.0
C      1  0.5584270000000  0.5073590000000  0.5253150000000 1.0
C      1  0.4944170000000  0.4468470000000  0.5142880000000 1.0
C      1  0.4936300000000  0.4994880000000  0.5152660000000 1.0
C      1  0.5056820000000  0.5315890000000  0.4965790000000 1.0
C      1  0.4963950000000  0.5179760000000  0.4275230000000 1.0
C      1  0.4474260000000  0.5425910000000  0.4859290000000 1.0
C      1  0.5497630000000  0.5025020000000  0.5766510000000 1.0
C      1  0.4652160000000  0.4704730000000  0.4709240000000 1.0
C      1  0.4716770000000  0.5048280000000  0.4980520000000 1.0
C      1  0.4869100000000  0.5286130000000  0.5480140000000 1.0
C      1  0.5158250000000  0.5266170000000  0.5422290000000 1.0
C      1  0.4905990000000  0.4723980000000  0.4347480000000 1.0
C      1  0.5553150000000  0.4947280000000  0.4633180000000 1.0
C      1  0.4270810000000  0.4952590000000  0.4888740000000 1.0
C      1  0.5116370000000  0.4943270000000  0.4334340000000 1.0
C      1  0.5510970000000  0.5277900000000  0.4805670000000 1.0
C      1  0.4768610000000  0.4866340000000  0.5385290000000 1.0
C      1  0.4502210000000  0.4662240000000  0.5195420000000 1.0
C      1  0.5408310000000  0.4532870000000  0.4756130000000 1.0
C      1  0.4684040000000  0.4454140000000  0.5253790000000 1.0
C      1  0.4428680000000  0.4714120000000  0.4917410000000 1.0
C      1  0.4587720000000  0.5375010000000  0.4549490000000 1.0
C      1  0.4717730000000  0.5464830000000  0.5327060000000 1.0
C      1  0.5344040000000  0.4798390000000  0.5736950000000 1.0
C      1  0.5224980000000  0.4702840000000  0.5495490000000 1.0
C      1  0.4642540000000  0.4868600000000  0.4448240000000 1.0
C      1  0.4456460000000  0.5150770000000  0.4972450000000 1.0
C      1  0.4923810000000  0.4573750000000  0.4617110000000 1.0
C      1  0.4936560000000  0.4626830000000  0.5488200000000 1.0
C      1  0.5593540000000  0.4739290000000  0.4834990000000 1.0
C      1  0.5395450000000  0.4628070000000  0.5276130000000 1.0
C      1  0.4651830000000  0.5580490000000  0.5079800000000 1.0
C      1  0.5405680000000  0.5103690000000  0.5499620000000 1.0
C      1  0.5087380000000  0.4724030000000  0.5067080000000 1.0
C      1  0.5246360000000  0.4956240000000  0.4611910000000 1.0
C      1  0.5243090000000  0.5402000000000  0.5180840000000 1.0
C      1  0.5512360000000  0.4826280000000  0.5106580000000 1.0
C      1  0.4742680000000  0.5146120000000  0.4452370000000 1.0
C      1  0.4733840000000  0.5066760000000  0.5592970000000 1.0
C      1  0.4881440000000  0.5565730000000  0.4899570000000 1.0
C      1  0.5523880000000  0.5324250000000  0.5097150000000 1.0
END
