TITL C-950526-5686-612 2.13067477995208e-06 125000 -1096.11330321161 0 0 176 (C1) n - 1
REM
REM in /home/bkarasulu/work/CARBON/AIRSS/Generating-Clusters/EDIP-Nigel-Params/with-SteepDescent/Only-C1/SD-CG/HFTN-CG
REM
REM
REM
REM
REM
REM ./C.cell (11c1c37f851c82e70ff6c80c92926a4b)
REM
REM compiler GCC version 9.2.1 20190827 (Red Hat 9.2.1-1)
REM options -cpp -mtune=generic -march=x86-64 -g -O0 -fpre-include=/usr/include/finclude/math-vector-fortran.h
REM seed 896785592 732333627 778892970 1806296006 -1893967873 -1876204827 2091197322 -46376068 -194967791 523443950 -1761728744 1460093252 674729406 -1321104762 568668551 1056440483 942664125 1178964796 1245871483 -2107756719 -840136016 -2049576464 1522038984 -1283057149 682615343 1757086908 -587768980 -1459633417 -451252500 -195928734 612034681 -1222660600 1437034230
REM
CELL 1.54180   50.00000   50.00000   50.00000   90.00000   90.00000   90.00000
LATT -1
SFAC C  
C      1  0.5308250000000  0.4848830000000  0.6102750000000 1.0
C      1  0.5366240000000  0.4548860000000  0.5490040000000 1.0
C      1  0.5313330000000  0.4711440000000  0.5243850000000 1.0
C      1  0.5416010000000  0.5883680000000  0.5226210000000 1.0
C      1  0.5782600000000  0.4547260000000  0.5205610000000 1.0
C      1  0.4484600000000  0.5715160000000  0.4722660000000 1.0
C      1  0.4422500000000  0.5708030000000  0.4434540000000 1.0
C      1  0.4535760000000  0.6081190000000  0.5078480000000 1.0
C      1  0.4113550000000  0.5305720000000  0.4484130000000 1.0
C      1  0.4769210000000  0.4217880000000  0.4243370000000 1.0
C      1  0.4370360000000  0.4232210000000  0.4510930000000 1.0
C      1  0.5760560000000  0.5196890000000  0.4510460000000 1.0
C      1  0.4703510000000  0.5370480000000  0.5441150000000 1.0
C      1  0.4659390000000  0.5440750000000  0.6057290000000 1.0
C      1  0.5114680000000  0.5290600000000  0.6107870000000 1.0
C      1  0.4984670000000  0.4497260000000  0.5293490000000 1.0
C      1  0.5059030000000  0.5001420000000  0.6031740000000 1.0
C      1  0.4847960000000  0.4571920000000  0.3896230000000 1.0
C      1  0.5977210000000  0.5488350000000  0.5423060000000 1.0
C      1  0.4368370000000  0.5139580000000  0.5169260000000 1.0
C      1  0.4704590000000  0.5583970000000  0.4061820000000 1.0
C      1  0.5520900000000  0.4187610000000  0.4649540000000 1.0
C      1  0.5889170000000  0.4847130000000  0.5508280000000 1.0
C      1  0.5133220000000  0.5339710000000  0.4491290000000 1.0
C      1  0.4331580000000  0.4237850000000  0.5483050000000 1.0
C      1  0.4805740000000  0.4818630000000  0.6083820000000 1.0
C      1  0.5621070000000  0.4514190000000  0.4284600000000 1.0
C      1  0.4688520000000  0.5108540000000  0.5260760000000 1.0
C      1  0.4989300000000  0.5741400000000  0.5421470000000 1.0
C      1  0.4682420000000  0.4898980000000  0.4873850000000 1.0
C      1  0.4243860000000  0.4455080000000  0.4362300000000 1.0
C      1  0.5511570000000  0.5463970000000  0.5818410000000 1.0
C      1  0.4324350000000  0.5596530000000  0.5448820000000 1.0
C      1  0.5412980000000  0.5313330000000  0.6065170000000 1.0
C      1  0.5183880000000  0.5662360000000  0.4186560000000 1.0
C      1  0.5640550000000  0.4800090000000  0.4280060000000 1.0
C      1  0.4562520000000  0.5668090000000  0.5650210000000 1.0
C      1  0.4495190000000  0.4873110000000  0.4447160000000 1.0
C      1  0.5115120000000  0.5317400000000  0.4969510000000 1.0
C      1  0.4332650000000  0.5447210000000  0.4334570000000 1.0
C      1  0.5637190000000  0.5204530000000  0.4040150000000 1.0
C      1  0.4388520000000  0.4845620000000  0.4153870000000 1.0
C      1  0.5433970000000  0.5544830000000  0.4254660000000 1.0
C      1  0.5082930000000  0.5154470000000  0.4261050000000 1.0
C      1  0.5632820000000  0.5019210000000  0.5034160000000 1.0
C      1  0.5531070000000  0.5098430000000  0.4737170000000 1.0
C      1  0.5224890000000  0.4931730000000  0.4105170000000 1.0
C      1  0.5059630000000  0.4323530000000  0.5563190000000 1.0
C      1  0.5216910000000  0.4048600000000  0.4262630000000 1.0
C      1  0.4030600000000  0.5407240000000  0.5068590000000 1.0
C      1  0.4325640000000  0.4582300000000  0.4900960000000 1.0
C      1  0.5043590000000  0.5286790000000  0.3841910000000 1.0
C      1  0.4880200000000  0.4824080000000  0.5630310000000 1.0
C      1  0.4726870000000  0.5524570000000  0.4747490000000 1.0
C      1  0.5033910000000  0.5167170000000  0.4725870000000 1.0
C      1  0.4774360000000  0.5182620000000  0.4218720000000 1.0
C      1  0.5384920000000  0.5587980000000  0.4676130000000 1.0
C      1  0.5869800000000  0.5684740000000  0.4697870000000 1.0
C      1  0.4088420000000  0.4596400000000  0.4587660000000 1.0
C      1  0.4729740000000  0.5176720000000  0.4737660000000 1.0
C      1  0.5240430000000  0.6042880000000  0.4825480000000 1.0
C      1  0.4638070000000  0.4429540000000  0.5755880000000 1.0
C      1  0.5611290000000  0.5267070000000  0.5331070000000 1.0
C      1  0.4226300000000  0.4177210000000  0.4756660000000 1.0
C      1  0.5502490000000  0.4738100000000  0.5692030000000 1.0
C      1  0.6054050000000  0.4886610000000  0.5262660000000 1.0
C      1  0.3950490000000  0.4888760000000  0.5327130000000 1.0
C      1  0.4383630000000  0.4895070000000  0.5591670000000 1.0
C      1  0.5503050000000  0.4291950000000  0.5423460000000 1.0
C      1  0.5942720000000  0.5078180000000  0.5056740000000 1.0
C      1  0.4183620000000  0.4370370000000  0.5686030000000 1.0
C      1  0.4402380000000  0.4849730000000  0.4772570000000 1.0
C      1  0.5838600000000  0.5340110000000  0.5641910000000 1.0
C      1  0.5869570000000  0.4559970000000  0.4724260000000 1.0
C      1  0.4371330000000  0.4133980000000  0.5007920000000 1.0
C      1  0.4837910000000  0.4434870000000  0.4839790000000 1.0
C      1  0.5519270000000  0.5977690000000  0.4953270000000 1.0
C      1  0.5994210000000  0.4805750000000  0.4623960000000 1.0
C      1  0.5518990000000  0.4954360000000  0.4069720000000 1.0
C      1  0.5848190000000  0.4584430000000  0.5628240000000 1.0
C      1  0.5651140000000  0.5363340000000  0.4267380000000 1.0
C      1  0.5206080000000  0.4675500000000  0.4295450000000 1.0
C      1  0.5410310000000  0.5375830000000  0.4892470000000 1.0
C      1  0.4174950000000  0.5366770000000  0.5561750000000 1.0
C      1  0.4234670000000  0.4285650000000  0.5217170000000 1.0
C      1  0.5079350000000  0.4391590000000  0.3919840000000 1.0
C      1  0.4376810000000  0.4517790000000  0.5821770000000 1.0
C      1  0.4871540000000  0.5524370000000  0.4469610000000 1.0
C      1  0.4288700000000  0.5093900000000  0.4889640000000 1.0
C      1  0.4836080000000  0.5827360000000  0.5662190000000 1.0
C      1  0.4987270000000  0.5509630000000  0.4013990000000 1.0
C      1  0.4527050000000  0.4935320000000  0.6076660000000 1.0
C      1  0.4741400000000  0.4709360000000  0.4461770000000 1.0
C      1  0.5032450000000  0.6053130000000  0.5033060000000 1.0
C      1  0.5277150000000  0.4984040000000  0.5300120000000 1.0
C      1  0.5200580000000  0.4138340000000  0.4992640000000 1.0
C      1  0.4609580000000  0.5019030000000  0.3996390000000 1.0
C      1  0.4494860000000  0.5985460000000  0.4821400000000 1.0
C      1  0.5146440000000  0.5774890000000  0.4708710000000 1.0
C      1  0.4778860000000  0.6183260000000  0.4993430000000 1.0
C      1  0.4660930000000  0.5788160000000  0.4271590000000 1.0
C      1  0.5021700000000  0.5798200000000  0.4411950000000 1.0
C      1  0.4643410000000  0.4127300000000  0.4484720000000 1.0
C      1  0.4856960000000  0.4718800000000  0.4723330000000 1.0
C      1  0.5081560000000  0.4024310000000  0.4740690000000 1.0
C      1  0.5978370000000  0.5391170000000  0.5132400000000 1.0
C      1  0.5971520000000  0.4462770000000  0.4981520000000 1.0
C      1  0.4805860000000  0.5598990000000  0.5240730000000 1.0
C      1  0.5053960000000  0.5132500000000  0.5191670000000 1.0
C      1  0.4801200000000  0.4129530000000  0.4748080000000 1.0
C      1  0.4659300000000  0.4042280000000  0.5013510000000 1.0
C      1  0.4475620000000  0.5607040000000  0.5921400000000 1.0
C      1  0.6150230000000  0.4646920000000  0.5127080000000 1.0
C      1  0.5353110000000  0.4789370000000  0.4615100000000 1.0
C      1  0.5688250000000  0.4404010000000  0.4547860000000 1.0
C      1  0.4463580000000  0.5219720000000  0.5969630000000 1.0
C      1  0.4912970000000  0.4575410000000  0.4271390000000 1.0
C      1  0.5143690000000  0.5950360000000  0.5279120000000 1.0
C      1  0.3988870000000  0.4415840000000  0.5113770000000 1.0
C      1  0.5857430000000  0.4935570000000  0.4400190000000 1.0
C      1  0.3851140000000  0.5008440000000  0.4784350000000 1.0
C      1  0.5106490000000  0.4878550000000  0.4736560000000 1.0
C      1  0.5029920000000  0.5734450000000  0.5879760000000 1.0
C      1  0.5485210000000  0.4200580000000  0.4932900000000 1.0
C      1  0.4701890000000  0.4597710000000  0.5278830000000 1.0
C      1  0.4664200000000  0.4853190000000  0.5440060000000 1.0
C      1  0.5403850000000  0.4561350000000  0.4843320000000 1.0
C      1  0.4633750000000  0.4230200000000  0.5517340000000 1.0
C      1  0.3992070000000  0.5265440000000  0.5335560000000 1.0
C      1  0.4589950000000  0.4464330000000  0.5028320000000 1.0
C      1  0.4939060000000  0.5575890000000  0.4962890000000 1.0
C      1  0.5553950000000  0.4711150000000  0.5073790000000 1.0
C      1  0.4851190000000  0.4624120000000  0.5843320000000 1.0
C      1  0.5100500000000  0.4016000000000  0.5256480000000 1.0
C      1  0.4480410000000  0.5382030000000  0.4068290000000 1.0
C      1  0.5018840000000  0.4176990000000  0.4109960000000 1.0
C      1  0.4131720000000  0.4970210000000  0.4114410000000 1.0
C      1  0.5406450000000  0.5310470000000  0.5569130000000 1.0
C      1  0.5758260000000  0.4985050000000  0.5941810000000 1.0
C      1  0.4930580000000  0.5455740000000  0.5936800000000 1.0
C      1  0.5108210000000  0.4471050000000  0.5842080000000 1.0
C      1  0.4619390000000  0.5137140000000  0.4465510000000 1.0
C      1  0.5773150000000  0.4327140000000  0.5519040000000 1.0
C      1  0.4803610000000  0.4095660000000  0.5276510000000 1.0
C      1  0.5974710000000  0.5639800000000  0.4952860000000 1.0
C      1  0.5359530000000  0.4619010000000  0.5927280000000 1.0
C      1  0.5092990000000  0.4421240000000  0.5000110000000 1.0
C      1  0.4291750000000  0.5514750000000  0.5164270000000 1.0
C      1  0.5847270000000  0.5755560000000  0.5395440000000 1.0
C      1  0.5263750000000  0.4111830000000  0.4531370000000 1.0
C      1  0.4385680000000  0.5186350000000  0.5678160000000 1.0
C      1  0.6072060000000  0.5042000000000  0.4788600000000 1.0
C      1  0.4819850000000  0.4857220000000  0.3838510000000 1.0
C      1  0.5599440000000  0.5498840000000  0.5131750000000 1.0
C      1  0.5164180000000  0.5498580000000  0.5530020000000 1.0
C      1  0.5362200000000  0.4451700000000  0.4170980000000 1.0
C      1  0.4330060000000  0.4762780000000  0.5950880000000 1.0
C      1  0.5270940000000  0.4114230000000  0.5486870000000 1.0
C      1  0.5887340000000  0.5057950000000  0.5707430000000 1.0
C      1  0.5606110000000  0.5769890000000  0.4744250000000 1.0
C      1  0.4236930000000  0.4905760000000  0.5328570000000 1.0
C      1  0.4941060000000  0.5326540000000  0.5655990000000 1.0
C      1  0.4046080000000  0.5228940000000  0.4799660000000 1.0
C      1  0.4356400000000  0.4559850000000  0.4123180000000 1.0
C      1  0.4054110000000  0.5045360000000  0.4369890000000 1.0
C      1  0.3867450000000  0.4643350000000  0.5227610000000 1.0
C      1  0.5529850000000  0.5043860000000  0.6094000000000 1.0
C      1  0.6020930000000  0.5276390000000  0.4633370000000 1.0
C      1  0.5047560000000  0.5039410000000  0.5722000000000 1.0
C      1  0.5840870000000  0.5837800000000  0.5112840000000 1.0
C      1  0.5319270000000  0.5015700000000  0.5594650000000 1.0
C      1  0.5319420000000  0.5713820000000  0.5794120000000 1.0
C      1  0.4008960000000  0.4378290000000  0.4806850000000 1.0
C      1  0.5076100000000  0.5002090000000  0.3844590000000 1.0
C      1  0.3938120000000  0.4859000000000  0.4557470000000 1.0
C      1  0.5561940000000  0.5745560000000  0.5428220000000 1.0
END
