TITL C-951342-2639-402 8.41038310500882e-07 125000 -820.146261472766 0 0 133 (C1) n - 1
REM
REM in /home/bkarasulu/work/CARBON/AIRSS/Generating-Clusters/EDIP-Nigel-Params/with-SteepDescent/Only-C1/SD-CG/HFTN-CG
REM
REM
REM
REM
REM
REM ./C.cell (11c1c37f851c82e70ff6c80c92926a4b)
REM
REM compiler GCC version 9.2.1 20190827 (Red Hat 9.2.1-1)
REM options -cpp -mtune=generic -march=x86-64 -g -O0 -fpre-include=/usr/include/finclude/math-vector-fortran.h
REM seed 1659226494 2049178406 1667328338 860338384 1242819330 1726321904 -497817867 1888530420 -743266490 1365529499 -1239604829 -2012880647 1835629984 2016349421 -1463918130 7104148 -1465342977 351612259 159382226 -862773647 -362204014 550010389 1823358558 1785213962 1472470892 -1192418736 801901257 1837465141 150694078 1628443608 2104339350 -1079421346 -1435623095
REM
CELL 1.54180   50.00000   50.00000   50.00000   90.00000   90.00000   90.00000
LATT -1
SFAC C  
C      1  0.4330590000000  0.4496020000000  0.4989390000000 1.0
C      1  0.4922680000000  0.5025200000000  0.5767350000000 1.0
C      1  0.5111680000000  0.5898420000000  0.5008620000000 1.0
C      1  0.5751580000000  0.5571690000000  0.5391570000000 1.0
C      1  0.4639270000000  0.4417690000000  0.4169500000000 1.0
C      1  0.5031280000000  0.4529280000000  0.4424130000000 1.0
C      1  0.4402650000000  0.5110210000000  0.5094570000000 1.0
C      1  0.4185600000000  0.4929180000000  0.5203980000000 1.0
C      1  0.4461540000000  0.4912650000000  0.5580070000000 1.0
C      1  0.4503440000000  0.4230140000000  0.4942320000000 1.0
C      1  0.4906830000000  0.4919020000000  0.5267440000000 1.0
C      1  0.4992400000000  0.5006770000000  0.4092480000000 1.0
C      1  0.5875930000000  0.4544800000000  0.4771300000000 1.0
C      1  0.5311920000000  0.5181710000000  0.5579590000000 1.0
C      1  0.4388780000000  0.5658870000000  0.4513850000000 1.0
C      1  0.4550890000000  0.4728260000000  0.4919010000000 1.0
C      1  0.6045260000000  0.5249450000000  0.5144940000000 1.0
C      1  0.5294090000000  0.4411140000000  0.5712970000000 1.0
C      1  0.5390620000000  0.4346460000000  0.4699460000000 1.0
C      1  0.3885430000000  0.5226780000000  0.4975410000000 1.0
C      1  0.5674830000000  0.4833460000000  0.5774740000000 1.0
C      1  0.5323780000000  0.4554130000000  0.5952520000000 1.0
C      1  0.4376840000000  0.5167200000000  0.4507520000000 1.0
C      1  0.5237170000000  0.5438540000000  0.4196190000000 1.0
C      1  0.4814940000000  0.5514570000000  0.5186220000000 1.0
C      1  0.4257970000000  0.4639190000000  0.5241570000000 1.0
C      1  0.5380320000000  0.4090450000000  0.4889530000000 1.0
C      1  0.5308220000000  0.5066420000000  0.4517610000000 1.0
C      1  0.5792430000000  0.5359130000000  0.4647360000000 1.0
C      1  0.5441010000000  0.5606030000000  0.5171400000000 1.0
C      1  0.4238500000000  0.5848210000000  0.4801580000000 1.0
C      1  0.4197860000000  0.5057770000000  0.5485500000000 1.0
C      1  0.5729900000000  0.5414630000000  0.5643060000000 1.0
C      1  0.5333330000000  0.4701710000000  0.5137760000000 1.0
C      1  0.4291940000000  0.4701990000000  0.4346990000000 1.0
C      1  0.4315310000000  0.5388240000000  0.5153990000000 1.0
C      1  0.5199760000000  0.4936460000000  0.5660690000000 1.0
C      1  0.5280810000000  0.5596550000000  0.5427430000000 1.0
C      1  0.4497420000000  0.4847150000000  0.5860310000000 1.0
C      1  0.5861080000000  0.5481090000000  0.5131620000000 1.0
C      1  0.4698490000000  0.5615680000000  0.4563410000000 1.0
C      1  0.5002210000000  0.5834710000000  0.4271830000000 1.0
C      1  0.4546780000000  0.5567990000000  0.5065960000000 1.0
C      1  0.4593870000000  0.4602260000000  0.4642790000000 1.0
C      1  0.5750630000000  0.5556950000000  0.4856670000000 1.0
C      1  0.4556630000000  0.4691810000000  0.4216050000000 1.0
C      1  0.5128050000000  0.5666120000000  0.5672680000000 1.0
C      1  0.4536590000000  0.5046360000000  0.4844140000000 1.0
C      1  0.4312130000000  0.5461340000000  0.5697340000000 1.0
C      1  0.5046680000000  0.3993430000000  0.4550700000000 1.0
C      1  0.5463090000000  0.5569310000000  0.4323860000000 1.0
C      1  0.5257440000000  0.5399390000000  0.4895190000000 1.0
C      1  0.3959650000000  0.4960460000000  0.5002590000000 1.0
C      1  0.4750360000000  0.5408660000000  0.4158210000000 1.0
C      1  0.5461970000000  0.5148470000000  0.4851700000000 1.0
C      1  0.4572030000000  0.5181230000000  0.4262870000000 1.0
C      1  0.4883100000000  0.4577720000000  0.5675690000000 1.0
C      1  0.5741440000000  0.5085980000000  0.5611680000000 1.0
C      1  0.5539900000000  0.5176310000000  0.5150740000000 1.0
C      1  0.5749620000000  0.4632170000000  0.4534590000000 1.0
C      1  0.4957360000000  0.5770900000000  0.5210330000000 1.0
C      1  0.5865950000000  0.5080960000000  0.4690250000000 1.0
C      1  0.4472790000000  0.5407280000000  0.5906470000000 1.0
C      1  0.4744540000000  0.5471390000000  0.5932400000000 1.0
C      1  0.5276210000000  0.4662620000000  0.4339510000000 1.0
C      1  0.4867610000000  0.5345110000000  0.4608670000000 1.0
C      1  0.4868640000000  0.4138580000000  0.4999560000000 1.0
C      1  0.4045020000000  0.4821680000000  0.4744230000000 1.0
C      1  0.5188740000000  0.4246910000000  0.5321550000000 1.0
C      1  0.4755880000000  0.5076850000000  0.5496740000000 1.0
C      1  0.5731300000000  0.4596340000000  0.5632700000000 1.0
C      1  0.4983950000000  0.5890820000000  0.4752430000000 1.0
C      1  0.4124640000000  0.4535940000000  0.4770360000000 1.0
C      1  0.4937290000000  0.5251340000000  0.5991660000000 1.0
C      1  0.4915020000000  0.4344190000000  0.4210910000000 1.0
C      1  0.4989410000000  0.4894480000000  0.4758020000000 1.0
C      1  0.5012510000000  0.5301840000000  0.4069560000000 1.0
C      1  0.5407970000000  0.5861190000000  0.5026680000000 1.0
C      1  0.4833860000000  0.5143860000000  0.4826970000000 1.0
C      1  0.4764850000000  0.5681470000000  0.4283280000000 1.0
C      1  0.6017200000000  0.5056600000000  0.5358890000000 1.0
C      1  0.5430370000000  0.4096180000000  0.5264210000000 1.0
C      1  0.4703320000000  0.4511000000000  0.5420390000000 1.0
C      1  0.4441200000000  0.4636670000000  0.5462830000000 1.0
C      1  0.5615510000000  0.4272480000000  0.5134750000000 1.0
C      1  0.5669750000000  0.5369120000000  0.4378890000000 1.0
C      1  0.5284540000000  0.5230450000000  0.5295620000000 1.0
C      1  0.5160480000000  0.4817140000000  0.5373230000000 1.0
C      1  0.5386720000000  0.5738090000000  0.4548510000000 1.0
C      1  0.5777700000000  0.4915700000000  0.4471890000000 1.0
C      1  0.4707710000000  0.5949440000000  0.4756790000000 1.0
C      1  0.5083010000000  0.3967490000000  0.4842840000000 1.0
C      1  0.4938020000000  0.4322390000000  0.5807660000000 1.0
C      1  0.5491990000000  0.5001040000000  0.4067810000000 1.0
C      1  0.5173030000000  0.5356120000000  0.4572470000000 1.0
C      1  0.4082090000000  0.5595420000000  0.4747290000000 1.0
C      1  0.5250650000000  0.4861910000000  0.4127410000000 1.0
C      1  0.4964440000000  0.4428940000000  0.4940780000000 1.0
C      1  0.4765720000000  0.4123750000000  0.5713440000000 1.0
C      1  0.4221280000000  0.5417550000000  0.4517650000000 1.0
C      1  0.4842010000000  0.5573600000000  0.5671270000000 1.0
C      1  0.5956220000000  0.4962620000000  0.4935830000000 1.0
C      1  0.5568320000000  0.5085290000000  0.4339270000000 1.0
C      1  0.4713770000000  0.4939090000000  0.4186610000000 1.0
C      1  0.5857290000000  0.4688100000000  0.5012810000000 1.0
C      1  0.5622750000000  0.4573330000000  0.5209790000000 1.0
C      1  0.4504190000000  0.5812490000000  0.4909970000000 1.0
C      1  0.4929880000000  0.4097000000000  0.5283930000000 1.0
C      1  0.5720330000000  0.4992140000000  0.5305210000000 1.0
C      1  0.5531530000000  0.4425730000000  0.5538800000000 1.0
C      1  0.4191240000000  0.4933660000000  0.4497540000000 1.0
C      1  0.4710570000000  0.4202300000000  0.5447130000000 1.0
C      1  0.5560810000000  0.5779740000000  0.4782710000000 1.0
C      1  0.5240490000000  0.5638620000000  0.5940950000000 1.0
C      1  0.4247730000000  0.4475580000000  0.4515460000000 1.0
C      1  0.4858920000000  0.4069260000000  0.4335930000000 1.0
C      1  0.5207890000000  0.4437270000000  0.5093110000000 1.0
C      1  0.5392450000000  0.4814500000000  0.5865520000000 1.0
C      1  0.4787380000000  0.4662430000000  0.5126560000000 1.0
C      1  0.4761720000000  0.5391280000000  0.5450700000000 1.0
C      1  0.5449060000000  0.5371260000000  0.5756280000000 1.0
C      1  0.4594370000000  0.4151430000000  0.4442500000000 1.0
C      1  0.4852520000000  0.4727300000000  0.4548340000000 1.0
C      1  0.4228220000000  0.5348440000000  0.5456320000000 1.0
C      1  0.4777730000000  0.4787840000000  0.5866770000000 1.0
C      1  0.5142350000000  0.5889230000000  0.4511270000000 1.0
C      1  0.5293480000000  0.4867940000000  0.4842630000000 1.0
C      1  0.5099580000000  0.4360260000000  0.4657790000000 1.0
C      1  0.4063950000000  0.5437810000000  0.4995260000000 1.0
C      1  0.5489750000000  0.4521050000000  0.4484280000000 1.0
C      1  0.4989170000000  0.5294770000000  0.5051720000000 1.0
C      1  0.4621780000000  0.4309150000000  0.4683940000000 1.0
C      1  0.5197790000000  0.5375330000000  0.6047930000000 1.0
END
