TITL C-951338-5626-573 -1.45458950807049e-06 125000 -703.879687415198 0 0 114 (C1) n - 1
REM
REM in /home/bkarasulu/work/CARBON/AIRSS/Generating-Clusters/EDIP-Nigel-Params/with-SteepDescent/Only-C1/SD-CG/HFTN-CG
REM
REM
REM
REM
REM
REM ./C.cell (11c1c37f851c82e70ff6c80c92926a4b)
REM
REM compiler GCC version 9.2.1 20190827 (Red Hat 9.2.1-1)
REM options -cpp -mtune=generic -march=x86-64 -g -O0 -fpre-include=/usr/include/finclude/math-vector-fortran.h
REM seed 1739508039 -1196823646 -1764222745 161682925 2071900718 -56523840 -246894553 -1992942175 633551375 1127409764 380780525 1843440515 1981576778 -1426791579 2037253205 -271254936 1169602106 -2063792633 1881947532 823851058 1381185378 -125001808 -118797440 -760241540 254061540 1772464493 1717365553 -2087414353 1848454060 -2001144716 -573728068 410262776 624402643
REM
CELL 1.54180   50.00000   50.00000   50.00000   90.00000   90.00000   90.00000
LATT -1
SFAC C  
C      1  0.5292530000000  0.4106540000000  0.5400360000000 1.0
C      1  0.4655210000000  0.5065420000000  0.5679890000000 1.0
C      1  0.5658920000000  0.4431450000000  0.5582030000000 1.0
C      1  0.5264390000000  0.5815090000000  0.4724860000000 1.0
C      1  0.4379930000000  0.5745380000000  0.5511980000000 1.0
C      1  0.4757310000000  0.5971130000000  0.5038260000000 1.0
C      1  0.4321220000000  0.5926340000000  0.4816530000000 1.0
C      1  0.5337650000000  0.4800630000000  0.4300080000000 1.0
C      1  0.4943620000000  0.4449290000000  0.4296230000000 1.0
C      1  0.4320920000000  0.5195350000000  0.5061290000000 1.0
C      1  0.4546520000000  0.4801280000000  0.5284610000000 1.0
C      1  0.5180240000000  0.4609060000000  0.4950170000000 1.0
C      1  0.4840370000000  0.4913440000000  0.5851950000000 1.0
C      1  0.5792290000000  0.5009590000000  0.5588460000000 1.0
C      1  0.4717240000000  0.4852390000000  0.4843150000000 1.0
C      1  0.4915660000000  0.5175900000000  0.4126420000000 1.0
C      1  0.5300090000000  0.5716940000000  0.5013960000000 1.0
C      1  0.4982580000000  0.5758950000000  0.4664070000000 1.0
C      1  0.5630620000000  0.5213770000000  0.4426060000000 1.0
C      1  0.4659540000000  0.5576980000000  0.4354890000000 1.0
C      1  0.5933240000000  0.4792400000000  0.5126330000000 1.0
C      1  0.4439930000000  0.4923390000000  0.4998640000000 1.0
C      1  0.5145970000000  0.5421880000000  0.5671610000000 1.0
C      1  0.5717030000000  0.4349570000000  0.5313260000000 1.0
C      1  0.5751630000000  0.4563900000000  0.5117380000000 1.0
C      1  0.4922660000000  0.5757050000000  0.5466210000000 1.0
C      1  0.4464740000000  0.5936370000000  0.5061430000000 1.0
C      1  0.5823250000000  0.4942420000000  0.4887940000000 1.0
C      1  0.5573330000000  0.5571640000000  0.4928330000000 1.0
C      1  0.5037470000000  0.5156610000000  0.5197190000000 1.0
C      1  0.5844040000000  0.5024170000000  0.4501300000000 1.0
C      1  0.4950420000000  0.5770440000000  0.5177140000000 1.0
C      1  0.5501990000000  0.4175390000000  0.5220150000000 1.0
C      1  0.5113400000000  0.4698040000000  0.4618630000000 1.0
C      1  0.5781890000000  0.5594000000000  0.5371660000000 1.0
C      1  0.4676620000000  0.4549770000000  0.4393830000000 1.0
C      1  0.5025640000000  0.4465440000000  0.5822820000000 1.0
C      1  0.5140100000000  0.4167420000000  0.4960680000000 1.0
C      1  0.5314430000000  0.5547490000000  0.5472870000000 1.0
C      1  0.4755490000000  0.4818390000000  0.4525950000000 1.0
C      1  0.5844090000000  0.4690510000000  0.4703730000000 1.0
C      1  0.5281080000000  0.4593710000000  0.5864260000000 1.0
C      1  0.4441570000000  0.5451990000000  0.4652020000000 1.0
C      1  0.5552230000000  0.5177660000000  0.5528900000000 1.0
C      1  0.5063030000000  0.4107080000000  0.5234130000000 1.0
C      1  0.5154210000000  0.5261630000000  0.4272190000000 1.0
C      1  0.4916970000000  0.5279120000000  0.4646040000000 1.0
C      1  0.5269390000000  0.4810150000000  0.6042650000000 1.0
C      1  0.5218360000000  0.5126880000000  0.5660560000000 1.0
C      1  0.4994450000000  0.4951240000000  0.4958110000000 1.0
C      1  0.5113410000000  0.5002520000000  0.5911300000000 1.0
C      1  0.4668230000000  0.4209610000000  0.4798850000000 1.0
C      1  0.4272430000000  0.4997860000000  0.4384440000000 1.0
C      1  0.4119070000000  0.5161650000000  0.5264820000000 1.0
C      1  0.5538950000000  0.5221860000000  0.5209450000000 1.0
C      1  0.4313720000000  0.4504270000000  0.5371540000000 1.0
C      1  0.4264110000000  0.4564100000000  0.4605910000000 1.0
C      1  0.4614630000000  0.4809060000000  0.4006830000000 1.0
C      1  0.5186950000000  0.5548460000000  0.4312590000000 1.0
C      1  0.4219790000000  0.4789560000000  0.4816630000000 1.0
C      1  0.5074530000000  0.4692950000000  0.4178810000000 1.0
C      1  0.5702400000000  0.4785720000000  0.5733630000000 1.0
C      1  0.5111830000000  0.5056150000000  0.4705070000000 1.0
C      1  0.4250020000000  0.4704310000000  0.4329370000000 1.0
C      1  0.4962140000000  0.4207090000000  0.4741470000000 1.0
C      1  0.4774630000000  0.5947790000000  0.4743970000000 1.0
C      1  0.4742080000000  0.4396650000000  0.5576500000000 1.0
C      1  0.5331400000000  0.4786670000000  0.5385710000000 1.0
C      1  0.5560590000000  0.4287210000000  0.4722610000000 1.0
C      1  0.5085000000000  0.4327570000000  0.4511970000000 1.0
C      1  0.5533030000000  0.5005370000000  0.4987710000000 1.0
C      1  0.5598830000000  0.5491420000000  0.5560830000000 1.0
C      1  0.4491400000000  0.4618360000000  0.4171060000000 1.0
C      1  0.5418380000000  0.4739800000000  0.5106520000000 1.0
C      1  0.5940120000000  0.4935380000000  0.5364700000000 1.0
C      1  0.5395710000000  0.5095870000000  0.4274590000000 1.0
C      1  0.4174190000000  0.5039870000000  0.5528260000000 1.0
C      1  0.4777140000000  0.5293820000000  0.5244560000000 1.0
C      1  0.4849550000000  0.4751220000000  0.5330680000000 1.0
C      1  0.4185200000000  0.5317620000000  0.5614320000000 1.0
C      1  0.4355570000000  0.5923530000000  0.5315260000000 1.0
C      1  0.5412400000000  0.4232200000000  0.4951890000000 1.0
C      1  0.4517530000000  0.4388660000000  0.4594010000000 1.0
C      1  0.5527810000000  0.5393940000000  0.4664070000000 1.0
C      1  0.4408180000000  0.4421560000000  0.5117220000000 1.0
C      1  0.4802900000000  0.5528840000000  0.5068460000000 1.0
C      1  0.4630120000000  0.5230150000000  0.4626790000000 1.0
C      1  0.5080000000000  0.4951200000000  0.5419880000000 1.0
C      1  0.4413620000000  0.5473970000000  0.5549820000000 1.0
C      1  0.4882330000000  0.5537030000000  0.5641580000000 1.0
C      1  0.4801150000000  0.4628970000000  0.5883720000000 1.0
C      1  0.4469500000000  0.4527870000000  0.5612740000000 1.0
C      1  0.5376320000000  0.5153320000000  0.4781970000000 1.0
C      1  0.4707790000000  0.4570060000000  0.4944160000000 1.0
C      1  0.5825090000000  0.4784170000000  0.4333240000000 1.0
C      1  0.4521690000000  0.5829900000000  0.4634340000000 1.0
C      1  0.5730490000000  0.5439110000000  0.5140790000000 1.0
C      1  0.4144360000000  0.5037420000000  0.4655020000000 1.0
C      1  0.4586460000000  0.4189480000000  0.5107730000000 1.0
C      1  0.4963290000000  0.5503820000000  0.4823460000000 1.0
C      1  0.5596140000000  0.4548300000000  0.4635730000000 1.0
C      1  0.4682530000000  0.5339570000000  0.5535960000000 1.0
C      1  0.4867410000000  0.4890250000000  0.4103140000000 1.0
C      1  0.4922090000000  0.4541170000000  0.5140760000000 1.0
C      1  0.4573080000000  0.5063860000000  0.4388550000000 1.0
C      1  0.4825650000000  0.4281220000000  0.5282270000000 1.0
C      1  0.5463640000000  0.4648040000000  0.5630710000000 1.0
C      1  0.5576740000000  0.4628640000000  0.4355780000000 1.0
C      1  0.5386890000000  0.5624670000000  0.4524360000000 1.0
C      1  0.4438330000000  0.4889850000000  0.5564650000000 1.0
C      1  0.5279610000000  0.5383880000000  0.5201420000000 1.0
C      1  0.4935380000000  0.5700650000000  0.4375000000000 1.0
C      1  0.4656930000000  0.5315030000000  0.4190560000000 1.0
C      1  0.4224010000000  0.5299160000000  0.4799100000000 1.0
END
