TITL C-951336-9012-665 -3.26965194814337e-06 125000 -1032.27288676358 0 0 164 (C1) n - 1
REM
REM in /home/bkarasulu/work/CARBON/AIRSS/Generating-Clusters/EDIP-Nigel-Params/with-SteepDescent/Only-C1/SD-CG/HFTN-CG
REM
REM
REM
REM
REM
REM ./C.cell (11c1c37f851c82e70ff6c80c92926a4b)
REM
REM compiler GCC version 9.2.1 20190827 (Red Hat 9.2.1-1)
REM options -cpp -mtune=generic -march=x86-64 -g -O0 -fpre-include=/usr/include/finclude/math-vector-fortran.h
REM seed 447048837 1095263450 -1299504943 -2128962073 -979439496 944664082 -1229155872 210655701 466701679 2013714911 -677984580 -1248508212 -738150533 332835226 -1878003457 -91974011 1241476786 568679743 2105063408 447432410 1730551338 -1964207526 979674893 -1699820911 1005471749 -36334699 1063999695 1803616842 -1405942417 1604236357 1737239838 -1909355059 -1840836979
REM
CELL 1.54180   50.00000   50.00000   50.00000   90.00000   90.00000   90.00000
LATT -1
SFAC C  
C      1  0.4580950000000  0.4057110000000  0.5241730000000 1.0
C      1  0.5331600000000  0.5793120000000  0.4490230000000 1.0
C      1  0.4907530000000  0.4041190000000  0.4340850000000 1.0
C      1  0.5221810000000  0.5209990000000  0.5891190000000 1.0
C      1  0.4700400000000  0.4962180000000  0.6071170000000 1.0
C      1  0.5314820000000  0.4832070000000  0.6164490000000 1.0
C      1  0.4625540000000  0.5210590000000  0.5437930000000 1.0
C      1  0.4447220000000  0.5118410000000  0.4977860000000 1.0
C      1  0.4298690000000  0.4860810000000  0.5830760000000 1.0
C      1  0.5109290000000  0.5772260000000  0.4288180000000 1.0
C      1  0.4468940000000  0.5093560000000  0.5940590000000 1.0
C      1  0.4394850000000  0.4078940000000  0.4716870000000 1.0
C      1  0.5618970000000  0.5367410000000  0.4052990000000 1.0
C      1  0.4191070000000  0.5254420000000  0.4261210000000 1.0
C      1  0.4704740000000  0.4696550000000  0.5574730000000 1.0
C      1  0.5483350000000  0.5287690000000  0.5780700000000 1.0
C      1  0.5841450000000  0.4442750000000  0.5363820000000 1.0
C      1  0.5191280000000  0.5109010000000  0.3887190000000 1.0
C      1  0.5287240000000  0.5796760000000  0.4801230000000 1.0
C      1  0.5636100000000  0.4311260000000  0.5529990000000 1.0
C      1  0.5299810000000  0.5025840000000  0.5353120000000 1.0
C      1  0.5655140000000  0.4847540000000  0.5069790000000 1.0
C      1  0.5452610000000  0.5554130000000  0.5647890000000 1.0
C      1  0.4580090000000  0.5011820000000  0.4334870000000 1.0
C      1  0.5667830000000  0.5409700000000  0.4610020000000 1.0
C      1  0.4499380000000  0.5382700000000  0.5824740000000 1.0
C      1  0.4708020000000  0.4894500000000  0.4598810000000 1.0
C      1  0.5057960000000  0.5427040000000  0.5296010000000 1.0
C      1  0.4345140000000  0.5901040000000  0.4960780000000 1.0
C      1  0.4174870000000  0.5091650000000  0.4848290000000 1.0
C      1  0.5801140000000  0.4559040000000  0.5064440000000 1.0
C      1  0.5779580000000  0.4609910000000  0.4594230000000 1.0
C      1  0.4889030000000  0.5412640000000  0.4408710000000 1.0
C      1  0.4773000000000  0.4074310000000  0.5452740000000 1.0
C      1  0.5183070000000  0.4155080000000  0.5610900000000 1.0
C      1  0.4325600000000  0.5577560000000  0.4631890000000 1.0
C      1  0.4472930000000  0.5505600000000  0.4217760000000 1.0
C      1  0.4101050000000  0.4634160000000  0.4993930000000 1.0
C      1  0.5688000000000  0.4801530000000  0.5659930000000 1.0
C      1  0.5297540000000  0.4596230000000  0.6014920000000 1.0
C      1  0.4608670000000  0.5565520000000  0.5070960000000 1.0
C      1  0.4345480000000  0.5644260000000  0.5715130000000 1.0
C      1  0.4897420000000  0.5152340000000  0.3934880000000 1.0
C      1  0.4994040000000  0.4930360000000  0.4541450000000 1.0
C      1  0.3896280000000  0.5083760000000  0.5247250000000 1.0
C      1  0.5008870000000  0.4494270000000  0.5988840000000 1.0
C      1  0.5670010000000  0.5623940000000  0.4156880000000 1.0
C      1  0.4636160000000  0.5735200000000  0.4145000000000 1.0
C      1  0.5188480000000  0.6019610000000  0.4998700000000 1.0
C      1  0.4958620000000  0.5076220000000  0.4958150000000 1.0
C      1  0.5128610000000  0.5564870000000  0.4075630000000 1.0
C      1  0.4708910000000  0.4222880000000  0.5688400000000 1.0
C      1  0.4145090000000  0.4646970000000  0.5367960000000 1.0
C      1  0.4835630000000  0.5601910000000  0.4649340000000 1.0
C      1  0.5490460000000  0.4567760000000  0.5752120000000 1.0
C      1  0.5651630000000  0.4858040000000  0.4157880000000 1.0
C      1  0.4973810000000  0.4261040000000  0.5806620000000 1.0
C      1  0.4276890000000  0.4983310000000  0.4331930000000 1.0
C      1  0.5613830000000  0.5594750000000  0.5387000000000 1.0
C      1  0.4418270000000  0.4298940000000  0.5156090000000 1.0
C      1  0.5195940000000  0.4728360000000  0.4480460000000 1.0
C      1  0.5943060000000  0.5413380000000  0.5016050000000 1.0
C      1  0.4433900000000  0.4596170000000  0.5901100000000 1.0
C      1  0.5726140000000  0.4597700000000  0.4296980000000 1.0
C      1  0.4159350000000  0.4911900000000  0.4601190000000 1.0
C      1  0.3940780000000  0.5371390000000  0.5134990000000 1.0
C      1  0.5167470000000  0.5282110000000  0.4787820000000 1.0
C      1  0.5368240000000  0.4071730000000  0.4752250000000 1.0
C      1  0.5775130000000  0.5566270000000  0.4831380000000 1.0
C      1  0.5277620000000  0.4360380000000  0.4113560000000 1.0
C      1  0.5168740000000  0.5618810000000  0.5678420000000 1.0
C      1  0.5130690000000  0.4607450000000  0.4016620000000 1.0
C      1  0.4249130000000  0.4190760000000  0.4941540000000 1.0
C      1  0.5321170000000  0.4304980000000  0.5160600000000 1.0
C      1  0.5568110000000  0.5364940000000  0.5154270000000 1.0
C      1  0.5089110000000  0.5204720000000  0.4507600000000 1.0
C      1  0.4960840000000  0.5919230000000  0.5166180000000 1.0
C      1  0.5015210000000  0.3924330000000  0.5084650000000 1.0
C      1  0.5870790000000  0.5228120000000  0.4467410000000 1.0
C      1  0.4083220000000  0.5136710000000  0.5481040000000 1.0
C      1  0.4859470000000  0.5447650000000  0.4025360000000 1.0
C      1  0.5225930000000  0.4538550000000  0.5585830000000 1.0
C      1  0.4913100000000  0.5080710000000  0.6204640000000 1.0
C      1  0.4175940000000  0.4631250000000  0.4692800000000 1.0
C      1  0.5554150000000  0.5614620000000  0.4414800000000 1.0
C      1  0.4757150000000  0.5508770000000  0.5904100000000 1.0
C      1  0.5565240000000  0.4938450000000  0.4795820000000 1.0
C      1  0.4247000000000  0.4888720000000  0.5528280000000 1.0
C      1  0.5010040000000  0.5861070000000  0.5669720000000 1.0
C      1  0.4426390000000  0.4525740000000  0.4536580000000 1.0
C      1  0.5182070000000  0.5074490000000  0.6139250000000 1.0
C      1  0.5008570000000  0.4474530000000  0.4459530000000 1.0
C      1  0.4646790000000  0.4578540000000  0.4741900000000 1.0
C      1  0.4246180000000  0.5666040000000  0.5433250000000 1.0
C      1  0.5126450000000  0.3940540000000  0.4805750000000 1.0
C      1  0.4420560000000  0.4234310000000  0.4462140000000 1.0
C      1  0.4740150000000  0.4500380000000  0.4305750000000 1.0
C      1  0.5067530000000  0.5573160000000  0.4842890000000 1.0
C      1  0.4619150000000  0.5306120000000  0.4365620000000 1.0
C      1  0.5318480000000  0.5322240000000  0.4071270000000 1.0
C      1  0.6067970000000  0.4685100000000  0.4991380000000 1.0
C      1  0.6076040000000  0.4859270000000  0.5249590000000 1.0
C      1  0.5008050000000  0.5390070000000  0.5777740000000 1.0
C      1  0.4828400000000  0.5892990000000  0.4314390000000 1.0
C      1  0.4897860000000  0.4406360000000  0.4729320000000 1.0
C      1  0.4585640000000  0.5481840000000  0.4770580000000 1.0
C      1  0.5032140000000  0.4983470000000  0.5449350000000 1.0
C      1  0.4490650000000  0.5885520000000  0.5775710000000 1.0
C      1  0.5182120000000  0.4770930000000  0.4948190000000 1.0
C      1  0.5921830000000  0.4700680000000  0.5483480000000 1.0
C      1  0.4887880000000  0.4026880000000  0.4645110000000 1.0
C      1  0.5421550000000  0.4330710000000  0.4858740000000 1.0
C      1  0.4662480000000  0.4204490000000  0.4257340000000 1.0
C      1  0.5371140000000  0.4699890000000  0.4727420000000 1.0
C      1  0.4477470000000  0.5318350000000  0.5199450000000 1.0
C      1  0.5585380000000  0.5846860000000  0.5210230000000 1.0
C      1  0.5046670000000  0.4030260000000  0.5369900000000 1.0
C      1  0.5374420000000  0.6045480000000  0.5234460000000 1.0
C      1  0.5320000000000  0.5184640000000  0.4330760000000 1.0
C      1  0.4753780000000  0.5786080000000  0.5804320000000 1.0
C      1  0.6006390000000  0.4775660000000  0.4701470000000 1.0
C      1  0.4639040000000  0.3924330000000  0.4766400000000 1.0
C      1  0.6063780000000  0.5561860000000  0.5226790000000 1.0
C      1  0.4572320000000  0.4541670000000  0.5036590000000 1.0
C      1  0.4015590000000  0.5356100000000  0.4847950000000 1.0
C      1  0.5148930000000  0.4234660000000  0.4348060000000 1.0
C      1  0.4536700000000  0.4925740000000  0.5437860000000 1.0
C      1  0.5547110000000  0.4410260000000  0.4184380000000 1.0
C      1  0.4728510000000  0.4686060000000  0.5970560000000 1.0
C      1  0.5475720000000  0.4137380000000  0.5360540000000 1.0
C      1  0.5783380000000  0.5145800000000  0.4191070000000 1.0
C      1  0.4300900000000  0.4409510000000  0.5417230000000 1.0
C      1  0.4132500000000  0.5420280000000  0.4484330000000 1.0
C      1  0.4514710000000  0.4448630000000  0.5644040000000 1.0
C      1  0.4178640000000  0.5705000000000  0.4837780000000 1.0
C      1  0.5291320000000  0.5271130000000  0.5212750000000 1.0
C      1  0.5481340000000  0.5235400000000  0.4816240000000 1.0
C      1  0.5558340000000  0.5737270000000  0.4937780000000 1.0
C      1  0.5336170000000  0.4555260000000  0.5314830000000 1.0
C      1  0.5700420000000  0.4419980000000  0.4814850000000 1.0
C      1  0.5889980000000  0.5504530000000  0.5442570000000 1.0
C      1  0.6023880000000  0.5042170000000  0.4613330000000 1.0
C      1  0.4202750000000  0.5395040000000  0.5317450000000 1.0
C      1  0.5373280000000  0.4806640000000  0.5182450000000 1.0
C      1  0.4839460000000  0.4656070000000  0.4070320000000 1.0
C      1  0.4856820000000  0.4906370000000  0.5213490000000 1.0
C      1  0.4825080000000  0.4606820000000  0.5165760000000 1.0
C      1  0.5876810000000  0.5073150000000  0.5192050000000 1.0
C      1  0.4688500000000  0.5107490000000  0.4810920000000 1.0
C      1  0.5004540000000  0.4753950000000  0.5634700000000 1.0
C      1  0.5368180000000  0.4900490000000  0.4271050000000 1.0
C      1  0.4921310000000  0.5618560000000  0.5111670000000 1.0
C      1  0.5311230000000  0.4843390000000  0.3973830000000 1.0
C      1  0.5039200000000  0.4509270000000  0.4987490000000 1.0
C      1  0.4766880000000  0.5893640000000  0.4612740000000 1.0
C      1  0.4030700000000  0.4917870000000  0.5036530000000 1.0
C      1  0.5847460000000  0.5209090000000  0.5459020000000 1.0
C      1  0.4721870000000  0.3896100000000  0.5045740000000 1.0
C      1  0.5642470000000  0.5093140000000  0.5627640000000 1.0
C      1  0.4916630000000  0.5261900000000  0.5503170000000 1.0
C      1  0.4746810000000  0.4935700000000  0.4082320000000 1.0
C      1  0.5044490000000  0.6022100000000  0.5429360000000 1.0
C      1  0.4406850000000  0.5833370000000  0.5242240000000 1.0
C      1  0.4541710000000  0.5982020000000  0.4768100000000 1.0
END
