TITL C-950531-5884-142 3.61439148632161e-06 125000 -329.228190353062 0 0 54 (C1) n - 1
REM
REM in /home/bkarasulu/work/CARBON/AIRSS/Generating-Clusters/EDIP-Nigel-Params/with-SteepDescent/Only-C1/SD-CG/HFTN-CG
REM
REM
REM
REM
REM
REM ./C.cell (11c1c37f851c82e70ff6c80c92926a4b)
REM
REM compiler GCC version 9.2.1 20190827 (Red Hat 9.2.1-1)
REM options -cpp -mtune=generic -march=x86-64 -g -O0 -fpre-include=/usr/include/finclude/math-vector-fortran.h
REM seed -520984227 -1929436806 1884479344 2142981430 194316046 -1052025041 1432179684 -310587933 1121579351 1948992703 -1401680707 674110094 -1971426553 -1892238604 -1931391007 -129866059 772834476 -2029048993 152524984 963735259 -1484512121 136948631 -1205372696 -1505421677 281966547 1802112026 -1032805886 2094574064 -1187497580 -886481548 1738597756 -751604116 1050942121
REM
CELL 1.54180   50.00000   50.00000   50.00000   90.00000   90.00000   90.00000
LATT -1
SFAC C  
C      1  0.4933500000000  0.4639150000000  0.5515130000000 1.0
C      1  0.5144230000000  0.4836730000000  0.5498730000000 1.0
C      1  0.4611940000000  0.4977520000000  0.5631790000000 1.0
C      1  0.4564990000000  0.4725150000000  0.4873670000000 1.0
C      1  0.4961820000000  0.4403740000000  0.5350850000000 1.0
C      1  0.4907570000000  0.4361680000000  0.4838640000000 1.0
C      1  0.4377670000000  0.4886460000000  0.4465720000000 1.0
C      1  0.4426150000000  0.5415920000000  0.4738440000000 1.0
C      1  0.5446200000000  0.5112730000000  0.4464080000000 1.0
C      1  0.5112150000000  0.4739140000000  0.4500510000000 1.0
C      1  0.4990950000000  0.5598570000000  0.5290230000000 1.0
C      1  0.4897460000000  0.4527960000000  0.5090890000000 1.0
C      1  0.5469000000000  0.5282640000000  0.5125490000000 1.0
C      1  0.4838150000000  0.5161290000000  0.5721560000000 1.0
C      1  0.5624460000000  0.4629100000000  0.4999480000000 1.0
C      1  0.4319800000000  0.5162440000000  0.4864330000000 1.0
C      1  0.5742120000000  0.4888890000000  0.5119990000000 1.0
C      1  0.4569200000000  0.4663600000000  0.5162390000000 1.0
C      1  0.5352760000000  0.5524390000000  0.5009550000000 1.0
C      1  0.5070780000000  0.5097570000000  0.5152230000000 1.0
C      1  0.5164210000000  0.4331020000000  0.4723160000000 1.0
C      1  0.4764540000000  0.5045990000000  0.5099670000000 1.0
C      1  0.5243870000000  0.5338610000000  0.4507970000000 1.0
C      1  0.4852520000000  0.5042380000000  0.4780560000000 1.0
C      1  0.5224670000000  0.4948270000000  0.4309610000000 1.0
C      1  0.4776910000000  0.5404000000000  0.5546560000000 1.0
C      1  0.4363390000000  0.4897860000000  0.4747230000000 1.0
C      1  0.4560110000000  0.5275700000000  0.5131060000000 1.0
C      1  0.5520820000000  0.4978630000000  0.4712760000000 1.0
C      1  0.5629420000000  0.4933450000000  0.5402680000000 1.0
C      1  0.5378750000000  0.4596150000000  0.5165260000000 1.0
C      1  0.4785870000000  0.5138320000000  0.4493140000000 1.0
C      1  0.4815110000000  0.4660290000000  0.4443380000000 1.0
C      1  0.5073130000000  0.5616180000000  0.5015720000000 1.0
C      1  0.5097830000000  0.5329900000000  0.5354240000000 1.0
C      1  0.4703890000000  0.4530630000000  0.4691040000000 1.0
C      1  0.5521410000000  0.5219530000000  0.5416360000000 1.0
C      1  0.4642870000000  0.4901570000000  0.4371950000000 1.0
C      1  0.5331380000000  0.5262580000000  0.5644570000000 1.0
C      1  0.5035660000000  0.5196070000000  0.4332310000000 1.0
C      1  0.5407790000000  0.4729420000000  0.5427840000000 1.0
C      1  0.5182420000000  0.5249450000000  0.4796270000000 1.0
C      1  0.5307890000000  0.4527380000000  0.4582140000000 1.0
C      1  0.4391770000000  0.5140160000000  0.5559370000000 1.0
C      1  0.5125200000000  0.5055060000000  0.5693630000000 1.0
C      1  0.5101340000000  0.4871420000000  0.4776290000000 1.0
C      1  0.4711750000000  0.4806770000000  0.5404320000000 1.0
C      1  0.4859710000000  0.5537460000000  0.4822010000000 1.0
C      1  0.5543860000000  0.4682280000000  0.4710950000000 1.0
C      1  0.4642390000000  0.5392590000000  0.4537250000000 1.0
C      1  0.4604470000000  0.5523120000000  0.4955340000000 1.0
C      1  0.4514310000000  0.5349420000000  0.5416440000000 1.0
C      1  0.5638440000000  0.5113360000000  0.4949050000000 1.0
C      1  0.5121420000000  0.4740300000000  0.5066190000000 1.0
END
