TITL C-950532-2784-32 -2.27250209511619e-06 125000 -380.50862949567 0 0 62 (C1) n - 1
REM
REM in /home/bkarasulu/work/CARBON/AIRSS/Generating-Clusters/EDIP-Nigel-Params/with-SteepDescent/Only-C1/SD-CG/HFTN-CG
REM
REM
REM
REM
REM
REM ./C.cell (11c1c37f851c82e70ff6c80c92926a4b)
REM
REM compiler GCC version 9.2.1 20190827 (Red Hat 9.2.1-1)
REM options -cpp -mtune=generic -march=x86-64 -g -O0 -fpre-include=/usr/include/finclude/math-vector-fortran.h
REM seed -1976336532 1203662387 366521219 -1814658905 1314379312 460484337 673879586 -251847755 1712665251 -1643328549 -160017221 2122237422 -1469587274 477482649 193639090 -1076453039 -571737343 -624355293 -1577182448 594038952 -426516593 1956065959 1678835648 2125732549 -1111694327 -47313632 133453794 -1543339153 1113561918 -809850698 -1184163049 1887674891 -2006917473
REM
CELL 1.54180   50.00000   50.00000   50.00000   90.00000   90.00000   90.00000
LATT -1
SFAC C  
C      1  0.5002210000000  0.4213170000000  0.5363530000000 1.0
C      1  0.5312200000000  0.4510920000000  0.4526740000000 1.0
C      1  0.5221720000000  0.5100870000000  0.5667080000000 1.0
C      1  0.5191510000000  0.4261330000000  0.5165650000000 1.0
C      1  0.5681550000000  0.5458400000000  0.5222000000000 1.0
C      1  0.5464880000000  0.5392680000000  0.5386820000000 1.0
C      1  0.5401630000000  0.4991050000000  0.4450430000000 1.0
C      1  0.4839390000000  0.4297500000000  0.5559180000000 1.0
C      1  0.4884940000000  0.4363880000000  0.4729030000000 1.0
C      1  0.4659190000000  0.4686830000000  0.5057190000000 1.0
C      1  0.4728910000000  0.5328580000000  0.4422840000000 1.0
C      1  0.5666680000000  0.4724590000000  0.4804420000000 1.0
C      1  0.4190840000000  0.5202370000000  0.4799570000000 1.0
C      1  0.5536470000000  0.5210970000000  0.4554980000000 1.0
C      1  0.5273830000000  0.5549860000000  0.4953460000000 1.0
C      1  0.4774270000000  0.5524830000000  0.5331820000000 1.0
C      1  0.4876110000000  0.4573090000000  0.5589300000000 1.0
C      1  0.4628630000000  0.4851260000000  0.4570610000000 1.0
C      1  0.4633030000000  0.5267980000000  0.5354950000000 1.0
C      1  0.4961680000000  0.5770630000000  0.4947760000000 1.0
C      1  0.5001120000000  0.4975650000000  0.4779750000000 1.0
C      1  0.5363450000000  0.4654190000000  0.5393090000000 1.0
C      1  0.5608710000000  0.4457000000000  0.4923330000000 1.0
C      1  0.5129420000000  0.4427100000000  0.4920940000000 1.0
C      1  0.5013720000000  0.4546010000000  0.4508880000000 1.0
C      1  0.4523100000000  0.5105570000000  0.4426510000000 1.0
C      1  0.4278720000000  0.4972410000000  0.5231580000000 1.0
C      1  0.5077610000000  0.4714540000000  0.5429700000000 1.0
C      1  0.5118780000000  0.5028360000000  0.4354500000000 1.0
C      1  0.4361850000000  0.5255660000000  0.5249440000000 1.0
C      1  0.5621190000000  0.5215060000000  0.4823160000000 1.0
C      1  0.5031070000000  0.5580950000000  0.5423240000000 1.0
C      1  0.5506920000000  0.4905850000000  0.5306970000000 1.0
C      1  0.4736420000000  0.5642350000000  0.5073900000000 1.0
C      1  0.5027170000000  0.5306800000000  0.4399580000000 1.0
C      1  0.5433170000000  0.4411150000000  0.5245680000000 1.0
C      1  0.5159100000000  0.5488240000000  0.4592720000000 1.0
C      1  0.4954290000000  0.5676370000000  0.4673300000000 1.0
C      1  0.5570210000000  0.5465060000000  0.4963010000000 1.0
C      1  0.5210060000000  0.4807050000000  0.4886240000000 1.0
C      1  0.4934200000000  0.4845090000000  0.4525130000000 1.0
C      1  0.4272840000000  0.4952390000000  0.4935010000000 1.0
C      1  0.5158340000000  0.5307100000000  0.5823500000000 1.0
C      1  0.5701870000000  0.4964370000000  0.4977740000000 1.0
C      1  0.4792090000000  0.5141210000000  0.4960710000000 1.0
C      1  0.4688220000000  0.5540540000000  0.4624830000000 1.0
C      1  0.5080800000000  0.5148800000000  0.5191870000000 1.0
C      1  0.4573310000000  0.4910990000000  0.4879050000000 1.0
C      1  0.5477820000000  0.5128220000000  0.5519100000000 1.0
C      1  0.5326560000000  0.5007670000000  0.5076290000000 1.0
C      1  0.4573590000000  0.4556830000000  0.4590310000000 1.0
C      1  0.4338500000000  0.5388700000000  0.4979490000000 1.0
C      1  0.4509750000000  0.4782610000000  0.5314610000000 1.0
C      1  0.5200510000000  0.5426870000000  0.5243620000000 1.0
C      1  0.4632370000000  0.4740950000000  0.5598600000000 1.0
C      1  0.4626630000000  0.4467020000000  0.4863220000000 1.0
C      1  0.5408020000000  0.4768230000000  0.4651920000000 1.0
C      1  0.4631170000000  0.5428210000000  0.4899780000000 1.0
C      1  0.4729440000000  0.5033680000000  0.5521460000000 1.0
C      1  0.4282590000000  0.5200990000000  0.4533830000000 1.0
C      1  0.5378830000000  0.4339830000000  0.4768290000000 1.0
C      1  0.5026830000000  0.5003510000000  0.5458710000000 1.0
END
