TITL C-950533-5798-601 -2.1035895895723e-06 125000 -577.126522341241 0 0 94 (C1) n - 1
REM
REM in /home/bkarasulu/work/CARBON/AIRSS/Generating-Clusters/EDIP-Nigel-Params/with-SteepDescent/Only-C1/SD-CG/HFTN-CG
REM
REM
REM
REM
REM
REM ./C.cell (11c1c37f851c82e70ff6c80c92926a4b)
REM
REM compiler GCC version 9.2.1 20190827 (Red Hat 9.2.1-1)
REM options -cpp -mtune=generic -march=x86-64 -g -O0 -fpre-include=/usr/include/finclude/math-vector-fortran.h
REM seed -357725488 -1003988008 -318812068 -2035508655 -1751039639 374381350 -1876332658 1018346262 -1173454706 1087320965 608182519 229034265 824925564 428756999 -1103157453 1419368728 -1697059012 -1916303162 -1733518738 671279384 -1574941532 -1479178733 1455384245 -1924184360 -2127143015 -145267566 -142906850 1916696855 -1200168192 -857579969 -1876361156 1751458346 -1614377881
REM
CELL 1.54180   50.00000   50.00000   50.00000   90.00000   90.00000   90.00000
LATT -1
SFAC C  
C      1  0.4891730000000  0.4439860000000  0.5721130000000 1.0
C      1  0.4717490000000  0.5380070000000  0.4248120000000 1.0
C      1  0.4909960000000  0.4952470000000  0.5475720000000 1.0
C      1  0.5645920000000  0.5122610000000  0.5455310000000 1.0
C      1  0.5664760000000  0.4910610000000  0.4470020000000 1.0
C      1  0.4862880000000  0.4899410000000  0.4316450000000 1.0
C      1  0.5670080000000  0.4879740000000  0.4965730000000 1.0
C      1  0.4252050000000  0.4867780000000  0.4799000000000 1.0
C      1  0.5227680000000  0.5673440000000  0.4538620000000 1.0
C      1  0.5188440000000  0.4550910000000  0.4219990000000 1.0
C      1  0.4493740000000  0.4641050000000  0.5545540000000 1.0
C      1  0.5404120000000  0.5237480000000  0.4824830000000 1.0
C      1  0.5741180000000  0.5087970000000  0.5183050000000 1.0
C      1  0.5621680000000  0.4458270000000  0.4696470000000 1.0
C      1  0.5055790000000  0.5187120000000  0.5130500000000 1.0
C      1  0.5123770000000  0.5428560000000  0.4403650000000 1.0
C      1  0.4375990000000  0.5221440000000  0.5580560000000 1.0
C      1  0.5610640000000  0.4929640000000  0.5670480000000 1.0
C      1  0.4974450000000  0.5178790000000  0.4160390000000 1.0
C      1  0.4275610000000  0.5160680000000  0.4834220000000 1.0
C      1  0.4856550000000  0.5794080000000  0.5179110000000 1.0
C      1  0.5509690000000  0.4462240000000  0.5227100000000 1.0
C      1  0.4280910000000  0.5544380000000  0.5223500000000 1.0
C      1  0.4664740000000  0.4807880000000  0.5360700000000 1.0
C      1  0.5429890000000  0.5021910000000  0.5866910000000 1.0
C      1  0.4929670000000  0.4750460000000  0.4970180000000 1.0
C      1  0.4497990000000  0.5307040000000  0.4694030000000 1.0
C      1  0.5224850000000  0.5200900000000  0.5782830000000 1.0
C      1  0.4502800000000  0.4334890000000  0.5121760000000 1.0
C      1  0.5122780000000  0.5369810000000  0.4906750000000 1.0
C      1  0.4513060000000  0.4788070000000  0.4665330000000 1.0
C      1  0.5067540000000  0.4149370000000  0.5040110000000 1.0
C      1  0.5004030000000  0.5250250000000  0.4635520000000 1.0
C      1  0.5309660000000  0.5693160000000  0.5140970000000 1.0
C      1  0.4791310000000  0.5224270000000  0.5272940000000 1.0
C      1  0.4516170000000  0.5227810000000  0.4401770000000 1.0
C      1  0.5022630000000  0.5758960000000  0.4732470000000 1.0
C      1  0.4788410000000  0.4434320000000  0.4450760000000 1.0
C      1  0.5408390000000  0.4251510000000  0.4679570000000 1.0
C      1  0.4861320000000  0.4707270000000  0.5844390000000 1.0
C      1  0.4500020000000  0.4950020000000  0.5155410000000 1.0
C      1  0.5378970000000  0.4940970000000  0.4894520000000 1.0
C      1  0.5689910000000  0.4575010000000  0.4996210000000 1.0
C      1  0.4952410000000  0.4263510000000  0.5284590000000 1.0
C      1  0.5096270000000  0.5848800000000  0.5008830000000 1.0
C      1  0.4742990000000  0.5635680000000  0.4370450000000 1.0
C      1  0.5488760000000  0.5142670000000  0.4406180000000 1.0
C      1  0.4373760000000  0.5698390000000  0.4996860000000 1.0
C      1  0.5239690000000  0.4355980000000  0.4900820000000 1.0
C      1  0.5637830000000  0.5381790000000  0.4529260000000 1.0
C      1  0.5500020000000  0.4664610000000  0.4509850000000 1.0
C      1  0.5061610000000  0.4577250000000  0.4765680000000 1.0
C      1  0.5146360000000  0.4304670000000  0.4478370000000 1.0
C      1  0.4800830000000  0.5526780000000  0.5040030000000 1.0
C      1  0.5103180000000  0.4363740000000  0.5517500000000 1.0
C      1  0.5532550000000  0.5598560000000  0.4961400000000 1.0
C      1  0.4224250000000  0.5076070000000  0.5385310000000 1.0
C      1  0.4686440000000  0.4910470000000  0.4891260000000 1.0
C      1  0.5293270000000  0.5083490000000  0.4183380000000 1.0
C      1  0.5261100000000  0.4786380000000  0.4658990000000 1.0
C      1  0.4745340000000  0.5177970000000  0.4781240000000 1.0
C      1  0.4626910000000  0.4372120000000  0.5596540000000 1.0
C      1  0.4900560000000  0.4188450000000  0.4787200000000 1.0
C      1  0.4669840000000  0.4223130000000  0.5340350000000 1.0
C      1  0.5056420000000  0.4971850000000  0.4539550000000 1.0
C      1  0.5500320000000  0.5630220000000  0.4653910000000 1.0
C      1  0.5336060000000  0.5408750000000  0.5591460000000 1.0
C      1  0.4038800000000  0.5243910000000  0.5251200000000 1.0
C      1  0.5739490000000  0.4539130000000  0.5380180000000 1.0
C      1  0.4741590000000  0.5504820000000  0.5534430000000 1.0
C      1  0.5177840000000  0.4832980000000  0.5371420000000 1.0
C      1  0.5203530000000  0.5587910000000  0.5398720000000 1.0
C      1  0.5313440000000  0.4573360000000  0.5446380000000 1.0
C      1  0.5821040000000  0.4971180000000  0.4716430000000 1.0
C      1  0.5734790000000  0.5343190000000  0.5008450000000 1.0
C      1  0.4573510000000  0.4496590000000  0.4634690000000 1.0
C      1  0.5639600000000  0.4647940000000  0.5626290000000 1.0
C      1  0.4588410000000  0.4805940000000  0.5796120000000 1.0
C      1  0.5302140000000  0.4800240000000  0.4138780000000 1.0
C      1  0.4655910000000  0.4347330000000  0.4865410000000 1.0
C      1  0.4576700000000  0.4937610000000  0.4403480000000 1.0
C      1  0.5146900000000  0.4914290000000  0.5093490000000 1.0
C      1  0.4935340000000  0.5691910000000  0.5441830000000 1.0
C      1  0.4467420000000  0.5463680000000  0.5452720000000 1.0
C      1  0.4555520000000  0.5092550000000  0.5768490000000 1.0
C      1  0.4743680000000  0.5749120000000  0.4629950000000 1.0
C      1  0.4909380000000  0.4608180000000  0.4257850000000 1.0
C      1  0.5833890000000  0.5267980000000  0.4732930000000 1.0
C      1  0.4581900000000  0.5587710000000  0.4828910000000 1.0
C      1  0.4942620000000  0.5072870000000  0.5759580000000 1.0
C      1  0.4085150000000  0.5307760000000  0.4984120000000 1.0
C      1  0.4192320000000  0.4729910000000  0.5047980000000 1.0
C      1  0.4330970000000  0.4551220000000  0.5227430000000 1.0
C      1  0.5612060000000  0.5386890000000  0.5541150000000 1.0
END
