TITL C-951336-9012-692 -2.11419156447541e-06 125000 -558.961371124966 0 0 91 (C1) n - 1
REM
REM in /home/bkarasulu/work/CARBON/AIRSS/Generating-Clusters/EDIP-Nigel-Params/with-SteepDescent/Only-C1/SD-CG/HFTN-CG
REM
REM
REM
REM
REM
REM ./C.cell (11c1c37f851c82e70ff6c80c92926a4b)
REM
REM compiler GCC version 9.2.1 20190827 (Red Hat 9.2.1-1)
REM options -cpp -mtune=generic -march=x86-64 -g -O0 -fpre-include=/usr/include/finclude/math-vector-fortran.h
REM seed 404279071 1726794691 -448263817 1858810055 1226498259 733179469 -1759968548 -243295890 -1130883367 -200962431 1169445689 1810037763 -978420160 -2060981727 1072026831 1583367175 -1292838168 -471755125 1838706660 -1168555198 1886373204 -1650888370 -1218267996 179917624 122938439 -254452262 1081274382 -300585869 -105523263 1977171354 -2017093979 -97070333 -1986026654
REM
CELL 1.54180   50.00000   50.00000   50.00000   90.00000   90.00000   90.00000
LATT -1
SFAC C  
C      1  0.5729060000000  0.5223410000000  0.4518090000000 1.0
C      1  0.4349950000000  0.5576720000000  0.5233180000000 1.0
C      1  0.5178230000000  0.4375770000000  0.4785170000000 1.0
C      1  0.5138180000000  0.4166050000000  0.5388520000000 1.0
C      1  0.4402190000000  0.4408110000000  0.4927570000000 1.0
C      1  0.5217540000000  0.4562400000000  0.5030580000000 1.0
C      1  0.5099010000000  0.5615740000000  0.4731060000000 1.0
C      1  0.4644230000000  0.4572960000000  0.5562890000000 1.0
C      1  0.4921700000000  0.5128640000000  0.5336730000000 1.0
C      1  0.5555070000000  0.4373420000000  0.5062800000000 1.0
C      1  0.4742050000000  0.4131190000000  0.4759340000000 1.0
C      1  0.4426930000000  0.4758950000000  0.5624490000000 1.0
C      1  0.5140500000000  0.5630910000000  0.5208370000000 1.0
C      1  0.4489290000000  0.5421540000000  0.4503120000000 1.0
C      1  0.4732110000000  0.5768380000000  0.5029080000000 1.0
C      1  0.4946150000000  0.4246360000000  0.5183600000000 1.0
C      1  0.4553690000000  0.5021460000000  0.5770800000000 1.0
C      1  0.4377390000000  0.4433160000000  0.4620080000000 1.0
C      1  0.5181350000000  0.4990380000000  0.5006110000000 1.0
C      1  0.5178000000000  0.4835840000000  0.4743550000000 1.0
C      1  0.4462550000000  0.5660180000000  0.4972700000000 1.0
C      1  0.4897690000000  0.4593180000000  0.5202360000000 1.0
C      1  0.5360260000000  0.5207830000000  0.5036160000000 1.0
C      1  0.5768560000000  0.5462150000000  0.5027330000000 1.0
C      1  0.4777300000000  0.4473150000000  0.4299040000000 1.0
C      1  0.4708460000000  0.5099220000000  0.4704430000000 1.0
C      1  0.5751210000000  0.5506420000000  0.4544140000000 1.0
C      1  0.5351300000000  0.5407020000000  0.5272070000000 1.0
C      1  0.4642070000000  0.4331610000000  0.4539670000000 1.0
C      1  0.4768540000000  0.4780570000000  0.4273920000000 1.0
C      1  0.4943480000000  0.5734710000000  0.5420130000000 1.0
C      1  0.4184570000000  0.4990590000000  0.4929610000000 1.0
C      1  0.4496610000000  0.4885140000000  0.4315160000000 1.0
C      1  0.5096400000000  0.5404910000000  0.4341490000000 1.0
C      1  0.5821190000000  0.4891920000000  0.5428300000000 1.0
C      1  0.5448360000000  0.4395040000000  0.4606900000000 1.0
C      1  0.4933220000000  0.5550840000000  0.4996750000000 1.0
C      1  0.5527240000000  0.4476360000000  0.5324830000000 1.0
C      1  0.4421520000000  0.5419130000000  0.4795010000000 1.0
C      1  0.5274920000000  0.5292860000000  0.5546920000000 1.0
C      1  0.5596880000000  0.5548140000000  0.4790320000000 1.0
C      1  0.4572470000000  0.4328810000000  0.5444260000000 1.0
C      1  0.4642300000000  0.5089910000000  0.4993950000000 1.0
C      1  0.5619860000000  0.5556050000000  0.5266890000000 1.0
C      1  0.5361850000000  0.5757760000000  0.4811670000000 1.0
C      1  0.4567460000000  0.5412170000000  0.5380540000000 1.0
C      1  0.5184810000000  0.5352210000000  0.4621170000000 1.0
C      1  0.5101070000000  0.4931820000000  0.4147760000000 1.0
C      1  0.4535790000000  0.4146820000000  0.4984410000000 1.0
C      1  0.5172560000000  0.4629720000000  0.5606800000000 1.0
C      1  0.5077240000000  0.4888340000000  0.5262070000000 1.0
C      1  0.4944990000000  0.5182470000000  0.4211260000000 1.0
C      1  0.4592070000000  0.4639990000000  0.5032130000000 1.0
C      1  0.4338530000000  0.4944300000000  0.5393080000000 1.0
C      1  0.4894060000000  0.4717490000000  0.5626570000000 1.0
C      1  0.5504110000000  0.4986060000000  0.5770740000000 1.0
C      1  0.5941920000000  0.5027610000000  0.5217210000000 1.0
C      1  0.4681350000000  0.4718800000000  0.4753810000000 1.0
C      1  0.4177670000000  0.5289120000000  0.4913340000000 1.0
C      1  0.4940300000000  0.5659470000000  0.4421220000000 1.0
C      1  0.4184630000000  0.4869730000000  0.4682640000000 1.0
C      1  0.5568290000000  0.5833150000000  0.5239590000000 1.0
C      1  0.4757080000000  0.5897140000000  0.5281070000000 1.0
C      1  0.5465460000000  0.5266620000000  0.5758220000000 1.0
C      1  0.5645120000000  0.4497440000000  0.4819280000000 1.0
C      1  0.4579100000000  0.5175130000000  0.4342440000000 1.0
C      1  0.5202840000000  0.4711410000000  0.4319210000000 1.0
C      1  0.4801890000000  0.5515730000000  0.5564980000000 1.0
C      1  0.5062950000000  0.4458500000000  0.4306310000000 1.0
C      1  0.5464170000000  0.4673860000000  0.4457340000000 1.0
C      1  0.5608180000000  0.4789380000000  0.4714020000000 1.0
C      1  0.4423000000000  0.5193420000000  0.5538960000000 1.0
C      1  0.4424720000000  0.4910510000000  0.5099670000000 1.0
C      1  0.4948770000000  0.4992150000000  0.4546810000000 1.0
C      1  0.5826280000000  0.5165720000000  0.5001220000000 1.0
C      1  0.4852320000000  0.4992190000000  0.5750840000000 1.0
C      1  0.5267660000000  0.4411120000000  0.5440410000000 1.0
C      1  0.4979340000000  0.4579510000000  0.4673120000000 1.0
C      1  0.4663970000000  0.5626800000000  0.4433190000000 1.0
C      1  0.5769830000000  0.5040660000000  0.5669940000000 1.0
C      1  0.5353950000000  0.4858640000000  0.5538270000000 1.0
C      1  0.5010610000000  0.4154120000000  0.4896160000000 1.0
C      1  0.5436200000000  0.5290840000000  0.4758130000000 1.0
C      1  0.5784340000000  0.5032580000000  0.4730920000000 1.0
C      1  0.4125690000000  0.5416360000000  0.5163640000000 1.0
C      1  0.4673530000000  0.4154960000000  0.5251490000000 1.0
C      1  0.5569470000000  0.4762000000000  0.5357510000000 1.0
C      1  0.4974360000000  0.5252410000000  0.5595230000000 1.0
C      1  0.4760780000000  0.5292230000000  0.5160840000000 1.0
C      1  0.5326210000000  0.5839400000000  0.5093760000000 1.0
C      1  0.4403900000000  0.4734960000000  0.4563530000000 1.0
END
