TITL C-951339-9237-171 -6.24529487546648e-06 125000 -693.893148027778 0 0 112 (C1) n - 1
REM
REM in /home/bkarasulu/work/CARBON/AIRSS/Generating-Clusters/EDIP-Nigel-Params/with-SteepDescent/Only-C1/SD-CG/HFTN-CG
REM
REM
REM
REM
REM
REM ./C.cell (11c1c37f851c82e70ff6c80c92926a4b)
REM
REM compiler GCC version 9.2.1 20190827 (Red Hat 9.2.1-1)
REM options -cpp -mtune=generic -march=x86-64 -g -O0 -fpre-include=/usr/include/finclude/math-vector-fortran.h
REM seed 1826554485 -1601780763 -1071459904 -1490313061 -1970561992 892982188 741669164 -770513723 1368359117 642718511 807632777 -1437016833 535965225 -1550392555 -618045417 -317709619 300461787 1589622647 -1849637542 -1328651304 1764773835 993789844 -710218982 -778379591 1013206355 1708683910 -361238227 157913631 184675820 -1772160195 -618732286 -1424841176 227385020
REM
CELL 1.54180   50.00000   50.00000   50.00000   90.00000   90.00000   90.00000
LATT -1
SFAC C  
C      1  0.5028420000000  0.4896890000000  0.4969720000000 1.0
C      1  0.4833590000000  0.4890720000000  0.5985590000000 1.0
C      1  0.4738510000000  0.5844790000000  0.4669430000000 1.0
C      1  0.4932420000000  0.4772190000000  0.5210530000000 1.0
C      1  0.5113350000000  0.4212080000000  0.5554540000000 1.0
C      1  0.4385080000000  0.5009760000000  0.4421000000000 1.0
C      1  0.4670090000000  0.5290390000000  0.4934230000000 1.0
C      1  0.4657630000000  0.5359810000000  0.5713400000000 1.0
C      1  0.5275430000000  0.5640890000000  0.5490270000000 1.0
C      1  0.4621360000000  0.5881740000000  0.5134000000000 1.0
C      1  0.4518830000000  0.4472870000000  0.4528160000000 1.0
C      1  0.4709840000000  0.4734410000000  0.5790000000000 1.0
C      1  0.4469160000000  0.4468730000000  0.5259860000000 1.0
C      1  0.4583700000000  0.4329910000000  0.4777570000000 1.0
C      1  0.4721340000000  0.4395750000000  0.4324910000000 1.0
C      1  0.5344270000000  0.5352990000000  0.4811610000000 1.0
C      1  0.4227030000000  0.5265000000000  0.5532300000000 1.0
C      1  0.4840910000000  0.5898450000000  0.4942540000000 1.0
C      1  0.4380060000000  0.4776800000000  0.4870040000000 1.0
C      1  0.5806170000000  0.4488830000000  0.5160550000000 1.0
C      1  0.4941000000000  0.5275780000000  0.5709920000000 1.0
C      1  0.4891520000000  0.5688230000000  0.4475640000000 1.0
C      1  0.5062130000000  0.5793360000000  0.5355660000000 1.0
C      1  0.3941590000000  0.4982540000000  0.4742060000000 1.0
C      1  0.4650230000000  0.5013210000000  0.4281880000000 1.0
C      1  0.4607640000000  0.5001910000000  0.5021900000000 1.0
C      1  0.4805140000000  0.4581860000000  0.4127230000000 1.0
C      1  0.4109510000000  0.5301490000000  0.5065930000000 1.0
C      1  0.5048870000000  0.4712450000000  0.4182740000000 1.0
C      1  0.5037410000000  0.5066120000000  0.5905030000000 1.0
C      1  0.5871540000000  0.4930340000000  0.4959220000000 1.0
C      1  0.5040130000000  0.5242950000000  0.4110870000000 1.0
C      1  0.5732270000000  0.4462350000000  0.4871800000000 1.0
C      1  0.4084000000000  0.5221700000000  0.4776160000000 1.0
C      1  0.4320650000000  0.5246800000000  0.4594380000000 1.0
C      1  0.5623630000000  0.4318040000000  0.5330060000000 1.0
C      1  0.4999410000000  0.4543260000000  0.4703120000000 1.0
C      1  0.4912880000000  0.4138280000000  0.4844020000000 1.0
C      1  0.5790540000000  0.5199870000000  0.5501880000000 1.0
C      1  0.5325300000000  0.3958390000000  0.5080810000000 1.0
C      1  0.4936180000000  0.4329450000000  0.4511510000000 1.0
C      1  0.4460860000000  0.5732940000000  0.4700810000000 1.0
C      1  0.5257720000000  0.4912050000000  0.5753220000000 1.0
C      1  0.5685900000000  0.4844560000000  0.4515070000000 1.0
C      1  0.3968770000000  0.4692790000000  0.5125640000000 1.0
C      1  0.5394380000000  0.4991690000000  0.4169720000000 1.0
C      1  0.4424390000000  0.5706550000000  0.4994720000000 1.0
C      1  0.5139590000000  0.4957360000000  0.4033150000000 1.0
C      1  0.5821480000000  0.4892910000000  0.5498540000000 1.0
C      1  0.5002780000000  0.5171960000000  0.5436780000000 1.0
C      1  0.5810730000000  0.5472150000000  0.4887840000000 1.0
C      1  0.4685730000000  0.4276190000000  0.5326900000000 1.0
C      1  0.5493580000000  0.5323020000000  0.5541700000000 1.0
C      1  0.4814840000000  0.4255560000000  0.5597990000000 1.0
C      1  0.5324490000000  0.5405110000000  0.5117160000000 1.0
C      1  0.5411250000000  0.4766670000000  0.5251580000000 1.0
C      1  0.5341440000000  0.5811170000000  0.4935940000000 1.0
C      1  0.5280130000000  0.4400280000000  0.5718590000000 1.0
C      1  0.5042620000000  0.5370980000000  0.5228060000000 1.0
C      1  0.5450340000000  0.4356120000000  0.4844340000000 1.0
C      1  0.5139350000000  0.5086150000000  0.4448850000000 1.0
C      1  0.5294920000000  0.4595450000000  0.4725570000000 1.0
C      1  0.5288840000000  0.5082730000000  0.5499220000000 1.0
C      1  0.5451210000000  0.4789910000000  0.4358740000000 1.0
C      1  0.5190980000000  0.3996010000000  0.4829170000000 1.0
C      1  0.4788750000000  0.5302110000000  0.4654800000000 1.0
C      1  0.4898080000000  0.4264210000000  0.5122350000000 1.0
C      1  0.5388550000000  0.4239640000000  0.5143400000000 1.0
C      1  0.5746370000000  0.5139160000000  0.4542120000000 1.0
C      1  0.4566110000000  0.4875290000000  0.5568770000000 1.0
C      1  0.4120440000000  0.5118470000000  0.5305270000000 1.0
C      1  0.5761780000000  0.4734930000000  0.4772890000000 1.0
C      1  0.5111560000000  0.5339770000000  0.4628000000000 1.0
C      1  0.5125450000000  0.4654840000000  0.5656850000000 1.0
C      1  0.5149220000000  0.4637070000000  0.5348500000000 1.0
C      1  0.5900360000000  0.5193540000000  0.4801420000000 1.0
C      1  0.4681670000000  0.5506300000000  0.4343380000000 1.0
C      1  0.4449840000000  0.4503990000000  0.4968980000000 1.0
C      1  0.5185780000000  0.5716510000000  0.4424050000000 1.0
C      1  0.5789880000000  0.5274970000000  0.5220310000000 1.0
C      1  0.5557540000000  0.4455890000000  0.5594840000000 1.0
C      1  0.4357160000000  0.4688760000000  0.5438750000000 1.0
C      1  0.5389830000000  0.4126080000000  0.4669230000000 1.0
C      1  0.5538480000000  0.5663920000000  0.5384210000000 1.0
C      1  0.4299610000000  0.5537120000000  0.5433770000000 1.0
C      1  0.4750530000000  0.5789760000000  0.5398240000000 1.0
C      1  0.4825620000000  0.4806410000000  0.4767220000000 1.0
C      1  0.5354370000000  0.5835170000000  0.4642110000000 1.0
C      1  0.4751220000000  0.4460510000000  0.5778230000000 1.0
C      1  0.4764120000000  0.4969800000000  0.5339560000000 1.0
C      1  0.5571900000000  0.5707930000000  0.5093350000000 1.0
C      1  0.5555490000000  0.4755530000000  0.5539290000000 1.0
C      1  0.5140350000000  0.4336410000000  0.5280100000000 1.0
C      1  0.5588190000000  0.5389810000000  0.4417180000000 1.0
C      1  0.4218840000000  0.5564130000000  0.5148350000000 1.0
C      1  0.5565990000000  0.5522130000000  0.4690240000000 1.0
C      1  0.5530260000000  0.5140340000000  0.5150930000000 1.0
C      1  0.5895550000000  0.4778120000000  0.5222550000000 1.0
C      1  0.5256830000000  0.4583110000000  0.4345450000000 1.0
C      1  0.4743030000000  0.5272170000000  0.4157150000000 1.0
C      1  0.4115410000000  0.4824260000000  0.5327810000000 1.0
C      1  0.5310250000000  0.4829360000000  0.4922690000000 1.0
C      1  0.4428930000000  0.5506240000000  0.4506950000000 1.0
C      1  0.4789130000000  0.5502150000000  0.5133830000000 1.0
C      1  0.4454220000000  0.5139060000000  0.5682330000000 1.0
C      1  0.5088390000000  0.5817960000000  0.5066770000000 1.0
C      1  0.5480790000000  0.5076020000000  0.4825170000000 1.0
C      1  0.4836740000000  0.5007130000000  0.4529450000000 1.0
C      1  0.4079960000000  0.4791370000000  0.4888430000000 1.0
C      1  0.5301240000000  0.5453520000000  0.4303080000000 1.0
C      1  0.4594630000000  0.5529360000000  0.5471270000000 1.0
C      1  0.4436460000000  0.4758010000000  0.4579020000000 1.0
END
