TITL C-951346-9544-788 2.71335579234024e-06 125000 -997.766816026887 0 0 158 (C1) n - 1
REM
REM in /home/bkarasulu/work/CARBON/AIRSS/Generating-Clusters/EDIP-Nigel-Params/with-SteepDescent/Only-C1/SD-CG/HFTN-CG
REM
REM
REM
REM
REM
REM ./C.cell (11c1c37f851c82e70ff6c80c92926a4b)
REM
REM compiler GCC version 9.2.1 20190827 (Red Hat 9.2.1-1)
REM options -cpp -mtune=generic -march=x86-64 -g -O0 -fpre-include=/usr/include/finclude/math-vector-fortran.h
REM seed -855558148 1917481165 -1055525653 -75640729 788276124 -1592794033 -105779867 -1053597230 1231143718 2047423916 752380147 1065958039 -131136096 -1053711482 1106549285 269314168 -526335899 618825037 -1439852476 -1790178787 946941300 1295688655 -1335899163 -410667660 -1062364440 1270695771 1264463267 1468063962 1568764914 -1946081874 384939603 -1099745924 343397012
REM
CELL 1.54180   50.00000   50.00000   50.00000   90.00000   90.00000   90.00000
LATT -1
SFAC C  
C      1  0.5126360000000  0.5098400000000  0.4609590000000 1.0
C      1  0.5002120000000  0.4884460000000  0.5594550000000 1.0
C      1  0.4648540000000  0.4977100000000  0.4765620000000 1.0
C      1  0.5949050000000  0.4535180000000  0.4535520000000 1.0
C      1  0.4152310000000  0.4856030000000  0.5649010000000 1.0
C      1  0.5585000000000  0.4930860000000  0.4659630000000 1.0
C      1  0.5563110000000  0.5965780000000  0.5149370000000 1.0
C      1  0.4885270000000  0.4195370000000  0.4409160000000 1.0
C      1  0.5154530000000  0.4464780000000  0.5931240000000 1.0
C      1  0.5231970000000  0.4196680000000  0.5548180000000 1.0
C      1  0.5688710000000  0.5756640000000  0.4695550000000 1.0
C      1  0.4352000000000  0.5526970000000  0.5857000000000 1.0
C      1  0.4810690000000  0.4660820000000  0.3983270000000 1.0
C      1  0.5723510000000  0.4340740000000  0.5320480000000 1.0
C      1  0.5432070000000  0.5093030000000  0.3854440000000 1.0
C      1  0.4895300000000  0.5155040000000  0.4062450000000 1.0
C      1  0.5934030000000  0.4963950000000  0.4928060000000 1.0
C      1  0.5090370000000  0.4091320000000  0.4617680000000 1.0
C      1  0.5056610000000  0.4651050000000  0.4473160000000 1.0
C      1  0.5440470000000  0.5067960000000  0.5999640000000 1.0
C      1  0.4679840000000  0.5442710000000  0.4846310000000 1.0
C      1  0.4967300000000  0.5215290000000  0.5997750000000 1.0
C      1  0.4439740000000  0.4082140000000  0.5162240000000 1.0
C      1  0.5142190000000  0.5692810000000  0.4888940000000 1.0
C      1  0.4181830000000  0.4443620000000  0.4949350000000 1.0
C      1  0.4978410000000  0.3947810000000  0.4878560000000 1.0
C      1  0.4226140000000  0.4758950000000  0.5901990000000 1.0
C      1  0.5488220000000  0.5242670000000  0.5743790000000 1.0
C      1  0.5691910000000  0.4630950000000  0.5254490000000 1.0
C      1  0.4589390000000  0.4585710000000  0.4134480000000 1.0
C      1  0.3844800000000  0.4672270000000  0.5196050000000 1.0
C      1  0.5968320000000  0.5031400000000  0.4639780000000 1.0
C      1  0.4989380000000  0.5514610000000  0.4311030000000 1.0
C      1  0.5269430000000  0.6100890000000  0.4786690000000 1.0
C      1  0.4137790000000  0.5276080000000  0.5363730000000 1.0
C      1  0.4482350000000  0.5100470000000  0.6026950000000 1.0
C      1  0.4086430000000  0.5579500000000  0.5359230000000 1.0
C      1  0.4866320000000  0.4461040000000  0.5934290000000 1.0
C      1  0.5842630000000  0.4697740000000  0.4996700000000 1.0
C      1  0.5921100000000  0.4482010000000  0.4820250000000 1.0
C      1  0.5261450000000  0.4809390000000  0.5010950000000 1.0
C      1  0.4495900000000  0.5205500000000  0.4886530000000 1.0
C      1  0.4195220000000  0.5276430000000  0.4754250000000 1.0
C      1  0.4973330000000  0.4743760000000  0.4954520000000 1.0
C      1  0.4579250000000  0.4645670000000  0.5575590000000 1.0
C      1  0.5270090000000  0.4824830000000  0.5517230000000 1.0
C      1  0.4103370000000  0.4578510000000  0.4704080000000 1.0
C      1  0.5626120000000  0.4439190000000  0.5667860000000 1.0
C      1  0.4431830000000  0.5108880000000  0.5172960000000 1.0
C      1  0.4693610000000  0.4704420000000  0.5856800000000 1.0
C      1  0.5773810000000  0.5568270000000  0.5496450000000 1.0
C      1  0.5478560000000  0.5893730000000  0.4881500000000 1.0
C      1  0.5360350000000  0.5359420000000  0.3990410000000 1.0
C      1  0.5351450000000  0.4658220000000  0.5275920000000 1.0
C      1  0.4780310000000  0.4239310000000  0.5753990000000 1.0
C      1  0.5316330000000  0.4182930000000  0.5053190000000 1.0
C      1  0.4515460000000  0.5651370000000  0.4704860000000 1.0
C      1  0.5445850000000  0.4711450000000  0.4804100000000 1.0
C      1  0.4362650000000  0.4223900000000  0.4920180000000 1.0
C      1  0.5365560000000  0.4964610000000  0.4452140000000 1.0
C      1  0.4911920000000  0.5517440000000  0.5033470000000 1.0
C      1  0.3977840000000  0.5356780000000  0.4954650000000 1.0
C      1  0.5582200000000  0.5547420000000  0.4243410000000 1.0
C      1  0.5272820000000  0.5338700000000  0.5312310000000 1.0
C      1  0.4873420000000  0.4600850000000  0.4720990000000 1.0
C      1  0.4971300000000  0.5168160000000  0.5703220000000 1.0
C      1  0.5205680000000  0.4350260000000  0.5282520000000 1.0
C      1  0.5191840000000  0.5636440000000  0.5680380000000 1.0
C      1  0.5029890000000  0.5930260000000  0.4742310000000 1.0
C      1  0.4186870000000  0.5146080000000  0.5631040000000 1.0
C      1  0.5710960000000  0.4159920000000  0.4550450000000 1.0
C      1  0.4998420000000  0.4088250000000  0.5661840000000 1.0
C      1  0.5198300000000  0.3914330000000  0.5054690000000 1.0
C      1  0.4281470000000  0.4932180000000  0.4434860000000 1.0
C      1  0.5430350000000  0.4197510000000  0.4456240000000 1.0
C      1  0.5460430000000  0.4879840000000  0.5741500000000 1.0
C      1  0.3992410000000  0.5627320000000  0.5079160000000 1.0
C      1  0.4785570000000  0.4146420000000  0.5013330000000 1.0
C      1  0.4013560000000  0.4871490000000  0.5064470000000 1.0
C      1  0.4929400000000  0.5653020000000  0.5790570000000 1.0
C      1  0.5916190000000  0.5167740000000  0.5126790000000 1.0
C      1  0.5810250000000  0.4812050000000  0.5459260000000 1.0
C      1  0.5231990000000  0.6100590000000  0.5468030000000 1.0
C      1  0.4473870000000  0.4820110000000  0.6019420000000 1.0
C      1  0.4077430000000  0.5051170000000  0.4596980000000 1.0
C      1  0.4618280000000  0.4249740000000  0.4506510000000 1.0
C      1  0.5222530000000  0.5110920000000  0.4917250000000 1.0
C      1  0.4475230000000  0.5676980000000  0.5654450000000 1.0
C      1  0.5071860000000  0.5388700000000  0.4047890000000 1.0
C      1  0.4698270000000  0.5268720000000  0.5589620000000 1.0
C      1  0.4622490000000  0.4352280000000  0.5536350000000 1.0
C      1  0.5307380000000  0.4530950000000  0.4617120000000 1.0
C      1  0.4323390000000  0.5754300000000  0.5416010000000 1.0
C      1  0.5951420000000  0.5441300000000  0.5033320000000 1.0
C      1  0.4524360000000  0.4716420000000  0.4838830000000 1.0
C      1  0.4931380000000  0.5856290000000  0.4482540000000 1.0
C      1  0.4664400000000  0.5090010000000  0.5347700000000 1.0
C      1  0.4169680000000  0.4422590000000  0.5418230000000 1.0
C      1  0.4774030000000  0.4814670000000  0.5409640000000 1.0
C      1  0.4780610000000  0.5667240000000  0.5267330000000 1.0
C      1  0.5547060000000  0.5397950000000  0.5195420000000 1.0
C      1  0.4361090000000  0.5416960000000  0.4306090000000 1.0
C      1  0.5199960000000  0.4315660000000  0.4792700000000 1.0
C      1  0.5838290000000  0.4803740000000  0.4448260000000 1.0
C      1  0.5180470000000  0.4338990000000  0.4071830000000 1.0
C      1  0.4002920000000  0.4439670000000  0.5176830000000 1.0
C      1  0.5213100000000  0.4920540000000  0.3813820000000 1.0
C      1  0.4129060000000  0.5831400000000  0.4934990000000 1.0
C      1  0.4734410000000  0.5182440000000  0.4309180000000 1.0
C      1  0.5125900000000  0.5374660000000  0.4534680000000 1.0
C      1  0.4660970000000  0.5765170000000  0.4464220000000 1.0
C      1  0.4812470000000  0.4636470000000  0.5165110000000 1.0
C      1  0.4321320000000  0.4822290000000  0.5132800000000 1.0
C      1  0.5529670000000  0.5161820000000  0.4277310000000 1.0
C      1  0.5707910000000  0.4775620000000  0.4161310000000 1.0
C      1  0.4353120000000  0.4667460000000  0.4568800000000 1.0
C      1  0.5355510000000  0.4358110000000  0.5753250000000 1.0
C      1  0.5922720000000  0.5317760000000  0.4567770000000 1.0
C      1  0.5620020000000  0.4179740000000  0.5088650000000 1.0
C      1  0.5195530000000  0.5115970000000  0.6118150000000 1.0
C      1  0.4911870000000  0.4357620000000  0.5206490000000 1.0
C      1  0.4738850000000  0.5575270000000  0.5563770000000 1.0
C      1  0.4975310000000  0.4899800000000  0.3957750000000 1.0
C      1  0.4426810000000  0.5254560000000  0.5785830000000 1.0
C      1  0.4848480000000  0.4983980000000  0.4532630000000 1.0
C      1  0.5411430000000  0.4374980000000  0.4216550000000 1.0
C      1  0.5482940000000  0.5684840000000  0.4491490000000 1.0
C      1  0.4975890000000  0.4439420000000  0.4252820000000 1.0
C      1  0.4484480000000  0.4477670000000  0.4372700000000 1.0
C      1  0.4609020000000  0.5566690000000  0.4256130000000 1.0
C      1  0.5764630000000  0.4239400000000  0.4833460000000 1.0
C      1  0.5480610000000  0.5731880000000  0.5302890000000 1.0
C      1  0.5802170000000  0.5337390000000  0.4304350000000 1.0
C      1  0.5062890000000  0.5270060000000  0.5121690000000 1.0
C      1  0.3948100000000  0.5149600000000  0.5163990000000 1.0
C      1  0.5670320000000  0.4960150000000  0.3944820000000 1.0
C      1  0.5738390000000  0.5296340000000  0.5583250000000 1.0
C      1  0.5516060000000  0.5311950000000  0.4870100000000 1.0
C      1  0.5249490000000  0.6280690000000  0.5004410000000 1.0
C      1  0.5258600000000  0.5821420000000  0.5469420000000 1.0
C      1  0.5784800000000  0.5473150000000  0.4782470000000 1.0
C      1  0.4621080000000  0.4302930000000  0.4797780000000 1.0
C      1  0.5225950000000  0.5346640000000  0.5608500000000 1.0
C      1  0.5899760000000  0.5609880000000  0.5248410000000 1.0
C      1  0.4435350000000  0.5131130000000  0.4273580000000 1.0
C      1  0.5314050000000  0.5518530000000  0.4696260000000 1.0
C      1  0.4386400000000  0.4211460000000  0.5420660000000 1.0
C      1  0.4279210000000  0.5501340000000  0.4579340000000 1.0
C      1  0.4510710000000  0.5751130000000  0.5189150000000 1.0
C      1  0.4299570000000  0.4695250000000  0.5443980000000 1.0
C      1  0.5379300000000  0.6180700000000  0.5236780000000 1.0
C      1  0.3967930000000  0.4835120000000  0.4767890000000 1.0
C      1  0.5459530000000  0.4656280000000  0.4234270000000 1.0
C      1  0.4910100000000  0.5490310000000  0.6022300000000 1.0
C      1  0.5895280000000  0.4300450000000  0.4385790000000 1.0
C      1  0.5705600000000  0.4717710000000  0.5713660000000 1.0
C      1  0.4409160000000  0.5828640000000  0.4923260000000 1.0
C      1  0.5802670000000  0.5097140000000  0.5385870000000 1.0
END
