TITL C-951340-9809-137 1.98104580922436e-06 125000 -283.029363459936 0 0 47 (C1) n - 1
REM
REM in /home/bkarasulu/work/CARBON/AIRSS/Generating-Clusters/EDIP-Nigel-Params/with-SteepDescent/Only-C1/SD-CG/HFTN-CG
REM
REM
REM
REM
REM
REM ./C.cell (11c1c37f851c82e70ff6c80c92926a4b)
REM
REM compiler GCC version 9.2.1 20190827 (Red Hat 9.2.1-1)
REM options -cpp -mtune=generic -march=x86-64 -g -O0 -fpre-include=/usr/include/finclude/math-vector-fortran.h
REM seed 2144577692 -1638165974 1390423656 1721469184 -2081516843 1911830502 2129761965 2137109029 -1992911992 -665091191 591114714 390450484 664350957 -1466878668 -371231634 2026056418 1634494706 1957649288 -2010478852 705168416 -847596524 -953559353 982761580 1110729140 156746557 -263863579 -888754234 -911310891 -367105910 -1362917021 -1030638865 1506507435 395993074
REM
CELL 1.54180   50.00000   50.00000   50.00000   90.00000   90.00000   90.00000
LATT -1
SFAC C  
C      1  0.4981270000000  0.5198380000000  0.5577980000000 1.0
C      1  0.4868280000000  0.5083910000000  0.4390260000000 1.0
C      1  0.4424220000000  0.4660070000000  0.4989150000000 1.0
C      1  0.5228650000000  0.5023030000000  0.5526790000000 1.0
C      1  0.5076530000000  0.5291940000000  0.5207750000000 1.0
C      1  0.5164960000000  0.4518920000000  0.4531370000000 1.0
C      1  0.5553960000000  0.5003820000000  0.4806230000000 1.0
C      1  0.4342370000000  0.5166550000000  0.4900060000000 1.0
C      1  0.4983350000000  0.5490670000000  0.5539480000000 1.0
C      1  0.4899270000000  0.4376220000000  0.5214250000000 1.0
C      1  0.4442930000000  0.5125190000000  0.4647510000000 1.0
C      1  0.4614740000000  0.4978370000000  0.4486090000000 1.0
C      1  0.5171270000000  0.5637170000000  0.5394940000000 1.0
C      1  0.5318140000000  0.5443810000000  0.4696890000000 1.0
C      1  0.4732340000000  0.5021940000000  0.5584710000000 1.0
C      1  0.4568150000000  0.5224500000000  0.5129920000000 1.0
C      1  0.5412990000000  0.4865390000000  0.5044950000000 1.0
C      1  0.4842160000000  0.5319190000000  0.5024170000000 1.0
C      1  0.4925170000000  0.4627910000000  0.4434350000000 1.0
C      1  0.4690980000000  0.4650690000000  0.4863680000000 1.0
C      1  0.5267620000000  0.5526610000000  0.5144010000000 1.0
C      1  0.4792080000000  0.4651700000000  0.5304920000000 1.0
C      1  0.4860750000000  0.5574540000000  0.4873970000000 1.0
C      1  0.5624790000000  0.5231810000000  0.5310570000000 1.0
C      1  0.5130000000000  0.4819100000000  0.4914420000000 1.0
C      1  0.5548250000000  0.5419120000000  0.5118190000000 1.0
C      1  0.4867280000000  0.4839700000000  0.5049610000000 1.0
C      1  0.5551010000000  0.5312370000000  0.4837560000000 1.0
C      1  0.5082390000000  0.5259440000000  0.4665420000000 1.0
C      1  0.4526130000000  0.5013000000000  0.5358390000000 1.0
C      1  0.5161930000000  0.5636870000000  0.4881960000000 1.0
C      1  0.5422850000000  0.4914710000000  0.4548110000000 1.0
C      1  0.4693680000000  0.4714550000000  0.4567020000000 1.0
C      1  0.4754810000000  0.5557280000000  0.4609330000000 1.0
C      1  0.5196100000000  0.4385580000000  0.5258890000000 1.0
C      1  0.5144420000000  0.4752170000000  0.5604910000000 1.0
C      1  0.5313980000000  0.4491860000000  0.5011290000000 1.0
C      1  0.5418600000000  0.4639930000000  0.4483730000000 1.0
C      1  0.5264780000000  0.4529290000000  0.5486910000000 1.0
C      1  0.4849450000000  0.4383490000000  0.4913440000000 1.0
C      1  0.4345160000000  0.5404600000000  0.5054320000000 1.0
C      1  0.4901860000000  0.5385490000000  0.4437860000000 1.0
C      1  0.5137980000000  0.4950750000000  0.4631740000000 1.0
C      1  0.4852750000000  0.4747870000000  0.5585590000000 1.0
C      1  0.5423410000000  0.5035850000000  0.5300290000000 1.0
C      1  0.5130020000000  0.4397500000000  0.4796690000000 1.0
C      1  0.4496160000000  0.4717150000000  0.5260310000000 1.0
END
