TITL C-951334-9093-350 -2.76402833379903e-06 125000 -426.096831023067 0 0 69 (C1) n - 1
REM
REM in /home/bkarasulu/work/CARBON/AIRSS/Generating-Clusters/EDIP-Nigel-Params/with-SteepDescent/Only-C1/SD-CG/HFTN-CG
REM
REM
REM
REM
REM
REM ./C.cell (11c1c37f851c82e70ff6c80c92926a4b)
REM
REM compiler GCC version 9.2.1 20190827 (Red Hat 9.2.1-1)
REM options -cpp -mtune=generic -march=x86-64 -g -O0 -fpre-include=/usr/include/finclude/math-vector-fortran.h
REM seed -1226814768 -1141074985 -2143823120 -898618878 -1583138019 498327275 1248729651 -1412290862 65275698 -1095987844 -1551093814 1530123688 -2081623614 674564185 -1050602179 1117781365 489219884 -1225057643 985710818 -1452048345 -2123225720 501722597 -781405331 2069720792 649480047 -230648492 -750932344 -1286446688 -1744860988 -1222770014 -1366294879 -1460156820 -892178690
REM
CELL 1.54180   50.00000   50.00000   50.00000   90.00000   90.00000   90.00000
LATT -1
SFAC C  
C      1  0.5020430000000  0.4844440000000  0.5193390000000 1.0
C      1  0.4789610000000  0.4698320000000  0.5030360000000 1.0
C      1  0.4736750000000  0.5550400000000  0.4999300000000 1.0
C      1  0.4613800000000  0.4849820000000  0.4324540000000 1.0
C      1  0.5544880000000  0.4507460000000  0.5052590000000 1.0
C      1  0.4877040000000  0.5052580000000  0.4716710000000 1.0
C      1  0.5202520000000  0.4834230000000  0.4956880000000 1.0
C      1  0.4471390000000  0.5535340000000  0.4878930000000 1.0
C      1  0.4943580000000  0.5405530000000  0.5289510000000 1.0
C      1  0.5738230000000  0.4743490000000  0.5096760000000 1.0
C      1  0.5427550000000  0.5620390000000  0.4685540000000 1.0
C      1  0.5511350000000  0.5234350000000  0.4430260000000 1.0
C      1  0.5146640000000  0.4654620000000  0.5711350000000 1.0
C      1  0.4967700000000  0.5585240000000  0.4830650000000 1.0
C      1  0.6112880000000  0.5018110000000  0.5241110000000 1.0
C      1  0.5224160000000  0.4347270000000  0.4667990000000 1.0
C      1  0.5359450000000  0.4991390000000  0.4534860000000 1.0
C      1  0.5241330000000  0.5582500000000  0.4447330000000 1.0
C      1  0.5624720000000  0.5394030000000  0.4662610000000 1.0
C      1  0.5249960000000  0.5560190000000  0.4926480000000 1.0
C      1  0.4653920000000  0.5131510000000  0.4907370000000 1.0
C      1  0.4775480000000  0.4325860000000  0.4941670000000 1.0
C      1  0.5302500000000  0.5266410000000  0.4967580000000 1.0
C      1  0.5059270000000  0.4577180000000  0.4555600000000 1.0
C      1  0.4678660000000  0.4429440000000  0.5363830000000 1.0
C      1  0.4522870000000  0.5337310000000  0.5520920000000 1.0
C      1  0.5739540000000  0.5364100000000  0.5178880000000 1.0
C      1  0.5079830000000  0.5645870000000  0.5378690000000 1.0
C      1  0.4541080000000  0.4351780000000  0.5111330000000 1.0
C      1  0.4537870000000  0.4884500000000  0.5032150000000 1.0
C      1  0.5616230000000  0.5234290000000  0.4929390000000 1.0
C      1  0.4313480000000  0.4506440000000  0.4993490000000 1.0
C      1  0.5276970000000  0.5110230000000  0.5688430000000 1.0
C      1  0.4832980000000  0.5226130000000  0.4468400000000 1.0
C      1  0.4585060000000  0.4830890000000  0.5528690000000 1.0
C      1  0.5393080000000  0.4650290000000  0.4837200000000 1.0
C      1  0.5070090000000  0.4920810000000  0.5705900000000 1.0
C      1  0.5271040000000  0.4257150000000  0.4950890000000 1.0
C      1  0.4394750000000  0.4925230000000  0.5316070000000 1.0
C      1  0.5179600000000  0.5065560000000  0.4779950000000 1.0
C      1  0.5567670000000  0.4815540000000  0.4661990000000 1.0
C      1  0.5314250000000  0.5639170000000  0.5221410000000 1.0
C      1  0.4253720000000  0.5574430000000  0.5050570000000 1.0
C      1  0.5923110000000  0.5198230000000  0.5331380000000 1.0
C      1  0.4567390000000  0.4557480000000  0.5584790000000 1.0
C      1  0.4838450000000  0.4731020000000  0.4709520000000 1.0
C      1  0.4535390000000  0.5264010000000  0.4460470000000 1.0
C      1  0.4848390000000  0.4980520000000  0.5513980000000 1.0
C      1  0.4157350000000  0.4764410000000  0.5317930000000 1.0
C      1  0.5510030000000  0.5444600000000  0.5356340000000 1.0
C      1  0.4358310000000  0.4681690000000  0.4759910000000 1.0
C      1  0.5150910000000  0.4807690000000  0.4372240000000 1.0
C      1  0.5720940000000  0.4946290000000  0.4878620000000 1.0
C      1  0.4451500000000  0.5275500000000  0.4745540000000 1.0
C      1  0.5016630000000  0.4273210000000  0.5090430000000 1.0
C      1  0.5364410000000  0.5187580000000  0.5432200000000 1.0
C      1  0.5357820000000  0.5401760000000  0.4261750000000 1.0
C      1  0.4584690000000  0.4680680000000  0.4573090000000 1.0
C      1  0.4790650000000  0.5273840000000  0.5503750000000 1.0
C      1  0.4417490000000  0.5055470000000  0.4310160000000 1.0
C      1  0.4957590000000  0.4356890000000  0.5361120000000 1.0
C      1  0.4093720000000  0.4554230000000  0.5162350000000 1.0
C      1  0.4176420000000  0.5372920000000  0.5212180000000 1.0
C      1  0.5931220000000  0.4814780000000  0.5295130000000 1.0
C      1  0.4904620000000  0.4969150000000  0.4280210000000 1.0
C      1  0.5154220000000  0.5183340000000  0.5226380000000 1.0
C      1  0.4323780000000  0.5209800000000  0.5380320000000 1.0
C      1  0.5129950000000  0.4430360000000  0.5565730000000 1.0
C      1  0.4971110000000  0.5504730000000  0.4546930000000 1.0
END
