TITL C-951344-124-497 1.24618360723461e-06 125000 -413.269797424159 0 0 67 (C1) n - 1
REM
REM in /home/bkarasulu/work/CARBON/AIRSS/Generating-Clusters/EDIP-Nigel-Params/with-SteepDescent/Only-C1/SD-CG/HFTN-CG
REM
REM
REM
REM
REM
REM ./C.cell (11c1c37f851c82e70ff6c80c92926a4b)
REM
REM compiler GCC version 9.2.1 20190827 (Red Hat 9.2.1-1)
REM options -cpp -mtune=generic -march=x86-64 -g -O0 -fpre-include=/usr/include/finclude/math-vector-fortran.h
REM seed 655799449 -503665806 545245446 437319822 -894891228 -1689011428 1947764854 -820390992 -2008678966 -2143990300 -208276174 -1069909265 -1803329419 -467814776 -2030091594 -599404232 -806118997 572668057 361103489 -957963218 -803876168 143352924 -1410647315 -1985021879 1610286345 -1013178088 -1314584853 1094648002 -1223944713 -1156320637 1981092975 642937703 2098364576
REM
CELL 1.54180   50.00000   50.00000   50.00000   90.00000   90.00000   90.00000
LATT -1
SFAC C  
C      1  0.4730880000000  0.4353630000000  0.5264050000000 1.0
C      1  0.5195580000000  0.4202790000000  0.4635900000000 1.0
C      1  0.4555900000000  0.5571070000000  0.4896290000000 1.0
C      1  0.5563730000000  0.5087120000000  0.5207820000000 1.0
C      1  0.5161690000000  0.4450460000000  0.4478810000000 1.0
C      1  0.4612570000000  0.4600410000000  0.5128810000000 1.0
C      1  0.5419780000000  0.5134780000000  0.4401330000000 1.0
C      1  0.4777620000000  0.5738630000000  0.4759540000000 1.0
C      1  0.4342660000000  0.5023750000000  0.5130920000000 1.0
C      1  0.4795790000000  0.5142020000000  0.4853980000000 1.0
C      1  0.4958960000000  0.4645900000000  0.4818250000000 1.0
C      1  0.5250070000000  0.4568410000000  0.5472370000000 1.0
C      1  0.4499770000000  0.4526570000000  0.4859240000000 1.0
C      1  0.5654850000000  0.5495690000000  0.4561270000000 1.0
C      1  0.5434580000000  0.5562730000000  0.5041790000000 1.0
C      1  0.5006170000000  0.5784440000000  0.4941390000000 1.0
C      1  0.5256380000000  0.5589300000000  0.5285750000000 1.0
C      1  0.4765650000000  0.5659730000000  0.5368780000000 1.0
C      1  0.5455700000000  0.4966260000000  0.5658860000000 1.0
C      1  0.5009890000000  0.5154900000000  0.5350950000000 1.0
C      1  0.5698410000000  0.5264350000000  0.4726520000000 1.0
C      1  0.4980970000000  0.4837060000000  0.5746930000000 1.0
C      1  0.5501260000000  0.5178380000000  0.5482400000000 1.0
C      1  0.5172280000000  0.5511870000000  0.4604350000000 1.0
C      1  0.5673700000000  0.5020030000000  0.4537450000000 1.0
C      1  0.4949720000000  0.4451610000000  0.4292240000000 1.0
C      1  0.5264390000000  0.5690980000000  0.4819720000000 1.0
C      1  0.4978900000000  0.5588160000000  0.5163060000000 1.0
C      1  0.5397270000000  0.4577430000000  0.5228460000000 1.0
C      1  0.5384240000000  0.4636460000000  0.4448180000000 1.0
C      1  0.4941690000000  0.5287060000000  0.5087770000000 1.0
C      1  0.5231980000000  0.4457170000000  0.4999630000000 1.0
C      1  0.4446260000000  0.5248100000000  0.5292520000000 1.0
C      1  0.4854110000000  0.5524120000000  0.5626400000000 1.0
C      1  0.4960410000000  0.4229580000000  0.5122040000000 1.0
C      1  0.4421170000000  0.5028610000000  0.4842400000000 1.0
C      1  0.4777420000000  0.4703700000000  0.5587650000000 1.0
C      1  0.4739260000000  0.4438210000000  0.4713980000000 1.0
C      1  0.5064030000000  0.4854260000000  0.5284550000000 1.0
C      1  0.4726640000000  0.5177770000000  0.4284590000000 1.0
C      1  0.5254390000000  0.4770520000000  0.5672900000000 1.0
C      1  0.4561630000000  0.4731750000000  0.4421150000000 1.0
C      1  0.4817920000000  0.5223500000000  0.5598460000000 1.0
C      1  0.4926700000000  0.4926450000000  0.4652620000000 1.0
C      1  0.5001770000000  0.4115850000000  0.4850380000000 1.0
C      1  0.4404930000000  0.4769870000000  0.5279870000000 1.0
C      1  0.4921470000000  0.5094540000000  0.5838580000000 1.0
C      1  0.5350290000000  0.4848320000000  0.4832970000000 1.0
C      1  0.4857790000000  0.4766650000000  0.5073010000000 1.0
C      1  0.4423500000000  0.4760730000000  0.4693640000000 1.0
C      1  0.5148850000000  0.5531970000000  0.5656240000000 1.0
C      1  0.4781170000000  0.4926140000000  0.4392190000000 1.0
C      1  0.5215880000000  0.4964890000000  0.4569040000000 1.0
C      1  0.5578740000000  0.4747700000000  0.4655540000000 1.0
C      1  0.5367890000000  0.4861200000000  0.5134350000000 1.0
C      1  0.4674980000000  0.5392620000000  0.4453330000000 1.0
C      1  0.4695640000000  0.4461630000000  0.4419730000000 1.0
C      1  0.5402560000000  0.5428420000000  0.4440830000000 1.0
C      1  0.4539390000000  0.5524340000000  0.5202740000000 1.0
C      1  0.5540790000000  0.5289790000000  0.4983260000000 1.0
C      1  0.4522340000000  0.4845740000000  0.5541910000000 1.0
C      1  0.4782010000000  0.4427340000000  0.5529670000000 1.0
C      1  0.5247780000000  0.5329350000000  0.5452280000000 1.0
C      1  0.4892670000000  0.5588720000000  0.4519950000000 1.0
C      1  0.4565770000000  0.5323030000000  0.4725470000000 1.0
C      1  0.4538690000000  0.5142540000000  0.5546780000000 1.0
C      1  0.5372110000000  0.4242900000000  0.4856170000000 1.0
END
