TITL C-950528-5794-248 -6.56720759270834e-08 125000 -986.282613241186 0 0 158 (C1) n - 1
REM
REM in /home/bkarasulu/work/CARBON/AIRSS/Generating-Clusters/EDIP-Nigel-Params/with-SteepDescent/Only-C1/SD-CG/HFTN-CG
REM
REM
REM
REM
REM
REM ./C.cell (11c1c37f851c82e70ff6c80c92926a4b)
REM
REM compiler GCC version 9.2.1 20190827 (Red Hat 9.2.1-1)
REM options -cpp -mtune=generic -march=x86-64 -g -O0 -fpre-include=/usr/include/finclude/math-vector-fortran.h
REM seed -622718378 -866522725 -1694812046 -245730950 2026494714 -1475491866 2051858930 1578739975 497385372 1347089875 -1664157318 1495007293 1329017204 885278357 1883214028 1114272637 2079779927 2063292020 -1868246912 -1957710998 -1455800498 -538528318 -1816887944 -1470853861 -973671647 1752917813 -1931386626 -587073860 107337439 473347943 1130048582 -758866223 -308274822
REM
CELL 1.54180   50.00000   50.00000   50.00000   90.00000   90.00000   90.00000
LATT -1
SFAC C  
C      1  0.5339530000000  0.6112360000000  0.4929880000000 1.0
C      1  0.4201220000000  0.5015580000000  0.5589670000000 1.0
C      1  0.5140090000000  0.5286100000000  0.5513450000000 1.0
C      1  0.4514820000000  0.5485480000000  0.4695660000000 1.0
C      1  0.4638770000000  0.4083460000000  0.4915720000000 1.0
C      1  0.4004600000000  0.5332370000000  0.4825230000000 1.0
C      1  0.4681400000000  0.5977510000000  0.5154230000000 1.0
C      1  0.5277180000000  0.4966020000000  0.4565660000000 1.0
C      1  0.4928780000000  0.6126780000000  0.5154620000000 1.0
C      1  0.5389320000000  0.5517770000000  0.5860120000000 1.0
C      1  0.5460780000000  0.4698640000000  0.4947870000000 1.0
C      1  0.4662180000000  0.5327050000000  0.5345140000000 1.0
C      1  0.4977780000000  0.5225880000000  0.4834200000000 1.0
C      1  0.5041980000000  0.6110090000000  0.4873780000000 1.0
C      1  0.5976990000000  0.5117230000000  0.5029300000000 1.0
C      1  0.4904490000000  0.4050830000000  0.4442800000000 1.0
C      1  0.5370980000000  0.6071700000000  0.5224530000000 1.0
C      1  0.5185490000000  0.5656660000000  0.4738750000000 1.0
C      1  0.5994190000000  0.5145630000000  0.5314380000000 1.0
C      1  0.4129610000000  0.4843420000000  0.5340370000000 1.0
C      1  0.6047470000000  0.4844650000000  0.4947810000000 1.0
C      1  0.4223300000000  0.4360740000000  0.5381740000000 1.0
C      1  0.4371760000000  0.5308470000000  0.4492950000000 1.0
C      1  0.5709610000000  0.5805550000000  0.5011260000000 1.0
C      1  0.5385810000000  0.5763300000000  0.5702650000000 1.0
C      1  0.5158890000000  0.4978150000000  0.5196550000000 1.0
C      1  0.4008450000000  0.4553010000000  0.5307750000000 1.0
C      1  0.5729660000000  0.4744950000000  0.5622360000000 1.0
C      1  0.4364470000000  0.4953770000000  0.4815470000000 1.0
C      1  0.4498510000000  0.4762250000000  0.4988520000000 1.0
C      1  0.4748600000000  0.5801770000000  0.4512940000000 1.0
C      1  0.4739210000000  0.5729540000000  0.4979400000000 1.0
C      1  0.5948310000000  0.5347730000000  0.4866440000000 1.0
C      1  0.5597160000000  0.5892490000000  0.5264540000000 1.0
C      1  0.4656510000000  0.4445380000000  0.5884260000000 1.0
C      1  0.5970560000000  0.4858590000000  0.5428760000000 1.0
C      1  0.5016890000000  0.3965340000000  0.5112110000000 1.0
C      1  0.5292180000000  0.4266620000000  0.4769570000000 1.0
C      1  0.5255180000000  0.4097690000000  0.5031450000000 1.0
C      1  0.5287060000000  0.4413930000000  0.4040640000000 1.0
C      1  0.5877310000000  0.5399130000000  0.5410050000000 1.0
C      1  0.3869070000000  0.4486640000000  0.5075050000000 1.0
C      1  0.5311410000000  0.4694820000000  0.4424640000000 1.0
C      1  0.5650650000000  0.4565930000000  0.4315120000000 1.0
C      1  0.4492110000000  0.5871650000000  0.4644100000000 1.0
C      1  0.4349370000000  0.4136330000000  0.4944630000000 1.0
C      1  0.4312230000000  0.5709830000000  0.5109800000000 1.0
C      1  0.4786770000000  0.5001030000000  0.4474140000000 1.0
C      1  0.5116130000000  0.5399120000000  0.5805400000000 1.0
C      1  0.4784530000000  0.5129380000000  0.6057240000000 1.0
C      1  0.4075730000000  0.5325950000000  0.4543300000000 1.0
C      1  0.5242410000000  0.5445590000000  0.4225310000000 1.0
C      1  0.5111850000000  0.5521120000000  0.5311740000000 1.0
C      1  0.4872630000000  0.5075920000000  0.4193650000000 1.0
C      1  0.5356420000000  0.4204780000000  0.4259710000000 1.0
C      1  0.5423140000000  0.4169120000000  0.5266490000000 1.0
C      1  0.4572250000000  0.5173610000000  0.5889200000000 1.0
C      1  0.4436120000000  0.4793650000000  0.5282580000000 1.0
C      1  0.5680580000000  0.4445110000000  0.5577130000000 1.0
C      1  0.5365110000000  0.4778070000000  0.5274210000000 1.0
C      1  0.5645270000000  0.5126300000000  0.4132440000000 1.0
C      1  0.4732920000000  0.5549410000000  0.4317550000000 1.0
C      1  0.4961840000000  0.4694280000000  0.4836020000000 1.0
C      1  0.5698920000000  0.5592870000000  0.4521900000000 1.0
C      1  0.4869120000000  0.4255400000000  0.5790290000000 1.0
C      1  0.4620620000000  0.5422910000000  0.5721350000000 1.0
C      1  0.4518050000000  0.4299600000000  0.4323930000000 1.0
C      1  0.4530460000000  0.4518960000000  0.4525510000000 1.0
C      1  0.5611890000000  0.4293750000000  0.4402620000000 1.0
C      1  0.3991910000000  0.4892160000000  0.4485810000000 1.0
C      1  0.5539140000000  0.5817610000000  0.4534190000000 1.0
C      1  0.5230210000000  0.4554050000000  0.4839400000000 1.0
C      1  0.4063540000000  0.4869580000000  0.4769420000000 1.0
C      1  0.4714180000000  0.4504940000000  0.4066400000000 1.0
C      1  0.3989160000000  0.4611430000000  0.4869400000000 1.0
C      1  0.5303610000000  0.5497210000000  0.5078000000000 1.0
C      1  0.4820410000000  0.4572510000000  0.4584860000000 1.0
C      1  0.4726540000000  0.4394900000000  0.5311650000000 1.0
C      1  0.5829940000000  0.4453920000000  0.5112110000000 1.0
C      1  0.3909970000000  0.5074840000000  0.4907540000000 1.0
C      1  0.4920650000000  0.4817780000000  0.5113270000000 1.0
C      1  0.5891650000000  0.5597930000000  0.4969390000000 1.0
C      1  0.5834820000000  0.4906520000000  0.4523210000000 1.0
C      1  0.5039710000000  0.4437420000000  0.5933070000000 1.0
C      1  0.4947200000000  0.5380400000000  0.4184240000000 1.0
C      1  0.5588190000000  0.4284300000000  0.4701090000000 1.0
C      1  0.5219910000000  0.4972840000000  0.6042600000000 1.0
C      1  0.5646920000000  0.4844210000000  0.5890560000000 1.0
C      1  0.4396380000000  0.5727370000000  0.5383600000000 1.0
C      1  0.4316650000000  0.4111790000000  0.5234150000000 1.0
C      1  0.4897490000000  0.4658160000000  0.5367800000000 1.0
C      1  0.4119760000000  0.4714960000000  0.4323040000000 1.0
C      1  0.5310900000000  0.5008990000000  0.3969990000000 1.0
C      1  0.4734320000000  0.4878380000000  0.5509740000000 1.0
C      1  0.4638450000000  0.5021380000000  0.4018700000000 1.0
C      1  0.4360230000000  0.5521210000000  0.5591630000000 1.0
C      1  0.5281860000000  0.5735970000000  0.4422830000000 1.0
C      1  0.5531050000000  0.5915060000000  0.4811190000000 1.0
C      1  0.4681320000000  0.5344440000000  0.4909180000000 1.0
C      1  0.5909920000000  0.4718320000000  0.4718660000000 1.0
C      1  0.4578730000000  0.4034880000000  0.5353470000000 1.0
C      1  0.4821850000000  0.5573210000000  0.5253920000000 1.0
C      1  0.5212820000000  0.5207340000000  0.5019320000000 1.0
C      1  0.3988420000000  0.5062210000000  0.5179940000000 1.0
C      1  0.5084370000000  0.4887030000000  0.4100520000000 1.0
C      1  0.5486400000000  0.4622640000000  0.4090300000000 1.0
C      1  0.5667910000000  0.5115020000000  0.5937080000000 1.0
C      1  0.3925980000000  0.5144670000000  0.4391730000000 1.0
C      1  0.5303150000000  0.5276680000000  0.4475520000000 1.0
C      1  0.4742430000000  0.4158070000000  0.4232000000000 1.0
C      1  0.5574980000000  0.4929890000000  0.5418000000000 1.0
C      1  0.4854780000000  0.5145470000000  0.5467220000000 1.0
C      1  0.5104710000000  0.5834270000000  0.5618950000000 1.0
C      1  0.4722570000000  0.4359200000000  0.5003160000000 1.0
C      1  0.4438180000000  0.4927030000000  0.5752500000000 1.0
C      1  0.5117230000000  0.6004120000000  0.5355310000000 1.0
C      1  0.5708680000000  0.4527500000000  0.4854390000000 1.0
C      1  0.5743840000000  0.5140010000000  0.4400490000000 1.0
C      1  0.4329310000000  0.5697220000000  0.4823690000000 1.0
C      1  0.4746280000000  0.4005300000000  0.4668990000000 1.0
C      1  0.4400830000000  0.4757870000000  0.4364290000000 1.0
C      1  0.4867640000000  0.3985410000000  0.5355060000000 1.0
C      1  0.4530660000000  0.4752040000000  0.4090500000000 1.0
C      1  0.5590090000000  0.5450220000000  0.5250330000000 1.0
C      1  0.4481260000000  0.4491750000000  0.4858490000000 1.0
C      1  0.5480150000000  0.4949980000000  0.4788190000000 1.0
C      1  0.5415220000000  0.5277520000000  0.4031850000000 1.0
C      1  0.4476920000000  0.4604130000000  0.5727120000000 1.0
C      1  0.6019770000000  0.4672720000000  0.5188350000000 1.0
C      1  0.5004830000000  0.4154640000000  0.5544970000000 1.0
C      1  0.4467140000000  0.5241290000000  0.4038920000000 1.0
C      1  0.5301320000000  0.4140300000000  0.5534130000000 1.0
C      1  0.4465210000000  0.4522490000000  0.5434810000000 1.0
C      1  0.5607480000000  0.5327750000000  0.5755970000000 1.0
C      1  0.5018370000000  0.4580440000000  0.4110780000000 1.0
C      1  0.5375110000000  0.4771420000000  0.5934660000000 1.0
C      1  0.5579900000000  0.5232600000000  0.4882150000000 1.0
C      1  0.5865840000000  0.5448930000000  0.5689080000000 1.0
C      1  0.5094180000000  0.5404450000000  0.4642360000000 1.0
C      1  0.5054190000000  0.4512710000000  0.4411210000000 1.0
C      1  0.5592670000000  0.5329100000000  0.4570830000000 1.0
C      1  0.4638820000000  0.5870170000000  0.5415560000000 1.0
C      1  0.5177090000000  0.4635670000000  0.5479160000000 1.0
C      1  0.5255410000000  0.4551290000000  0.5769590000000 1.0
C      1  0.4191780000000  0.5303220000000  0.5488240000000 1.0
C      1  0.5448830000000  0.4329450000000  0.5720350000000 1.0
C      1  0.4942400000000  0.5833690000000  0.4767870000000 1.0
C      1  0.5479250000000  0.5221520000000  0.5486210000000 1.0
C      1  0.4486260000000  0.5010330000000  0.4532660000000 1.0
C      1  0.5146690000000  0.4227790000000  0.4476400000000 1.0
C      1  0.5048990000000  0.5185400000000  0.6008360000000 1.0
C      1  0.4481620000000  0.5188520000000  0.5103690000000 1.0
C      1  0.4893030000000  0.5607340000000  0.5767040000000 1.0
C      1  0.4466040000000  0.5432670000000  0.4242900000000 1.0
C      1  0.4994230000000  0.4968220000000  0.4682300000000 1.0
C      1  0.5635520000000  0.4368520000000  0.5304010000000 1.0
C      1  0.4187350000000  0.5299720000000  0.5167540000000 1.0
C      1  0.5594660000000  0.5741540000000  0.5503260000000 1.0
END
