TITL C-950528-5794-421 5.44034726453281e-07 125000 -817.378576448421 0 0 132 (C1) n - 1
REM
REM in /home/bkarasulu/work/CARBON/AIRSS/Generating-Clusters/EDIP-Nigel-Params/with-SteepDescent/Only-C1/SD-CG/HFTN-CG
REM
REM
REM
REM
REM
REM ./C.cell (11c1c37f851c82e70ff6c80c92926a4b)
REM
REM compiler GCC version 9.2.1 20190827 (Red Hat 9.2.1-1)
REM options -cpp -mtune=generic -march=x86-64 -g -O0 -fpre-include=/usr/include/finclude/math-vector-fortran.h
REM seed 99279994 1600459717 170866862 327798665 1883081950 715345721 1358196103 1086980756 1142220042 -955469812 -2007090514 744687053 1416653023 310446599 1703154469 -146404247 1228877519 1848478016 1844080015 843494714 -1094193376 -1180568106 908770418 -104023346 1973609251 526183121 698435721 -1593710623 797240696 -475549135 -986724848 -472240686 590050031
REM
CELL 1.54180   50.00000   50.00000   50.00000   90.00000   90.00000   90.00000
LATT -1
SFAC C  
C      1  0.4230080000000  0.4823480000000  0.5655630000000 1.0
C      1  0.5198780000000  0.5056770000000  0.5728300000000 1.0
C      1  0.4586650000000  0.5220460000000  0.4457340000000 1.0
C      1  0.4690370000000  0.4289260000000  0.4672890000000 1.0
C      1  0.5786900000000  0.4981640000000  0.4299620000000 1.0
C      1  0.5420740000000  0.5684460000000  0.4668200000000 1.0
C      1  0.4035020000000  0.5012830000000  0.4835010000000 1.0
C      1  0.4537870000000  0.4896770000000  0.5358250000000 1.0
C      1  0.5170770000000  0.4233790000000  0.4157160000000 1.0
C      1  0.5557330000000  0.4836930000000  0.4199710000000 1.0
C      1  0.5190170000000  0.4946220000000  0.4420930000000 1.0
C      1  0.5185890000000  0.4181660000000  0.5225700000000 1.0
C      1  0.5803970000000  0.5346270000000  0.4610950000000 1.0
C      1  0.4448320000000  0.5701070000000  0.4940280000000 1.0
C      1  0.4476280000000  0.5379930000000  0.4220960000000 1.0
C      1  0.4255750000000  0.5528590000000  0.4579540000000 1.0
C      1  0.4340990000000  0.4131480000000  0.5052170000000 1.0
C      1  0.5145500000000  0.5123170000000  0.4018740000000 1.0
C      1  0.4906930000000  0.5819530000000  0.4337190000000 1.0
C      1  0.5228540000000  0.4269530000000  0.5517260000000 1.0
C      1  0.4535010000000  0.4373310000000  0.4233400000000 1.0
C      1  0.5074620000000  0.6011600000000  0.4708260000000 1.0
C      1  0.5591290000000  0.4356590000000  0.5271760000000 1.0
C      1  0.5765400000000  0.5168920000000  0.5480830000000 1.0
C      1  0.4604180000000  0.4951180000000  0.4332510000000 1.0
C      1  0.5720070000000  0.4908040000000  0.5583830000000 1.0
C      1  0.4142890000000  0.5233510000000  0.4988730000000 1.0
C      1  0.4211270000000  0.4543700000000  0.5634200000000 1.0
C      1  0.5962150000000  0.5116030000000  0.4730730000000 1.0
C      1  0.5604630000000  0.5551090000000  0.5125920000000 1.0
C      1  0.4203370000000  0.5690750000000  0.4803990000000 1.0
C      1  0.5495780000000  0.5248040000000  0.5058810000000 1.0
C      1  0.4396910000000  0.4665220000000  0.5139140000000 1.0
C      1  0.5246820000000  0.4506750000000  0.4154760000000 1.0
C      1  0.5453100000000  0.4165370000000  0.5063750000000 1.0
C      1  0.5391690000000  0.4983700000000  0.4026820000000 1.0
C      1  0.4746250000000  0.5731400000000  0.5335780000000 1.0
C      1  0.4694150000000  0.5326360000000  0.4024160000000 1.0
C      1  0.4985230000000  0.4211530000000  0.5676980000000 1.0
C      1  0.4874350000000  0.4420190000000  0.5838560000000 1.0
C      1  0.4980920000000  0.4946300000000  0.6090890000000 1.0
C      1  0.5810800000000  0.5672870000000  0.4962350000000 1.0
C      1  0.4723210000000  0.4939550000000  0.4827100000000 1.0
C      1  0.5294880000000  0.5174900000000  0.5252310000000 1.0
C      1  0.4859770000000  0.5361430000000  0.4519250000000 1.0
C      1  0.4984890000000  0.4722680000000  0.5343540000000 1.0
C      1  0.5553980000000  0.4494040000000  0.4571750000000 1.0
C      1  0.5417140000000  0.4214700000000  0.4759440000000 1.0
C      1  0.5226990000000  0.4615450000000  0.4931000000000 1.0
C      1  0.4155990000000  0.4949080000000  0.5384610000000 1.0
C      1  0.4480580000000  0.5675520000000  0.5229170000000 1.0
C      1  0.5514590000000  0.4555700000000  0.4267610000000 1.0
C      1  0.5307920000000  0.5543730000000  0.4414430000000 1.0
C      1  0.5373220000000  0.5193530000000  0.4783970000000 1.0
C      1  0.4972060000000  0.5349100000000  0.4145560000000 1.0
C      1  0.5280560000000  0.4726370000000  0.5384200000000 1.0
C      1  0.5459910000000  0.5212160000000  0.5873710000000 1.0
C      1  0.5392170000000  0.4674330000000  0.5841470000000 1.0
C      1  0.4359140000000  0.5446350000000  0.5398290000000 1.0
C      1  0.4100370000000  0.4734840000000  0.5175510000000 1.0
C      1  0.4969210000000  0.3964250000000  0.5252140000000 1.0
C      1  0.5083290000000  0.5617850000000  0.4245030000000 1.0
C      1  0.4835300000000  0.5181770000000  0.6041170000000 1.0
C      1  0.4729410000000  0.4226900000000  0.4389840000000 1.0
C      1  0.4844230000000  0.4509020000000  0.5226610000000 1.0
C      1  0.4955520000000  0.5884240000000  0.5179900000000 1.0
C      1  0.4803560000000  0.4859630000000  0.5497760000000 1.0
C      1  0.5024950000000  0.4207800000000  0.4392180000000 1.0
C      1  0.5928240000000  0.5006430000000  0.5002550000000 1.0
C      1  0.5852130000000  0.5197960000000  0.5206120000000 1.0
C      1  0.4919300000000  0.4190460000000  0.4839210000000 1.0
C      1  0.4543690000000  0.3955170000000  0.5035900000000 1.0
C      1  0.4377930000000  0.4539600000000  0.4411390000000 1.0
C      1  0.5365000000000  0.4991030000000  0.5480250000000 1.0
C      1  0.5135060000000  0.4754170000000  0.5957570000000 1.0
C      1  0.5805020000000  0.4637000000000  0.4686240000000 1.0
C      1  0.5271880000000  0.5843190000000  0.5139070000000 1.0
C      1  0.5456560000000  0.5594860000000  0.5595880000000 1.0
C      1  0.5146900000000  0.4135580000000  0.4652370000000 1.0
C      1  0.4836220000000  0.5306200000000  0.5407220000000 1.0
C      1  0.5906210000000  0.4884120000000  0.4551920000000 1.0
C      1  0.4800100000000  0.4809760000000  0.4525240000000 1.0
C      1  0.4600450000000  0.5185030000000  0.5242360000000 1.0
C      1  0.5481880000000  0.4988830000000  0.4607440000000 1.0
C      1  0.3931870000000  0.4786590000000  0.4958740000000 1.0
C      1  0.5057930000000  0.5333470000000  0.5219000000000 1.0
C      1  0.4899090000000  0.5106090000000  0.5620700000000 1.0
C      1  0.4732440000000  0.5616850000000  0.5618510000000 1.0
C      1  0.5039600000000  0.4387940000000  0.5044350000000 1.0
C      1  0.5290470000000  0.5439090000000  0.6001190000000 1.0
C      1  0.4676020000000  0.5782140000000  0.4780910000000 1.0
C      1  0.4482520000000  0.4875210000000  0.5796930000000 1.0
C      1  0.5008660000000  0.5393800000000  0.5943670000000 1.0
C      1  0.4591910000000  0.5162100000000  0.5850840000000 1.0
C      1  0.4687070000000  0.5202710000000  0.4951300000000 1.0
C      1  0.5274450000000  0.5590770000000  0.4934090000000 1.0
C      1  0.4882800000000  0.5935950000000  0.4898550000000 1.0
C      1  0.4638310000000  0.4343190000000  0.5392470000000 1.0
C      1  0.4481470000000  0.4457550000000  0.5639720000000 1.0
C      1  0.4509470000000  0.4742050000000  0.4871410000000 1.0
C      1  0.5403090000000  0.5264080000000  0.4347280000000 1.0
C      1  0.5421900000000  0.4676550000000  0.5136110000000 1.0
C      1  0.5718960000000  0.5615970000000  0.4705270000000 1.0
C      1  0.4939760000000  0.5645650000000  0.5823870000000 1.0
C      1  0.5045310000000  0.4734470000000  0.4230050000000 1.0
C      1  0.4688700000000  0.5018260000000  0.4042890000000 1.0
C      1  0.4723920000000  0.5666240000000  0.4505180000000 1.0
C      1  0.4649840000000  0.4604230000000  0.5824560000000 1.0
C      1  0.5816690000000  0.4734780000000  0.4962670000000 1.0
C      1  0.4170310000000  0.5234760000000  0.5274800000000 1.0
C      1  0.5705260000000  0.5262350000000  0.4347190000000 1.0
C      1  0.5316320000000  0.5688260000000  0.5830000000000 1.0
C      1  0.4578410000000  0.4566040000000  0.4635920000000 1.0
C      1  0.5393410000000  0.4515780000000  0.5563670000000 1.0
C      1  0.5591380000000  0.4894480000000  0.5843340000000 1.0
C      1  0.4361480000000  0.5255580000000  0.4666130000000 1.0
C      1  0.5350310000000  0.5974590000000  0.4721750000000 1.0
C      1  0.5087700000000  0.5246280000000  0.4729480000000 1.0
C      1  0.5334580000000  0.4689960000000  0.4655570000000 1.0
C      1  0.4795850000000  0.4081400000000  0.5476790000000 1.0
C      1  0.5603990000000  0.5351840000000  0.5649870000000 1.0
C      1  0.5483330000000  0.5730850000000  0.5343730000000 1.0
C      1  0.5788580000000  0.4548020000000  0.5175170000000 1.0
C      1  0.4943470000000  0.5385320000000  0.4943340000000 1.0
C      1  0.4187320000000  0.5005600000000  0.4576690000000 1.0
C      1  0.5410390000000  0.6056690000000  0.4987850000000 1.0
C      1  0.4449570000000  0.5636320000000  0.4370240000000 1.0
C      1  0.4328130000000  0.4829050000000  0.4358210000000 1.0
C      1  0.4955290000000  0.4903290000000  0.3997700000000 1.0
C      1  0.4427720000000  0.4359010000000  0.5188880000000 1.0
C      1  0.4821100000000  0.3952850000000  0.4997990000000 1.0
C      1  0.4506750000000  0.5415390000000  0.5675160000000 1.0
END
