TITL C-950522-5749-320 1.25821098820208e-07 125000 -99.1098158864133 0 0 18 (C1) n - 1
REM
REM in /home/bkarasulu/work/CARBON/AIRSS/Generating-Clusters/EDIP-Nigel-Params/with-SteepDescent/Only-C1/SD-CG/HFTN-CG
REM
REM
REM
REM
REM
REM ./C.cell (11c1c37f851c82e70ff6c80c92926a4b)
REM
REM compiler GCC version 9.2.1 20190827 (Red Hat 9.2.1-1)
REM options -cpp -mtune=generic -march=x86-64 -g -O0 -fpre-include=/usr/include/finclude/math-vector-fortran.h
REM seed -451341680 1624192900 -1953150364 -1546255317 -350027307 199335841 -1632604405 -1654848110 -59825849 -639423886 684178512 287220741 784132585 -1583446895 -209028481 1287126992 1441984361 -1876913691 184911235 -1867084798 -1663131837 -443720046 -1945528512 1253824695 -4968206 399845927 -621125375 -2073655945 1608652261 -1840106739 -928714865 -612990019 1489454559
REM
CELL 1.54180   50.00000   50.00000   50.00000   90.00000   90.00000   90.00000
LATT -1
SFAC C  
C      1  0.4657290000000  0.4958040000000  0.5563380000000 1.0
C      1  0.4591910000000  0.5581710000000  0.4325070000000 1.0
C      1  0.5392340000000  0.4861330000000  0.5483670000000 1.0
C      1  0.4801220000000  0.4955220000000  0.5786580000000 1.0
C      1  0.4676210000000  0.4891030000000  0.4529290000000 1.0
C      1  0.5474700000000  0.4799990000000  0.4761700000000 1.0
C      1  0.4820990000000  0.4905370000000  0.5079690000000 1.0
C      1  0.4843120000000  0.5610200000000  0.4418220000000 1.0
C      1  0.5014030000000  0.4874020000000  0.4887030000000 1.0
C      1  0.5057320000000  0.4927890000000  0.5852390000000 1.0
C      1  0.5287580000000  0.4890730000000  0.5725340000000 1.0
C      1  0.5659500000000  0.4759460000000  0.4589010000000 1.0
C      1  0.5287220000000  0.4834110000000  0.4958430000000 1.0
C      1  0.4938330000000  0.4858390000000  0.4613950000000 1.0
C      1  0.4677050000000  0.4937900000000  0.5299850000000 1.0
C      1  0.5367590000000  0.4846430000000  0.5220290000000 1.0
C      1  0.4759840000000  0.5124470000000  0.4405490000000 1.0
C      1  0.4693760000000  0.5383730000000  0.4500620000000 1.0
END
