TITL C-951338-5626-198 -1.85485533627096e-06 125000 -648.993175846116 0 0 105 (C1) n - 1
REM
REM in /home/bkarasulu/work/CARBON/AIRSS/Generating-Clusters/EDIP-Nigel-Params/with-SteepDescent/Only-C1/SD-CG/HFTN-CG
REM
REM
REM
REM
REM
REM ./C.cell (11c1c37f851c82e70ff6c80c92926a4b)
REM
REM compiler GCC version 9.2.1 20190827 (Red Hat 9.2.1-1)
REM options -cpp -mtune=generic -march=x86-64 -g -O0 -fpre-include=/usr/include/finclude/math-vector-fortran.h
REM seed 303955125 -1275819782 1422174124 1927701304 -990346362 -1425032760 1340184795 979485914 -1113986671 453384194 260535915 -845280851 -1008789438 193787240 -2116849438 -229085189 1626510066 2127140298 -1027993546 322990157 -622023205 -2132152319 -28511027 -684508653 2040879587 -1282153807 -1064474544 -1570187014 760545255 -1500291596 1018075588 1962474528 -247524446
REM
CELL 1.54180   50.00000   50.00000   50.00000   90.00000   90.00000   90.00000
LATT -1
SFAC C  
C      1  0.5503220000000  0.5519600000000  0.4480780000000 1.0
C      1  0.4528780000000  0.5293620000000  0.5358730000000 1.0
C      1  0.5435720000000  0.4140190000000  0.4980030000000 1.0
C      1  0.4703340000000  0.4335450000000  0.4987540000000 1.0
C      1  0.5102910000000  0.5851960000000  0.4761260000000 1.0
C      1  0.4334620000000  0.4828940000000  0.5479240000000 1.0
C      1  0.4952050000000  0.5032900000000  0.5516790000000 1.0
C      1  0.5402070000000  0.5405970000000  0.5055810000000 1.0
C      1  0.5617510000000  0.5226810000000  0.4435930000000 1.0
C      1  0.5240730000000  0.4997330000000  0.5133800000000 1.0
C      1  0.5021380000000  0.5642640000000  0.4578560000000 1.0
C      1  0.5122610000000  0.5378460000000  0.4157300000000 1.0
C      1  0.5477630000000  0.4301550000000  0.4474440000000 1.0
C      1  0.4860220000000  0.5153520000000  0.4596540000000 1.0
C      1  0.5327080000000  0.4502070000000  0.4318800000000 1.0
C      1  0.5408700000000  0.4718110000000  0.5795070000000 1.0
C      1  0.5756370000000  0.4742740000000  0.5306650000000 1.0
C      1  0.5297100000000  0.5341680000000  0.4789980000000 1.0
C      1  0.5420380000000  0.5077460000000  0.4738420000000 1.0
C      1  0.5022000000000  0.5172090000000  0.5267160000000 1.0
C      1  0.5229910000000  0.4865750000000  0.4665800000000 1.0
C      1  0.5808630000000  0.5067700000000  0.4930790000000 1.0
C      1  0.4957760000000  0.4536370000000  0.4562620000000 1.0
C      1  0.5101060000000  0.5585660000000  0.5705070000000 1.0
C      1  0.5188890000000  0.5660280000000  0.5420640000000 1.0
C      1  0.5261260000000  0.5411770000000  0.5860640000000 1.0
C      1  0.5343470000000  0.4157660000000  0.4682800000000 1.0
C      1  0.5592290000000  0.5169690000000  0.5124700000000 1.0
C      1  0.5168760000000  0.5426390000000  0.5239120000000 1.0
C      1  0.5442480000000  0.5016420000000  0.4308700000000 1.0
C      1  0.5413040000000  0.4469330000000  0.5613270000000 1.0
C      1  0.5025770000000  0.4942730000000  0.4449510000000 1.0
C      1  0.4795050000000  0.4841820000000  0.4904420000000 1.0
C      1  0.5080010000000  0.4620540000000  0.5357550000000 1.0
C      1  0.5474960000000  0.4437080000000  0.5043230000000 1.0
C      1  0.5083520000000  0.5933010000000  0.5018580000000 1.0
C      1  0.5117880000000  0.4417030000000  0.5564520000000 1.0
C      1  0.4663710000000  0.4826510000000  0.5182040000000 1.0
C      1  0.4171740000000  0.4964580000000  0.4542510000000 1.0
C      1  0.4812820000000  0.5442780000000  0.4972480000000 1.0
C      1  0.4455230000000  0.4559990000000  0.4640420000000 1.0
C      1  0.4397020000000  0.4323890000000  0.4884990000000 1.0
C      1  0.4338810000000  0.5613590000000  0.4528750000000 1.0
C      1  0.5794220000000  0.5102530000000  0.4641010000000 1.0
C      1  0.4490220000000  0.4391320000000  0.5370160000000 1.0
C      1  0.4734720000000  0.4584390000000  0.4768490000000 1.0
C      1  0.4721760000000  0.5755850000000  0.5273150000000 1.0
C      1  0.4098670000000  0.5184840000000  0.4754230000000 1.0
C      1  0.4193380000000  0.5091970000000  0.5046250000000 1.0
C      1  0.4828790000000  0.5311640000000  0.4137210000000 1.0
C      1  0.5560500000000  0.5662950000000  0.4729000000000 1.0
C      1  0.4509900000000  0.5036310000000  0.4825920000000 1.0
C      1  0.5002690000000  0.5860940000000  0.5278350000000 1.0
C      1  0.5408900000000  0.5268240000000  0.5670740000000 1.0
C      1  0.5602760000000  0.5441440000000  0.5531900000000 1.0
C      1  0.5659990000000  0.4602510000000  0.4854810000000 1.0
C      1  0.5732470000000  0.4969420000000  0.5498100000000 1.0
C      1  0.4309610000000  0.4464620000000  0.5139080000000 1.0
C      1  0.4323120000000  0.4805150000000  0.4737060000000 1.0
C      1  0.4691340000000  0.4637710000000  0.5766650000000 1.0
C      1  0.4285480000000  0.5335920000000  0.5195840000000 1.0
C      1  0.4836940000000  0.4774640000000  0.5437770000000 1.0
C      1  0.4823150000000  0.4419970000000  0.4312230000000 1.0
C      1  0.4330480000000  0.5541300000000  0.4997520000000 1.0
C      1  0.5139000000000  0.4743460000000  0.5925390000000 1.0
C      1  0.4235350000000  0.5450980000000  0.4739380000000 1.0
C      1  0.4654060000000  0.5543130000000  0.5479480000000 1.0
C      1  0.5565000000000  0.4512120000000  0.5338020000000 1.0
C      1  0.4567700000000  0.4857700000000  0.4225470000000 1.0
C      1  0.4469970000000  0.4587600000000  0.5586450000000 1.0
C      1  0.4991620000000  0.5383480000000  0.4740870000000 1.0
C      1  0.5215680000000  0.5094530000000  0.4144120000000 1.0
C      1  0.5747530000000  0.5238250000000  0.5371960000000 1.0
C      1  0.5113590000000  0.4809590000000  0.4927280000000 1.0
C      1  0.5495430000000  0.5686260000000  0.5387370000000 1.0
C      1  0.4349420000000  0.4789220000000  0.5178290000000 1.0
C      1  0.5322770000000  0.4817950000000  0.5356340000000 1.0
C      1  0.5456040000000  0.4959690000000  0.5611320000000 1.0
C      1  0.5507950000000  0.4727410000000  0.4349360000000 1.0
C      1  0.4708660000000  0.4199630000000  0.5353710000000 1.0
C      1  0.4850570000000  0.5158320000000  0.5767050000000 1.0
C      1  0.4743110000000  0.5209520000000  0.5143530000000 1.0
C      1  0.4921900000000  0.4146360000000  0.4910460000000 1.0
C      1  0.4631970000000  0.5468420000000  0.4322000000000 1.0
C      1  0.4577390000000  0.5076700000000  0.5823070000000 1.0
C      1  0.4606030000000  0.5665930000000  0.4966140000000 1.0
C      1  0.4457630000000  0.5080620000000  0.5568760000000 1.0
C      1  0.5127050000000  0.4092460000000  0.5132550000000 1.0
C      1  0.5100920000000  0.4326970000000  0.4754400000000 1.0
C      1  0.4560140000000  0.4574250000000  0.4338040000000 1.0
C      1  0.5180310000000  0.4514030000000  0.4999410000000 1.0
C      1  0.5225720000000  0.5564300000000  0.4372030000000 1.0
C      1  0.4998580000000  0.4184350000000  0.5396230000000 1.0
C      1  0.5551860000000  0.5661250000000  0.5018940000000 1.0
C      1  0.5030110000000  0.5011700000000  0.5952760000000 1.0
C      1  0.5069730000000  0.4503460000000  0.4180000000000 1.0
C      1  0.4393990000000  0.5058270000000  0.4362190000000 1.0
C      1  0.5684940000000  0.4615710000000  0.4560410000000 1.0
C      1  0.4961660000000  0.4537150000000  0.5799130000000 1.0
C      1  0.5824490000000  0.4785730000000  0.5017830000000 1.0
C      1  0.4558270000000  0.5766350000000  0.4655660000000 1.0
C      1  0.4837990000000  0.5467060000000  0.5706330000000 1.0
C      1  0.4764410000000  0.5705890000000  0.4456070000000 1.0
C      1  0.4838630000000  0.4991810000000  0.4162300000000 1.0
C      1  0.4565220000000  0.5235150000000  0.4538440000000 1.0
END
